MODEL 1
REMARK VINA RESULT:      -9.5      0.000      0.000
REMARK  Name = 44258214
REMARK  3 active torsions:
REMARK  status: ('A' for Active; 'I' for Inactive)
REMARK    1  A    between atoms: O_8  and  C_30
REMARK    2  A    between atoms: C_11  and  C_15
REMARK    3  A    between atoms: C_23  and  C_25
REMARK                            x       y       z     vdW  Elec       q    Type
REMARK                         _______ _______ _______ _____ _____    ______ ____
ROOT
ATOM      1  O   UNL     1     111.935 126.865 137.300  0.00  0.00    +0.000 OA
ATOM      2  O   UNL     1     110.843 125.339 135.144  0.00  0.00    +0.000 OA
ATOM      3  O   UNL     1     110.029 128.080 135.492  0.00  0.00    +0.000 OA
ATOM      4  O   UNL     1     111.552 128.241 137.508  0.00  0.00    +0.000 OA
ATOM      5  C   UNL     1     111.389 126.102 136.222  0.00  0.00    +0.000 A 
ATOM      6  C   UNL     1     111.439 126.810 136.642  0.00  0.00    +0.000 A 
ATOM      7  C   UNL     1     110.894 126.047 135.565  0.00  0.00    +0.000 A 
ATOM      8  C   UNL     1     110.994 127.463 136.406  0.00  0.00    +0.000 A 
ATOM      9  C   UNL     1     110.448 126.699 135.328  0.00  0.00    +0.000 A 
ATOM     10  C   UNL     1     110.498 127.408 135.749  0.00  0.00    +0.000 A 
ATOM     11  C   UNL     1     111.054 128.195 136.852  0.00  0.00    +0.000 A 
ATOM     12  C   UNL     1     110.077 128.821 135.926  0.00  0.00    +0.000 A 
ATOM     13  C   UNL     1     110.593 128.878 136.611  0.00  0.00    +0.000 A 
ENDROOT
BRANCH   5  18
ATOM     14  O   UNL     1     112.626 125.386 136.235  0.00  0.00    +0.000 OA
ATOM     15  O   UNL     1     111.585 123.615 137.615  0.00  0.00    +0.000 OA
ATOM     16  O   UNL     1     113.168 123.489 137.168  0.00  0.00    +0.000 OA
ATOM     17  C   UNL     1     111.932 124.205 137.155  0.00  0.00    +0.000 C 
ATOM     18  C   UNL     1     111.835 125.449 136.459  0.00  0.00    +0.000 C 
ATOM     19  C   UNL     1     112.723 124.143 136.932  0.00  0.00    +0.000 C 
ATOM     20  C   UNL     1     111.488 124.859 136.918  0.00  0.00    +0.000 C 
ATOM     21  C   UNL     1     113.070 124.733 136.472  0.00  0.00    +0.000 C 
ATOM     22  C   UNL     1     113.862 124.670 136.249  0.00  0.00    +0.000 C 
ENDBRANCH   5  18
BRANCH  12  24
ATOM     23  O   UNL     1     107.653 130.333 136.028  0.00  0.00    +0.000 OA
ATOM     24  C   UNL     1     109.629 129.472 135.687  0.00  0.00    +0.000 A 
ATOM     25  C   UNL     1     108.864 129.577 135.977  0.00  0.00    +0.000 A 
ATOM     26  C   UNL     1     109.948 130.018 135.156  0.00  0.00    +0.000 A 
ATOM     27  C   UNL     1     108.418 130.227 135.737  0.00  0.00    +0.000 A 
ATOM     28  C   UNL     1     109.502 130.669 134.916  0.00  0.00    +0.000 A 
ATOM     29  C   UNL     1     108.737 130.774 135.206  0.00  0.00    +0.000 A 
BRANCH  29  30
ATOM     30  O   UNL     1     108.289 131.424 134.967  0.00  0.00    +0.000 OA
ATOM     31  C   UNL     1     108.660 132.070 134.612  0.00  0.00    +0.000 C 
ENDBRANCH  29  30
ENDBRANCH  12  24
TORSDOF 3
ENDMDL
MODEL 2
REMARK VINA RESULT:      -9.5      3.942      6.754
REMARK  Name = 44258214
REMARK  3 active torsions:
REMARK  status: ('A' for Active; 'I' for Inactive)
REMARK    1  A    between atoms: O_8  and  C_30
REMARK    2  A    between atoms: C_11  and  C_15
REMARK    3  A    between atoms: C_23  and  C_25
REMARK                            x       y       z     vdW  Elec       q    Type
REMARK                         _______ _______ _______ _____ _____    ______ ____
ROOT
ATOM      1  O   UNL     1     114.134 128.319 140.989  0.00  0.00    +0.000 OA
ATOM      2  O   UNL     1     113.102 130.161 139.064  0.00  0.00    +0.000 OA
ATOM      3  O   UNL     1     113.188 127.352 138.431  0.00  0.00    +0.000 OA
ATOM      4  O   UNL     1     114.194 126.904 140.711  0.00  0.00    +0.000 OA
ATOM      5  C   UNL     1     113.618 129.239 140.027  0.00  0.00    +0.000 A 
ATOM      6  C   UNL     1     113.806 128.468 140.247  0.00  0.00    +0.000 A 
ATOM      7  C   UNL     1     113.290 129.388 139.285  0.00  0.00    +0.000 A 
ATOM      8  C   UNL     1     113.667 127.843 139.726  0.00  0.00    +0.000 A 
ATOM      9  C   UNL     1     113.150 128.765 138.763  0.00  0.00    +0.000 A 
ATOM     10  C   UNL     1     113.338 127.992 138.984  0.00  0.00    +0.000 A 
ATOM     11  C   UNL     1     113.867 127.044 139.967  0.00  0.00    +0.000 A 
ATOM     12  C   UNL     1     113.382 126.545 138.655  0.00  0.00    +0.000 A 
ATOM     13  C   UNL     1     113.723 126.390 139.428  0.00  0.00    +0.000 A 
ENDROOT
BRANCH   5  18
ATOM     14  O   UNL     1     113.191 130.067 141.111  0.00  0.00    +0.000 OA
ATOM     15  O   UNL     1     115.316 131.329 140.985  0.00  0.00    +0.000 OA
ATOM     16  O   UNL     1     114.180 131.736 142.111  0.00  0.00    +0.000 OA
ATOM     17  C   UNL     1     114.608 130.908 141.027  0.00  0.00    +0.000 C 
ATOM     18  C   UNL     1     113.758 129.864 140.549  0.00  0.00    +0.000 C 
ATOM     19  C   UNL     1     114.039 131.111 141.590  0.00  0.00    +0.000 C 
ATOM     20  C   UNL     1     114.467 130.284 140.507  0.00  0.00    +0.000 C 
ATOM     21  C   UNL     1     113.331 130.690 141.632  0.00  0.00    +0.000 C 
ATOM     22  C   UNL     1     112.763 130.894 142.195  0.00  0.00    +0.000 C 
ENDBRANCH   5  18
BRANCH  12  24
ATOM     23  O   UNL     1     114.325 124.714 136.673  0.00  0.00    +0.000 OA
ATOM     24  C   UNL     1     113.240 125.923 138.130  0.00  0.00    +0.000 A 
ATOM     25  C   UNL     1     113.853 125.629 137.664  0.00  0.00    +0.000 A 
ATOM     26  C   UNL     1     112.485 125.597 138.073  0.00  0.00    +0.000 A 
ATOM     27  C   UNL     1     113.712 125.008 137.140  0.00  0.00    +0.000 A 
ATOM     28  C   UNL     1     112.342 124.975 137.549  0.00  0.00    +0.000 A 
ATOM     29  C   UNL     1     112.956 124.681 137.082  0.00  0.00    +0.000 A 
BRANCH  29  30
ATOM     30  O   UNL     1     112.815 124.060 136.558  0.00  0.00    +0.000 OA
ATOM     31  C   UNL     1     112.064 123.720 136.516  0.00  0.00    +0.000 C 
ENDBRANCH  29  30
ENDBRANCH  12  24
TORSDOF 3
ENDMDL
MODEL 3
REMARK VINA RESULT:      -9.5      3.925      5.165
REMARK  Name = 44258214
REMARK  3 active torsions:
REMARK  status: ('A' for Active; 'I' for Inactive)
REMARK    1  A    between atoms: O_8  and  C_30
REMARK    2  A    between atoms: C_11  and  C_15
REMARK    3  A    between atoms: C_23  and  C_25
REMARK                            x       y       z     vdW  Elec       q    Type
REMARK                         _______ _______ _______ _____ _____    ______ ____
ROOT
ATOM      1  O   UNL     1     113.917 126.173 139.395  0.00  0.00    +0.000 OA
ATOM      2  O   UNL     1     112.596 127.545 137.264  0.00  0.00    +0.000 OA
ATOM      3  O   UNL     1     113.113 128.932 139.736  0.00  0.00    +0.000 OA
ATOM      4  O   UNL     1     114.195 126.832 140.648  0.00  0.00    +0.000 OA
ATOM      5  C   UNL     1     113.257 126.859 138.330  0.00  0.00    +0.000 A 
ATOM      6  C   UNL     1     113.564 126.856 139.095  0.00  0.00    +0.000 A 
ATOM      7  C   UNL     1     112.904 127.542 138.030  0.00  0.00    +0.000 A 
ATOM      8  C   UNL     1     113.519 127.535 139.561  0.00  0.00    +0.000 A 
ATOM      9  C   UNL     1     112.858 128.221 138.495  0.00  0.00    +0.000 A 
ATOM     10  C   UNL     1     113.166 128.218 139.261  0.00  0.00    +0.000 A 
ATOM     11  C   UNL     1     113.843 127.519 140.356  0.00  0.00    +0.000 A 
ATOM     12  C   UNL     1     113.432 128.935 140.534  0.00  0.00    +0.000 A 
ATOM     13  C   UNL     1     113.800 128.224 140.847  0.00  0.00    +0.000 A 
ENDROOT
BRANCH   5  18
ATOM     14  O   UNL     1     113.972 126.037 137.406  0.00  0.00    +0.000 OA
ATOM     15  O   UNL     1     112.092 124.427 137.384  0.00  0.00    +0.000 OA
ATOM     16  O   UNL     1     113.433 124.141 136.467  0.00  0.00    +0.000 OA
ATOM     17  C   UNL     1     112.718 124.963 137.391  0.00  0.00    +0.000 C 
ATOM     18  C   UNL     1     113.301 126.179 137.864  0.00  0.00    +0.000 C 
ATOM     19  C   UNL     1     113.389 124.821 136.933  0.00  0.00    +0.000 C 
ATOM     20  C   UNL     1     112.675 125.643 137.857  0.00  0.00    +0.000 C 
ATOM     21  C   UNL     1     114.016 125.358 136.940  0.00  0.00    +0.000 C 
ATOM     22  C   UNL     1     114.686 125.214 136.481  0.00  0.00    +0.000 C 
ENDBRANCH   5  18
BRANCH  12  24
ATOM     23  O   UNL     1     114.534 131.432 141.383  0.00  0.00    +0.000 OA
ATOM     24  C   UNL     1     113.385 129.617 140.998  0.00  0.00    +0.000 A 
ATOM     25  C   UNL     1     113.983 130.184 140.959  0.00  0.00    +0.000 A 
ATOM     26  C   UNL     1     112.740 129.731 141.499  0.00  0.00    +0.000 A 
ATOM     27  C   UNL     1     113.936 130.865 141.422  0.00  0.00    +0.000 A 
ATOM     28  C   UNL     1     112.692 130.412 141.962  0.00  0.00    +0.000 A 
ATOM     29  C   UNL     1     113.290 130.979 141.924  0.00  0.00    +0.000 A 
BRANCH  29  30
ATOM     30  O   UNL     1     113.244 131.660 142.386  0.00  0.00    +0.000 OA
ATOM     31  C   UNL     1     112.642 131.738 142.945  0.00  0.00    +0.000 C 
ENDBRANCH  29  30
ENDBRANCH  12  24
TORSDOF 3
ENDMDL
MODEL 4
REMARK VINA RESULT:      -9.3      9.129     10.133
REMARK  Name = 44258214
REMARK  3 active torsions:
REMARK  status: ('A' for Active; 'I' for Inactive)
REMARK    1  A    between atoms: O_8  and  C_30
REMARK    2  A    between atoms: C_11  and  C_15
REMARK    3  A    between atoms: C_23  and  C_25
REMARK                            x       y       z     vdW  Elec       q    Type
REMARK                         _______ _______ _______ _____ _____    ______ ____
ROOT
ATOM      1  O   UNL     1     106.855 126.266 144.626  0.00  0.00    +0.000 OA
ATOM      2  O   UNL     1     105.160 124.220 145.680  0.00  0.00    +0.000 OA
ATOM      3  O   UNL     1     105.497 124.450 142.828  0.00  0.00    +0.000 OA
ATOM      4  O   UNL     1     107.050 126.414 143.204  0.00  0.00    +0.000 OA
ATOM      5  C   UNL     1     106.008 125.243 145.153  0.00  0.00    +0.000 A 
ATOM      6  C   UNL     1     106.348 125.625 144.506  0.00  0.00    +0.000 A 
ATOM      7  C   UNL     1     105.501 124.603 145.033  0.00  0.00    +0.000 A 
ATOM      8  C   UNL     1     106.183 125.368 143.740  0.00  0.00    +0.000 A 
ATOM      9  C   UNL     1     105.336 124.345 144.267  0.00  0.00    +0.000 A 
ATOM     10  C   UNL     1     105.677 124.728 143.620  0.00  0.00    +0.000 A 
ATOM     11  C   UNL     1     106.545 125.775 143.075  0.00  0.00    +0.000 A 
ATOM     12  C   UNL     1     105.849 124.844 142.150  0.00  0.00    +0.000 A 
ATOM     13  C   UNL     1     106.377 125.511 142.274  0.00  0.00    +0.000 A 
ENDROOT
BRANCH   5  18
ATOM     14  O   UNL     1     106.825 125.200 146.324  0.00  0.00    +0.000 OA
ATOM     15  O   UNL     1     105.360 126.875 147.408  0.00  0.00    +0.000 OA
ATOM     16  O   UNL     1     106.665 126.274 148.218  0.00  0.00    +0.000 OA
ATOM     17  C   UNL     1     105.848 126.317 147.046  0.00  0.00    +0.000 C 
ATOM     18  C   UNL     1     106.173 125.501 145.919  0.00  0.00    +0.000 C 
ATOM     19  C   UNL     1     106.501 126.016 147.451  0.00  0.00    +0.000 C 
ATOM     20  C   UNL     1     105.684 126.059 146.280  0.00  0.00    +0.000 C 
ATOM     21  C   UNL     1     106.989 125.458 147.090  0.00  0.00    +0.000 C 
ATOM     22  C   UNL     1     107.642 125.157 147.496  0.00  0.00    +0.000 C 
ENDBRANCH   5  18
BRANCH  12  24
ATOM     23  O   UNL     1     105.834 122.764 140.191  0.00  0.00    +0.000 OA
ATOM     24  C   UNL     1     105.682 124.584 141.385  0.00  0.00    +0.000 A 
ATOM     25  C   UNL     1     105.842 123.804 141.170  0.00  0.00    +0.000 A 
ATOM     26  C   UNL     1     105.354 125.104 140.835  0.00  0.00    +0.000 A 
ATOM     27  C   UNL     1     105.674 123.544 140.406  0.00  0.00    +0.000 A 
ATOM     28  C   UNL     1     105.186 124.845 140.070  0.00  0.00    +0.000 A 
ATOM     29  C   UNL     1     105.346 124.065 139.855  0.00  0.00    +0.000 A 
BRANCH  29  30
ATOM     30  O   UNL     1     105.179 123.804 139.091  0.00  0.00    +0.000 OA
ATOM     31  C   UNL     1     104.634 124.214 138.626  0.00  0.00    +0.000 C 
ENDBRANCH  29  30
ENDBRANCH  12  24
TORSDOF 3
ENDMDL
MODEL 5
REMARK VINA RESULT:      -9.2      9.966     10.642
REMARK  Name = 44258214
REMARK  3 active torsions:
REMARK  status: ('A' for Active; 'I' for Inactive)
REMARK    1  A    between atoms: O_8  and  C_30
REMARK    2  A    between atoms: C_11  and  C_15
REMARK    3  A    between atoms: C_23  and  C_25
REMARK                            x       y       z     vdW  Elec       q    Type
REMARK                         _______ _______ _______ _____ _____    ______ ____
ROOT
ATOM      1  O   UNL     1     106.956 127.097 146.763  0.00  0.00    +0.000 OA
ATOM      2  O   UNL     1     105.987 124.474 146.173  0.00  0.00    +0.000 OA
ATOM      3  O   UNL     1     105.560 126.601 144.277  0.00  0.00    +0.000 OA
ATOM      4  O   UNL     1     106.763 128.189 145.840  0.00  0.00    +0.000 OA
ATOM      5  C   UNL     1     106.472 125.786 146.468  0.00  0.00    +0.000 A 
ATOM      6  C   UNL     1     106.565 126.577 146.255  0.00  0.00    +0.000 A 
ATOM      7  C   UNL     1     106.080 125.266 145.961  0.00  0.00    +0.000 A 
ATOM      8  C   UNL     1     106.267 126.850 145.536  0.00  0.00    +0.000 A 
ATOM      9  C   UNL     1     105.782 125.538 145.241  0.00  0.00    +0.000 A 
ATOM     10  C   UNL     1     105.875 126.330 145.029  0.00  0.00    +0.000 A 
ATOM     11  C   UNL     1     106.370 127.676 145.327  0.00  0.00    +0.000 A 
ATOM     12  C   UNL     1     105.654 127.425 144.050  0.00  0.00    +0.000 A 
ATOM     13  C   UNL     1     106.062 127.966 144.578  0.00  0.00    +0.000 A 
ENDROOT
BRANCH   5  18
ATOM     14  O   UNL     1     106.278 125.469 147.848  0.00  0.00    +0.000 OA
ATOM     15  O   UNL     1     108.650 124.784 148.023  0.00  0.00    +0.000 OA
ATOM     16  O   UNL     1     107.666 124.695 149.344  0.00  0.00    +0.000 OA
ATOM     17  C   UNL     1     107.860 125.012 147.964  0.00  0.00    +0.000 C 
ATOM     18  C   UNL     1     106.770 125.513 147.187  0.00  0.00    +0.000 C 
ATOM     19  C   UNL     1     107.367 124.968 148.625  0.00  0.00    +0.000 C 
ATOM     20  C   UNL     1     107.561 125.285 147.246  0.00  0.00    +0.000 C 
ATOM     21  C   UNL     1     106.577 125.196 148.566  0.00  0.00    +0.000 C 
ATOM     22  C   UNL     1     106.085 125.151 149.228  0.00  0.00    +0.000 C 
ENDBRANCH   5  18
BRANCH  12  24
ATOM     23  O   UNL     1     105.503 127.226 141.203  0.00  0.00    +0.000 OA
ATOM     24  C   UNL     1     105.355 127.694 143.329  0.00  0.00    +0.000 A 
ATOM     25  C   UNL     1     105.578 127.325 142.626  0.00  0.00    +0.000 A 
ATOM     26  C   UNL     1     104.831 128.331 143.313  0.00  0.00    +0.000 A 
ATOM     27  C   UNL     1     105.279 127.594 141.906  0.00  0.00    +0.000 A 
ATOM     28  C   UNL     1     104.531 128.600 142.593  0.00  0.00    +0.000 A 
ATOM     29  C   UNL     1     104.755 128.232 141.890  0.00  0.00    +0.000 A 
BRANCH  29  30
ATOM     30  O   UNL     1     104.456 128.500 141.169  0.00  0.00    +0.000 OA
ATOM     31  C   UNL     1     103.761 128.945 141.153  0.00  0.00    +0.000 C 
ENDBRANCH  29  30
ENDBRANCH  12  24
TORSDOF 3
ENDMDL
MODEL 6
REMARK VINA RESULT:      -9.1      7.740      8.896
REMARK  Name = 44258214
REMARK  3 active torsions:
REMARK  status: ('A' for Active; 'I' for Inactive)
REMARK    1  A    between atoms: O_8  and  C_30
REMARK    2  A    between atoms: C_11  and  C_15
REMARK    3  A    between atoms: C_23  and  C_25
REMARK                            x       y       z     vdW  Elec       q    Type
REMARK                         _______ _______ _______ _____ _____    ______ ____
ROOT
ATOM      1  O   UNL     1     104.680 127.441 140.987  0.00  0.00    +0.000 OA
ATOM      2  O   UNL     1     105.861 128.219 143.471  0.00  0.00    +0.000 OA
ATOM      3  O   UNL     1     103.853 129.900 142.269  0.00  0.00    +0.000 OA
ATOM      4  O   UNL     1     103.671 128.255 140.353  0.00  0.00    +0.000 OA
ATOM      5  C   UNL     1     105.270 127.830 142.229  0.00  0.00    +0.000 A 
ATOM      6  C   UNL     1     104.741 127.975 141.613  0.00  0.00    +0.000 A 
ATOM      7  C   UNL     1     105.331 128.364 142.854  0.00  0.00    +0.000 A 
ATOM      8  C   UNL     1     104.273 128.655 141.622  0.00  0.00    +0.000 A 
ATOM      9  C   UNL     1     104.864 129.044 142.864  0.00  0.00    +0.000 A 
ATOM     10  C   UNL     1     104.334 129.189 142.248  0.00  0.00    +0.000 A 
ATOM     11  C   UNL     1     103.726 128.794 140.974  0.00  0.00    +0.000 A 
ATOM     12  C   UNL     1     103.300 130.057 141.630  0.00  0.00    +0.000 A 
ATOM     13  C   UNL     1     103.236 129.501 140.978  0.00  0.00    +0.000 A 
ENDROOT
BRANCH   5  18
ATOM     14  O   UNL     1     106.467 127.156 141.834  0.00  0.00    +0.000 OA
ATOM     15  O   UNL     1     105.682 125.100 142.966  0.00  0.00    +0.000 OA
ATOM     16  O   UNL     1     107.141 125.112 142.194  0.00  0.00    +0.000 OA
ATOM     17  C   UNL     1     105.944 125.785 142.589  0.00  0.00    +0.000 C 
ATOM     18  C   UNL     1     105.738 127.151 142.220  0.00  0.00    +0.000 C 
ATOM     19  C   UNL     1     106.673 125.792 142.203  0.00  0.00    +0.000 C 
ATOM     20  C   UNL     1     105.477 126.465 142.597  0.00  0.00    +0.000 C 
ATOM     21  C   UNL     1     106.934 126.477 141.826  0.00  0.00    +0.000 C 
ATOM     22  C   UNL     1     107.664 126.483 141.440  0.00  0.00    +0.000 C 
ENDBRANCH   5  18
BRANCH  12  24
ATOM     23  O   UNL     1     102.923 132.813 140.974  0.00  0.00    +0.000 OA
ATOM     24  C   UNL     1     102.833 130.738 141.643  0.00  0.00    +0.000 A 
ATOM     25  C   UNL     1     103.111 131.436 141.302  0.00  0.00    +0.000 A 
ATOM     26  C   UNL     1     102.088 130.720 141.997  0.00  0.00    +0.000 A 
ATOM     27  C   UNL     1     102.645 132.115 141.315  0.00  0.00    +0.000 A 
ATOM     28  C   UNL     1     101.621 131.400 142.010  0.00  0.00    +0.000 A 
ATOM     29  C   UNL     1     101.899 132.098 141.669  0.00  0.00    +0.000 A 
BRANCH  29  30
ATOM     30  O   UNL     1     101.434 132.778 141.682  0.00  0.00    +0.000 OA
ATOM     31  C   UNL     1     100.710 132.774 142.079  0.00  0.00    +0.000 C 
ENDBRANCH  29  30
ENDBRANCH  12  24
TORSDOF 3
ENDMDL
MODEL 7
REMARK VINA RESULT:      -9.0      9.947     11.661
REMARK  Name = 44258214
REMARK  3 active torsions:
REMARK  status: ('A' for Active; 'I' for Inactive)
REMARK    1  A    between atoms: O_8  and  C_30
REMARK    2  A    between atoms: C_11  and  C_15
REMARK    3  A    between atoms: C_23  and  C_25
REMARK                            x       y       z     vdW  Elec       q    Type
REMARK                         _______ _______ _______ _____ _____    ______ ____
ROOT
ATOM      1  O   UNL     1     105.474 126.415 143.664  0.00  0.00    +0.000 OA
ATOM      2  O   UNL     1     106.372 128.932 144.676  0.00  0.00    +0.000 OA
ATOM      3  O   UNL     1     106.481 126.605 146.370  0.00  0.00    +0.000 OA
ATOM      4  O   UNL     1     105.512 125.225 144.480  0.00  0.00    +0.000 OA
ATOM      5  C   UNL     1     105.923 127.673 144.169  0.00  0.00    +0.000 A 
ATOM      6  C   UNL     1     105.790 126.866 144.278  0.00  0.00    +0.000 A 
ATOM      7  C   UNL     1     106.238 128.125 144.784  0.00  0.00    +0.000 A 
ATOM      8  C   UNL     1     105.972 126.511 145.000  0.00  0.00    +0.000 A 
ATOM      9  C   UNL     1     106.421 127.770 145.506  0.00  0.00    +0.000 A 
ATOM     10  C   UNL     1     106.287 126.962 145.614  0.00  0.00    +0.000 A 
ATOM     11  C   UNL     1     105.828 125.670 145.099  0.00  0.00    +0.000 A 
ATOM     12  C   UNL     1     106.344 125.764 146.489  0.00  0.00    +0.000 A 
ATOM     13  C   UNL     1     106.016 125.294 145.850  0.00  0.00    +0.000 A 
ENDROOT
BRANCH   5  18
ATOM     14  O   UNL     1     104.997 128.363 143.328  0.00  0.00    +0.000 OA
ATOM     15  O   UNL     1     106.688 128.427 141.521  0.00  0.00    +0.000 OA
ATOM     16  O   UNL     1     105.198 129.095 141.281  0.00  0.00    +0.000 OA
ATOM     17  C   UNL     1     106.124 128.406 142.123  0.00  0.00    +0.000 C 
ATOM     18  C   UNL     1     105.741 128.029 143.448  0.00  0.00    +0.000 C 
ATOM     19  C   UNL     1     105.379 128.739 142.004  0.00  0.00    +0.000 C 
ATOM     20  C   UNL     1     106.305 128.050 142.845  0.00  0.00    +0.000 C 
ATOM     21  C   UNL     1     104.816 128.718 142.606  0.00  0.00    +0.000 C 
ATOM     22  C   UNL     1     104.071 129.052 142.486  0.00  0.00    +0.000 C 
ENDBRANCH   5  18
BRANCH  12  24
ATOM     23  O   UNL     1     105.504 124.636 148.977  0.00  0.00    +0.000 OA
ATOM     24  C   UNL     1     106.527 125.412 147.213  0.00  0.00    +0.000 A 
ATOM     25  C   UNL     1     105.924 125.200 147.734  0.00  0.00    +0.000 A 
ATOM     26  C   UNL     1     107.315 125.272 147.415  0.00  0.00    +0.000 A 
ATOM     27  C   UNL     1     106.107 124.848 148.456  0.00  0.00    +0.000 A 
ATOM     28  C   UNL     1     107.499 124.921 148.138  0.00  0.00    +0.000 A 
ATOM     29  C   UNL     1     106.896 124.708 148.659  0.00  0.00    +0.000 A 
BRANCH  29  30
ATOM     30  O   UNL     1     107.078 124.357 149.382  0.00  0.00    +0.000 OA
ATOM     31  C   UNL     1     107.866 124.274 149.612  0.00  0.00    +0.000 C 
ENDBRANCH  29  30
ENDBRANCH  12  24
TORSDOF 3
ENDMDL
MODEL 8
REMARK VINA RESULT:      -9.0      1.254      5.928
REMARK  Name = 44258214
REMARK  3 active torsions:
REMARK  status: ('A' for Active; 'I' for Inactive)
REMARK    1  A    between atoms: O_8  and  C_30
REMARK    2  A    between atoms: C_11  and  C_15
REMARK    3  A    between atoms: C_23  and  C_25
REMARK                            x       y       z     vdW  Elec       q    Type
REMARK                         _______ _______ _______ _____ _____    ______ ____
ROOT
ATOM      1  O   UNL     1     110.466 129.626 135.297  0.00  0.00    +0.000 OA
ATOM      2  O   UNL     1     109.278 129.214 137.864  0.00  0.00    +0.000 OA
ATOM      3  O   UNL     1     111.368 127.444 136.970  0.00  0.00    +0.000 OA
ATOM      4  O   UNL     1     111.516 128.762 134.813  0.00  0.00    +0.000 OA
ATOM      5  C   UNL     1     109.872 129.420 136.580  0.00  0.00    +0.000 A 
ATOM      6  C   UNL     1     110.416 129.198 136.001  0.00  0.00    +0.000 A 
ATOM      7  C   UNL     1     109.822 128.992 137.284  0.00  0.00    +0.000 A 
ATOM      8  C   UNL     1     110.910 128.549 136.125  0.00  0.00    +0.000 A 
ATOM      9  C   UNL     1     110.316 128.343 137.408  0.00  0.00    +0.000 A 
ATOM     10  C   UNL     1     110.860 128.122 136.828  0.00  0.00    +0.000 A 
ATOM     11  C   UNL     1     111.472 128.329 135.514  0.00  0.00    +0.000 A 
ATOM     12  C   UNL     1     111.937 127.208 136.370  0.00  0.00    +0.000 A 
ATOM     13  C   UNL     1     111.989 127.653 135.637  0.00  0.00    +0.000 A 
ENDROOT
BRANCH   5  18
ATOM     14  O   UNL     1     109.639 130.828 136.643  0.00  0.00    +0.000 OA
ATOM     15  O   UNL     1     107.371 130.495 135.710  0.00  0.00    +0.000 OA
ATOM     16  O   UNL     1     107.894 132.015 136.084  0.00  0.00    +0.000 OA
ATOM     17  C   UNL     1     108.127 130.606 136.021  0.00  0.00    +0.000 C 
ATOM     18  C   UNL     1     109.378 130.069 136.456  0.00  0.00    +0.000 C 
ATOM     19  C   UNL     1     108.389 131.365 136.208  0.00  0.00    +0.000 C 
ATOM     20  C   UNL     1     108.622 129.958 136.145  0.00  0.00    +0.000 C 
ATOM     21  C   UNL     1     109.145 131.477 136.520  0.00  0.00    +0.000 C 
ATOM     22  C   UNL     1     109.406 132.237 136.707  0.00  0.00    +0.000 C 
ENDBRANCH   5  18
BRANCH  12  24
ATOM     23  O   UNL     1     112.374 124.384 136.313  0.00  0.00    +0.000 OA
ATOM     24  C   UNL     1     112.430 126.558 136.498  0.00  0.00    +0.000 A 
ATOM     25  C   UNL     1     112.156 125.795 136.341  0.00  0.00    +0.000 A 
ATOM     26  C   UNL     1     113.196 126.671 136.782  0.00  0.00    +0.000 A 
ATOM     27  C   UNL     1     112.648 125.147 136.469  0.00  0.00    +0.000 A 
ATOM     28  C   UNL     1     113.689 126.022 136.910  0.00  0.00    +0.000 A 
ATOM     29  C   UNL     1     113.415 125.260 136.753  0.00  0.00    +0.000 A 
BRANCH  29  30
ATOM     30  O   UNL     1     113.907 124.610 136.881  0.00  0.00    +0.000 OA
ATOM     31  C   UNL     1     114.631 124.711 137.263  0.00  0.00    +0.000 C 
ENDBRANCH  29  30
ENDBRANCH  12  24
TORSDOF 3
ENDMDL
MODEL 9
REMARK VINA RESULT:      -8.9      1.828      2.359
REMARK  Name = 44258214
REMARK  3 active torsions:
REMARK  status: ('A' for Active; 'I' for Inactive)
REMARK    1  A    between atoms: O_8  and  C_30
REMARK    2  A    between atoms: C_11  and  C_15
REMARK    3  A    between atoms: C_23  and  C_25
REMARK                            x       y       z     vdW  Elec       q    Type
REMARK                         _______ _______ _______ _____ _____    ______ ____
ROOT
ATOM      1  O   UNL     1     113.386 127.289 136.091  0.00  0.00    +0.000 OA
ATOM      2  O   UNL     1     112.031 126.602 138.511  0.00  0.00    +0.000 OA
ATOM      3  O   UNL     1     111.547 129.169 137.296  0.00  0.00    +0.000 OA
ATOM      4  O   UNL     1     113.171 128.564 135.451  0.00  0.00    +0.000 OA
ATOM      5  C   UNL     1     112.708 126.946 137.300  0.00  0.00    +0.000 A 
ATOM      6  C   UNL     1     112.857 127.483 136.693  0.00  0.00    +0.000 A 
ATOM      7  C   UNL     1     112.180 127.140 137.903  0.00  0.00    +0.000 A 
ATOM      8  C   UNL     1     112.477 128.216 136.687  0.00  0.00    +0.000 A 
ATOM      9  C   UNL     1     111.799 127.872 137.898  0.00  0.00    +0.000 A 
ATOM     10  C   UNL     1     111.948 128.410 137.290  0.00  0.00    +0.000 A 
ATOM     11  C   UNL     1     112.641 128.767 136.049  0.00  0.00    +0.000 A 
ATOM     12  C   UNL     1     111.697 129.734 136.666  0.00  0.00    +0.000 A 
ATOM     13  C   UNL     1     112.248 129.532 136.038  0.00  0.00    +0.000 A 
ENDROOT
BRANCH   5  18
ATOM     14  O   UNL     1     112.743 125.566 136.929  0.00  0.00    +0.000 OA
ATOM     15  O   UNL     1     114.920 125.312 138.079  0.00  0.00    +0.000 OA
ATOM     16  O   UNL     1     114.229 124.017 137.325  0.00  0.00    +0.000 OA
ATOM     17  C   UNL     1     114.194 125.396 137.696  0.00  0.00    +0.000 C 
ATOM     18  C   UNL     1     113.088 126.213 137.306  0.00  0.00    +0.000 C 
ATOM     19  C   UNL     1     113.848 124.750 137.318  0.00  0.00    +0.000 C 
ATOM     20  C   UNL     1     113.814 126.128 137.690  0.00  0.00    +0.000 C 
ATOM     21  C   UNL     1     113.123 124.835 136.935  0.00  0.00    +0.000 C 
ATOM     22  C   UNL     1     112.778 124.187 136.558  0.00  0.00    +0.000 C 
ENDBRANCH   5  18
BRANCH  12  24
ATOM     23  O   UNL     1     109.487 131.371 135.890  0.00  0.00    +0.000 OA
ATOM     24  C   UNL     1     111.315 130.466 136.664  0.00  0.00    +0.000 A 
ATOM     25  C   UNL     1     110.592 130.553 136.278  0.00  0.00    +0.000 A 
ATOM     26  C   UNL     1     111.658 131.110 137.049  0.00  0.00    +0.000 A 
ATOM     27  C   UNL     1     110.211 131.284 136.276  0.00  0.00    +0.000 A 
ATOM     28  C   UNL     1     111.277 131.842 137.047  0.00  0.00    +0.000 A 
ATOM     29  C   UNL     1     110.553 131.929 136.661  0.00  0.00    +0.000 A 
BRANCH  29  30
ATOM     30  O   UNL     1     110.171 132.660 136.659  0.00  0.00    +0.000 OA
ATOM     31  C   UNL     1     110.501 133.298 137.065  0.00  0.00    +0.000 C 
ENDBRANCH  29  30
ENDBRANCH  12  24
TORSDOF 3
ENDMDL
MODEL 10
REMARK VINA RESULT:      -8.8      2.133      5.922
REMARK  Name = 44258214
REMARK  3 active torsions:
REMARK  status: ('A' for Active; 'I' for Inactive)
REMARK    1  A    between atoms: O_8  and  C_30
REMARK    2  A    between atoms: C_11  and  C_15
REMARK    3  A    between atoms: C_23  and  C_25
REMARK                            x       y       z     vdW  Elec       q    Type
REMARK                         _______ _______ _______ _____ _____    ______ ____
ROOT
ATOM      1  O   UNL     1     111.711 130.177 137.589  0.00  0.00    +0.000 OA
ATOM      2  O   UNL     1     108.906 129.841 138.020  0.00  0.00    +0.000 OA
ATOM      3  O   UNL     1     110.512 127.559 137.302  0.00  0.00    +0.000 OA
ATOM      4  O   UNL     1     112.550 129.060 137.229  0.00  0.00    +0.000 OA
ATOM      5  C   UNL     1     110.309 130.009 137.804  0.00  0.00    +0.000 A 
ATOM      6  C   UNL     1     111.045 129.691 137.614  0.00  0.00    +0.000 A 
ATOM      7  C   UNL     1     109.643 129.522 137.829  0.00  0.00    +0.000 A 
ATOM      8  C   UNL     1     111.117 128.886 137.448  0.00  0.00    +0.000 A 
ATOM      9  C   UNL     1     109.714 128.717 137.663  0.00  0.00    +0.000 A 
ATOM     10  C   UNL     1     110.451 128.399 137.473  0.00  0.00    +0.000 A 
ATOM     11  C   UNL     1     111.890 128.566 137.251  0.00  0.00    +0.000 A 
ATOM     12  C   UNL     1     111.278 127.221 137.103  0.00  0.00    +0.000 A 
ATOM     13  C   UNL     1     111.971 127.728 137.077  0.00  0.00    +0.000 A 
ENDROOT
BRANCH   5  18
ATOM     14  O   UNL     1     110.139 131.355 137.356  0.00  0.00    +0.000 OA
ATOM     15  O   UNL     1     110.218 132.146 139.700  0.00  0.00    +0.000 OA
ATOM     16  O   UNL     1     110.021 133.228 138.471  0.00  0.00    +0.000 OA
ATOM     17  C   UNL     1     110.192 131.882 138.919  0.00  0.00    +0.000 C 
ATOM     18  C   UNL     1     110.237 130.814 137.970  0.00  0.00    +0.000 C 
ATOM     19  C   UNL     1     110.093 132.423 138.304  0.00  0.00    +0.000 C 
ATOM     20  C   UNL     1     110.263 131.078 138.752  0.00  0.00    +0.000 C 
ATOM     21  C   UNL     1     110.067 132.159 137.522  0.00  0.00    +0.000 C 
ATOM     22  C   UNL     1     109.968 132.701 136.908  0.00  0.00    +0.000 C 
ENDBRANCH   5  18
BRANCH  12  24
ATOM     23  O   UNL     1     110.760 124.994 135.389  0.00  0.00    +0.000 OA
ATOM     24  C   UNL     1     111.345 126.415 136.938  0.00  0.00    +0.000 A 
ATOM     25  C   UNL     1     111.019 126.107 136.246  0.00  0.00    +0.000 A 
ATOM     26  C   UNL     1     111.739 125.918 137.465  0.00  0.00    +0.000 A 
ATOM     27  C   UNL     1     111.087 125.302 136.081  0.00  0.00    +0.000 A 
ATOM     28  C   UNL     1     111.807 125.113 137.301  0.00  0.00    +0.000 A 
ATOM     29  C   UNL     1     111.481 124.804 136.609  0.00  0.00    +0.000 A 
BRANCH  29  30
ATOM     30  O   UNL     1     111.548 123.999 136.443  0.00  0.00    +0.000 OA
ATOM     31  C   UNL     1     111.959 123.506 136.961  0.00  0.00    +0.000 C 
ENDBRANCH  29  30
ENDBRANCH  12  24
TORSDOF 3
ENDMDL
