MODEL 1
REMARK VINA RESULT:      -9.2      0.000      0.000
REMARK  Name = 44257614
REMARK  2 active torsions:
REMARK  status: ('A' for Active; 'I' for Inactive)
REMARK    1  A    between atoms: O_2  and  C_10
REMARK    2  A    between atoms: C_13  and  C_17
REMARK                            x       y       z     vdW  Elec       q    Type
REMARK                         _______ _______ _______ _____ _____    ______ ____
ROOT
ATOM      1  O   UNL     1     104.959 124.363 147.340  0.00  0.00    +0.000 OA
ATOM      2  O   UNL     1     107.367 125.489 146.194  0.00  0.00    +0.000 OA
ATOM      3  O   UNL     1     106.246 125.208 145.330  0.00  0.00    +0.000 OA
ATOM      4  C   UNL     1     105.762 124.658 147.419  0.00  0.00    +0.000 A 
ATOM      5  C   UNL     1     106.179 124.933 146.762  0.00  0.00    +0.000 A 
ATOM      6  C   UNL     1     106.116 124.665 148.165  0.00  0.00    +0.000 A 
ATOM      7  C   UNL     1     107.302 125.221 147.597  0.00  0.00    +0.000 A 
ATOM      8  C   UNL     1     106.885 124.946 148.253  0.00  0.00    +0.000 A 
ATOM      9  C   UNL     1     106.950 125.215 146.851  0.00  0.00    +0.000 A 
ATOM     10  C   UNL     1     105.822 124.931 145.981  0.00  0.00    +0.000 A 
ATOM     11  C   UNL     1     104.585 124.353 146.566  0.00  0.00    +0.000 A 
ATOM     12  C   UNL     1     105.019 124.639 145.882  0.00  0.00    +0.000 A 
ATOM     13  C   UNL     1     105.699 124.390 148.821  0.00  0.00    +0.000 C 
ATOM     14  C   UNL     1     108.073 125.503 147.685  0.00  0.00    +0.000 C 
ENDROOT
BRANCH  11  16
ATOM     15  O   UNL     1     104.320 122.868 145.897  0.00  0.00    +0.000 OA
ATOM     16  C   UNL     1     103.815 124.071 146.480  0.00  0.00    +0.000 A 
ATOM     17  C   UNL     1     103.682 123.329 146.145  0.00  0.00    +0.000 A 
ATOM     18  C   UNL     1     103.177 124.531 146.728  0.00  0.00    +0.000 A 
ATOM     19  C   UNL     1     102.913 123.046 146.059  0.00  0.00    +0.000 A 
ATOM     20  C   UNL     1     102.406 124.248 146.642  0.00  0.00    +0.000 A 
ATOM     21  C   UNL     1     102.273 123.506 146.308  0.00  0.00    +0.000 A 
ENDBRANCH  11  16
BRANCH   8  22
ATOM     22  O   UNL     1     107.239 124.953 148.999  0.00  0.00    +0.000 OA
ATOM     23  C   UNL     1     107.674 124.302 149.256  0.00  0.00    +0.000 C 
ENDBRANCH   8  22
TORSDOF 2
ENDMDL
MODEL 2
REMARK VINA RESULT:      -8.9      7.496      8.511
REMARK  Name = 44257614
REMARK  2 active torsions:
REMARK  status: ('A' for Active; 'I' for Inactive)
REMARK    1  A    between atoms: O_2  and  C_10
REMARK    2  A    between atoms: C_13  and  C_17
REMARK                            x       y       z     vdW  Elec       q    Type
REMARK                         _______ _______ _______ _____ _____    ______ ____
ROOT
ATOM      1  O   UNL     1     102.858 130.716 142.281  0.00  0.00    +0.000 OA
ATOM      2  O   UNL     1     103.776 128.565 140.575  0.00  0.00    +0.000 OA
ATOM      3  O   UNL     1     102.849 129.534 140.041  0.00  0.00    +0.000 OA
ATOM      4  C   UNL     1     103.328 130.010 142.150  0.00  0.00    +0.000 A 
ATOM      5  C   UNL     1     103.324 129.627 141.419  0.00  0.00    +0.000 A 
ATOM      6  C   UNL     1     103.790 129.714 142.767  0.00  0.00    +0.000 A 
ATOM      7  C   UNL     1     104.241 128.654 141.923  0.00  0.00    +0.000 A 
ATOM      8  C   UNL     1     104.246 129.037 142.654  0.00  0.00    +0.000 A 
ATOM      9  C   UNL     1     103.780 128.948 141.306  0.00  0.00    +0.000 A 
ATOM     10  C   UNL     1     102.848 129.923 140.769  0.00  0.00    +0.000 A 
ATOM     11  C   UNL     1     102.375 131.028 141.641  0.00  0.00    +0.000 A 
ATOM     12  C   UNL     1     102.370 130.629 140.880  0.00  0.00    +0.000 A 
ATOM     13  C   UNL     1     103.795 130.097 143.498  0.00  0.00    +0.000 C 
ATOM     14  C   UNL     1     104.698 127.976 141.810  0.00  0.00    +0.000 C 
ENDROOT
BRANCH  11  16
ATOM     15  O   UNL     1     102.971 132.506 141.212  0.00  0.00    +0.000 OA
ATOM     16  C   UNL     1     101.919 131.706 141.757  0.00  0.00    +0.000 A 
ATOM     17  C   UNL     1     102.217 132.445 141.543  0.00  0.00    +0.000 A 
ATOM     18  C   UNL     1     101.166 131.645 142.088  0.00  0.00    +0.000 A 
ATOM     19  C   UNL     1     101.763 133.122 141.658  0.00  0.00    +0.000 A 
ATOM     20  C   UNL     1     100.711 132.324 142.204  0.00  0.00    +0.000 A 
ATOM     21  C   UNL     1     101.009 133.063 141.989  0.00  0.00    +0.000 A 
ENDBRANCH  11  16
BRANCH   8  22
ATOM     22  O   UNL     1     104.708 128.742 143.271  0.00  0.00    +0.000 OA
ATOM     23  C   UNL     1     105.484 129.002 143.367  0.00  0.00    +0.000 C 
ENDBRANCH   8  22
TORSDOF 2
ENDMDL
MODEL 3
REMARK VINA RESULT:      -8.6     11.857     12.819
REMARK  Name = 44257614
REMARK  2 active torsions:
REMARK  status: ('A' for Active; 'I' for Inactive)
REMARK    1  A    between atoms: O_2  and  C_10
REMARK    2  A    between atoms: C_13  and  C_17
REMARK                            x       y       z     vdW  Elec       q    Type
REMARK                         _______ _______ _______ _____ _____    ______ ____
ROOT
ATOM      1  O   UNL     1     111.950 125.802 136.069  0.00  0.00    +0.000 OA
ATOM      2  O   UNL     1     113.263 123.507 137.246  0.00  0.00    +0.000 OA
ATOM      3  O   UNL     1     111.853 123.429 136.947  0.00  0.00    +0.000 OA
ATOM      4  C   UNL     1     112.651 125.415 136.379  0.00  0.00    +0.000 A 
ATOM      5  C   UNL     1     112.616 124.642 136.665  0.00  0.00    +0.000 A 
ATOM      6  C   UNL     1     113.366 125.827 136.390  0.00  0.00    +0.000 A 
ATOM      7  C   UNL     1     114.011 124.693 136.971  0.00  0.00    +0.000 A 
ATOM      8  C   UNL     1     114.046 125.466 136.686  0.00  0.00    +0.000 A 
ATOM      9  C   UNL     1     113.297 124.280 136.961  0.00  0.00    +0.000 A 
ATOM     10  C   UNL     1     111.879 124.202 136.659  0.00  0.00    +0.000 A 
ATOM     11  C   UNL     1     111.202 125.378 136.055  0.00  0.00    +0.000 A 
ATOM     12  C   UNL     1     111.166 124.573 136.352  0.00  0.00    +0.000 A 
ATOM     13  C   UNL     1     113.400 126.600 136.105  0.00  0.00    +0.000 C 
ATOM     14  C   UNL     1     114.692 124.331 137.267  0.00  0.00    +0.000 C 
ENDROOT
BRANCH  11  16
ATOM     15  O   UNL     1     110.195 126.200 137.072  0.00  0.00    +0.000 OA
ATOM     16  C   UNL     1     110.523 125.741 135.759  0.00  0.00    +0.000 A 
ATOM     17  C   UNL     1     110.020 126.152 136.267  0.00  0.00    +0.000 A 
ATOM     18  C   UNL     1     110.348 125.694 134.954  0.00  0.00    +0.000 A 
ATOM     19  C   UNL     1     109.342 126.516 135.971  0.00  0.00    +0.000 A 
ATOM     20  C   UNL     1     109.669 126.058 134.658  0.00  0.00    +0.000 A 
ATOM     21  C   UNL     1     109.165 126.469 135.166  0.00  0.00    +0.000 A 
ENDBRANCH  11  16
BRANCH   8  22
ATOM     22  O   UNL     1     114.761 125.878 136.696  0.00  0.00    +0.000 OA
ATOM     23  C   UNL     1     115.268 125.841 136.048  0.00  0.00    +0.000 C 
ENDBRANCH   8  22
TORSDOF 2
ENDMDL
MODEL 4
REMARK VINA RESULT:      -8.5     12.367     13.442
REMARK  Name = 44257614
REMARK  2 active torsions:
REMARK  status: ('A' for Active; 'I' for Inactive)
REMARK    1  A    between atoms: O_2  and  C_10
REMARK    2  A    between atoms: C_13  and  C_17
REMARK                            x       y       z     vdW  Elec       q    Type
REMARK                         _______ _______ _______ _____ _____    ______ ____
ROOT
ATOM      1  O   UNL     1     112.343 125.919 136.357  0.00  0.00    +0.000 OA
ATOM      2  O   UNL     1     111.292 128.483 135.521  0.00  0.00    +0.000 OA
ATOM      3  O   UNL     1     112.643 128.411 136.023  0.00  0.00    +0.000 OA
ATOM      4  C   UNL     1     111.708 126.404 136.041  0.00  0.00    +0.000 A 
ATOM      5  C   UNL     1     111.809 127.216 135.934  0.00  0.00    +0.000 A 
ATOM      6  C   UNL     1     110.990 126.048 135.845  0.00  0.00    +0.000 A 
ATOM      7  C   UNL     1     110.474 127.315 135.433  0.00  0.00    +0.000 A 
ATOM      8  C   UNL     1     110.373 126.503 135.540  0.00  0.00    +0.000 A 
ATOM      9  C   UNL     1     111.191 127.672 135.629  0.00  0.00    +0.000 A 
ATOM     10  C   UNL     1     112.551 127.599 136.134  0.00  0.00    +0.000 A 
ATOM     11  C   UNL     1     113.093 126.284 136.564  0.00  0.00    +0.000 A 
ATOM     12  C   UNL     1     113.198 127.130 136.452  0.00  0.00    +0.000 A 
ATOM     13  C   UNL     1     110.889 125.237 135.952  0.00  0.00    +0.000 C 
ATOM     14  C   UNL     1     109.857 127.771 135.128  0.00  0.00    +0.000 C 
ENDROOT
BRANCH  11  16
ATOM     15  O   UNL     1     113.324 126.193 138.195  0.00  0.00    +0.000 OA
ATOM     16  C   UNL     1     113.708 125.827 136.868  0.00  0.00    +0.000 A 
ATOM     17  C   UNL     1     113.824 125.781 137.684  0.00  0.00    +0.000 A 
ATOM     18  C   UNL     1     114.208 125.415 136.357  0.00  0.00    +0.000 A 
ATOM     19  C   UNL     1     114.438 125.324 137.988  0.00  0.00    +0.000 A 
ATOM     20  C   UNL     1     114.823 124.957 136.662  0.00  0.00    +0.000 A 
ATOM     21  C   UNL     1     114.939 124.911 137.478  0.00  0.00    +0.000 A 
ENDBRANCH  11  16
BRANCH   8  22
ATOM     22  O   UNL     1     109.655 126.147 135.344  0.00  0.00    +0.000 OA
ATOM     23  C   UNL     1     109.564 125.778 134.612  0.00  0.00    +0.000 C 
ENDBRANCH   8  22
TORSDOF 2
ENDMDL
MODEL 5
REMARK VINA RESULT:      -8.5      1.156      4.241
REMARK  Name = 44257614
REMARK  2 active torsions:
REMARK  status: ('A' for Active; 'I' for Inactive)
REMARK    1  A    between atoms: O_2  and  C_10
REMARK    2  A    between atoms: C_13  and  C_17
REMARK                            x       y       z     vdW  Elec       q    Type
REMARK                         _______ _______ _______ _____ _____    ______ ____
ROOT
ATOM      1  O   UNL     1     105.121 124.556 147.196  0.00  0.00    +0.000 OA
ATOM      2  O   UNL     1     102.489 125.215 148.204  0.00  0.00    +0.000 OA
ATOM      3  O   UNL     1     103.651 125.700 148.911  0.00  0.00    +0.000 OA
ATOM      4  C   UNL     1     104.265 124.514 147.144  0.00  0.00    +0.000 A 
ATOM      5  C   UNL     1     103.788 124.888 147.705  0.00  0.00    +0.000 A 
ATOM      6  C   UNL     1     103.919 124.094 146.524  0.00  0.00    +0.000 A 
ATOM      7  C   UNL     1     102.622 124.421 147.024  0.00  0.00    +0.000 A 
ATOM      8  C   UNL     1     103.098 124.047 146.464  0.00  0.00    +0.000 A 
ATOM      9  C   UNL     1     102.966 124.841 147.644  0.00  0.00    +0.000 A 
ATOM     10  C   UNL     1     104.135 125.329 148.355  0.00  0.00    +0.000 A 
ATOM     11  C   UNL     1     105.486 124.992 147.840  0.00  0.00    +0.000 A 
ATOM     12  C   UNL     1     104.990 125.381 148.423  0.00  0.00    +0.000 A 
ATOM     13  C   UNL     1     104.396 123.720 145.964  0.00  0.00    +0.000 C 
ATOM     14  C   UNL     1     101.799 124.374 146.964  0.00  0.00    +0.000 C 
ENDROOT
BRANCH  11  16
ATOM     15  O   UNL     1     106.290 124.049 148.930  0.00  0.00    +0.000 OA
ATOM     16  C   UNL     1     106.308 125.037 147.898  0.00  0.00    +0.000 A 
ATOM     17  C   UNL     1     106.710 124.566 148.443  0.00  0.00    +0.000 A 
ATOM     18  C   UNL     1     106.728 125.554 147.411  0.00  0.00    +0.000 A 
ATOM     19  C   UNL     1     107.531 124.611 148.501  0.00  0.00    +0.000 A 
ATOM     20  C   UNL     1     107.550 125.599 147.469  0.00  0.00    +0.000 A 
ATOM     21  C   UNL     1     107.952 125.127 148.014  0.00  0.00    +0.000 A 
ENDBRANCH  11  16
BRANCH   8  22
ATOM     22  O   UNL     1     102.753 123.626 145.843  0.00  0.00    +0.000 OA
ATOM     23  C   UNL     1     102.584 122.825 145.932  0.00  0.00    +0.000 C 
ENDBRANCH   8  22
TORSDOF 2
ENDMDL
MODEL 6
REMARK VINA RESULT:      -8.4      2.066      4.062
REMARK  Name = 44257614
REMARK  2 active torsions:
REMARK  status: ('A' for Active; 'I' for Inactive)
REMARK    1  A    between atoms: O_2  and  C_10
REMARK    2  A    between atoms: C_13  and  C_17
REMARK                            x       y       z     vdW  Elec       q    Type
REMARK                         _______ _______ _______ _____ _____    ______ ____
ROOT
ATOM      1  O   UNL     1     106.576 125.370 146.593  0.00  0.00    +0.000 OA
ATOM      2  O   UNL     1     106.469 127.906 145.204  0.00  0.00    +0.000 OA
ATOM      3  O   UNL     1     107.034 127.859 146.531  0.00  0.00    +0.000 OA
ATOM      4  C   UNL     1     106.370 125.841 145.906  0.00  0.00    +0.000 A 
ATOM      5  C   UNL     1     106.521 126.652 145.888  0.00  0.00    +0.000 A 
ATOM      6  C   UNL     1     106.018 125.473 145.257  0.00  0.00    +0.000 A 
ATOM      7  C   UNL     1     105.966 126.727 144.573  0.00  0.00    +0.000 A 
ATOM      8  C   UNL     1     105.815 125.916 144.591  0.00  0.00    +0.000 A 
ATOM      9  C   UNL     1     106.318 127.095 145.221  0.00  0.00    +0.000 A 
ATOM     10  C   UNL     1     106.887 127.048 146.557  0.00  0.00    +0.000 A 
ATOM     11  C   UNL     1     106.944 125.748 147.272  0.00  0.00    +0.000 A 
ATOM     12  C   UNL     1     107.101 126.592 147.254  0.00  0.00    +0.000 A 
ATOM     13  C   UNL     1     105.867 124.662 145.274  0.00  0.00    +0.000 C 
ATOM     14  C   UNL     1     105.763 127.170 143.907  0.00  0.00    +0.000 C 
ENDROOT
BRANCH  11  16
ATOM     15  O   UNL     1     108.496 125.227 147.477  0.00  0.00    +0.000 OA
ATOM     16  C   UNL     1     107.145 125.303 147.937  0.00  0.00    +0.000 A 
ATOM     17  C   UNL     1     107.922 125.042 148.040  0.00  0.00    +0.000 A 
ATOM     18  C   UNL     1     106.571 125.118 148.499  0.00  0.00    +0.000 A 
ATOM     19  C   UNL     1     108.123 124.598 148.704  0.00  0.00    +0.000 A 
ATOM     20  C   UNL     1     106.773 124.672 149.164  0.00  0.00    +0.000 A 
ATOM     21  C   UNL     1     107.549 124.412 149.267  0.00  0.00    +0.000 A 
ENDBRANCH  11  16
BRANCH   8  22
ATOM     22  O   UNL     1     105.462 125.548 143.942  0.00  0.00    +0.000 OA
ATOM     23  C   UNL     1     105.931 125.231 143.342  0.00  0.00    +0.000 C 
ENDBRANCH   8  22
TORSDOF 2
ENDMDL
MODEL 7
REMARK VINA RESULT:      -8.4     12.387     13.500
REMARK  Name = 44257614
REMARK  2 active torsions:
REMARK  status: ('A' for Active; 'I' for Inactive)
REMARK    1  A    between atoms: O_2  and  C_10
REMARK    2  A    between atoms: C_13  and  C_17
REMARK                            x       y       z     vdW  Elec       q    Type
REMARK                         _______ _______ _______ _____ _____    ______ ____
ROOT
ATOM      1  O   UNL     1     112.563 126.623 136.177  0.00  0.00    +0.000 OA
ATOM      2  O   UNL     1     109.980 125.913 135.081  0.00  0.00    +0.000 OA
ATOM      3  O   UNL     1     110.785 124.886 135.698  0.00  0.00    +0.000 OA
ATOM      4  C   UNL     1     111.833 126.834 135.776  0.00  0.00    +0.000 A 
ATOM      5  C   UNL     1     111.256 126.266 135.622  0.00  0.00    +0.000 A 
ATOM      6  C   UNL     1     111.714 127.617 135.546  0.00  0.00    +0.000 A 
ATOM      7  C   UNL     1     110.439 127.264 135.006  0.00  0.00    +0.000 A 
ATOM      8  C   UNL     1     111.017 127.832 135.161  0.00  0.00    +0.000 A 
ATOM      9  C   UNL     1     110.558 126.481 135.236  0.00  0.00    +0.000 A 
ATOM     10  C   UNL     1     111.368 125.447 135.856  0.00  0.00    +0.000 A 
ATOM     11  C   UNL     1     112.694 125.808 136.419  0.00  0.00    +0.000 A 
ATOM     12  C   UNL     1     112.092 125.217 136.258  0.00  0.00    +0.000 A 
ATOM     13  C   UNL     1     112.291 128.185 135.700  0.00  0.00    +0.000 C 
ATOM     14  C   UNL     1     109.741 127.479 134.620  0.00  0.00    +0.000 C 
ENDROOT
BRANCH  11  16
ATOM     15  O   UNL     1     112.780 125.875 138.066  0.00  0.00    +0.000 OA
ATOM     16  C   UNL     1     113.392 125.596 136.805  0.00  0.00    +0.000 A 
ATOM     17  C   UNL     1     113.435 125.629 137.628  0.00  0.00    +0.000 A 
ATOM     18  C   UNL     1     114.046 125.350 136.366  0.00  0.00    +0.000 A 
ATOM     19  C   UNL     1     114.132 125.417 138.013  0.00  0.00    +0.000 A 
ATOM     20  C   UNL     1     114.744 125.138 136.753  0.00  0.00    +0.000 A 
ATOM     21  C   UNL     1     114.788 125.171 137.576  0.00  0.00    +0.000 A 
ENDBRANCH  11  16
BRANCH   8  22
ATOM     22  O   UNL     1     110.897 128.615 134.930  0.00  0.00    +0.000 OA
ATOM     23  C   UNL     1     110.553 129.152 135.453  0.00  0.00    +0.000 C 
ENDBRANCH   8  22
TORSDOF 2
ENDMDL
MODEL 8
REMARK VINA RESULT:      -8.3     10.037     11.630
REMARK  Name = 44257614
REMARK  2 active torsions:
REMARK  status: ('A' for Active; 'I' for Inactive)
REMARK    1  A    between atoms: O_2  and  C_10
REMARK    2  A    between atoms: C_13  and  C_17
REMARK                            x       y       z     vdW  Elec       q    Type
REMARK                         _______ _______ _______ _____ _____    ______ ____
ROOT
ATOM      1  O   UNL     1     113.559 126.320 138.866  0.00  0.00    +0.000 OA
ATOM      2  O   UNL     1     110.903 126.188 140.010  0.00  0.00    +0.000 OA
ATOM      3  O   UNL     1     111.145 125.568 138.729  0.00  0.00    +0.000 OA
ATOM      4  C   UNL     1     113.001 126.501 139.494  0.00  0.00    +0.000 A 
ATOM      5  C   UNL     1     112.215 126.255 139.447  0.00  0.00    +0.000 A 
ATOM      6  C   UNL     1     113.261 126.927 140.152  0.00  0.00    +0.000 A 
ATOM      7  C   UNL     1     111.949 126.860 140.714  0.00  0.00    +0.000 A 
ATOM      8  C   UNL     1     112.735 127.106 140.761  0.00  0.00    +0.000 A 
ATOM      9  C   UNL     1     111.689 126.434 140.057  0.00  0.00    +0.000 A 
ATOM     10  C   UNL     1     111.932 125.811 138.768  0.00  0.00    +0.000 A 
ATOM     11  C   UNL     1     113.294 125.877 138.179  0.00  0.00    +0.000 A 
ATOM     12  C   UNL     1     112.476 125.620 138.130  0.00  0.00    +0.000 A 
ATOM     13  C   UNL     1     114.047 127.173 140.199  0.00  0.00    +0.000 C 
ATOM     14  C   UNL     1     111.423 127.040 141.324  0.00  0.00    +0.000 C 
ENDROOT
BRANCH  11  16
ATOM     15  O   UNL     1     113.396 126.863 136.860  0.00  0.00    +0.000 OA
ATOM     16  C   UNL     1     113.822 125.698 137.571  0.00  0.00    +0.000 A 
ATOM     17  C   UNL     1     113.873 126.191 136.911  0.00  0.00    +0.000 A 
ATOM     18  C   UNL     1     114.299 125.027 137.622  0.00  0.00    +0.000 A 
ATOM     19  C   UNL     1     114.401 126.014 136.303  0.00  0.00    +0.000 A 
ATOM     20  C   UNL     1     114.827 124.849 137.013  0.00  0.00    +0.000 A 
ATOM     21  C   UNL     1     114.878 125.343 136.353  0.00  0.00    +0.000 A 
ENDBRANCH  11  16
BRANCH   8  22
ATOM     22  O   UNL     1     112.995 127.532 141.418  0.00  0.00    +0.000 OA
ATOM     23  C   UNL     1     112.952 128.356 141.420  0.00  0.00    +0.000 C 
ENDBRANCH   8  22
TORSDOF 2
ENDMDL
MODEL 9
REMARK VINA RESULT:      -8.2      1.280      4.095
REMARK  Name = 44257614
REMARK  2 active torsions:
REMARK  status: ('A' for Active; 'I' for Inactive)
REMARK    1  A    between atoms: O_2  and  C_10
REMARK    2  A    between atoms: C_13  and  C_17
REMARK                            x       y       z     vdW  Elec       q    Type
REMARK                         _______ _______ _______ _____ _____    ______ ____
ROOT
ATOM      1  O   UNL     1     104.003 124.614 147.424  0.00  0.00    +0.000 OA
ATOM      2  O   UNL     1     102.912 123.127 145.193  0.00  0.00    +0.000 OA
ATOM      3  O   UNL     1     104.221 123.723 145.064  0.00  0.00    +0.000 OA
ATOM      4  C   UNL     1     103.375 124.150 147.066  0.00  0.00    +0.000 A 
ATOM      5  C   UNL     1     103.449 123.861 146.296  0.00  0.00    +0.000 A 
ATOM      6  C   UNL     1     102.691 123.994 147.500  0.00  0.00    +0.000 A 
ATOM      7  C   UNL     1     102.156 123.262 146.398  0.00  0.00    +0.000 A 
ATOM      8  C   UNL     1     102.082 123.551 147.167  0.00  0.00    +0.000 A 
ATOM      9  C   UNL     1     102.839 123.416 145.962  0.00  0.00    +0.000 A 
ATOM     10  C   UNL     1     104.155 124.016 145.833  0.00  0.00    +0.000 A 
ATOM     11  C   UNL     1     104.717 124.779 146.976  0.00  0.00    +0.000 A 
ATOM     12  C   UNL     1     104.794 124.478 146.175  0.00  0.00    +0.000 A 
ATOM     13  C   UNL     1     102.618 124.283 148.270  0.00  0.00    +0.000 C 
ATOM     14  C   UNL     1     101.546 122.817 146.063  0.00  0.00    +0.000 C 
ENDROOT
BRANCH  11  16
ATOM     15  O   UNL     1     105.975 124.020 147.728  0.00  0.00    +0.000 OA
ATOM     16  C   UNL     1     105.326 125.224 147.312  0.00  0.00    +0.000 A 
ATOM     17  C   UNL     1     105.955 124.844 147.688  0.00  0.00    +0.000 A 
ATOM     18  C   UNL     1     105.305 126.047 147.273  0.00  0.00    +0.000 A 
ATOM     19  C   UNL     1     106.562 125.288 148.024  0.00  0.00    +0.000 A 
ATOM     20  C   UNL     1     105.914 126.492 147.610  0.00  0.00    +0.000 A 
ATOM     21  C   UNL     1     106.543 126.112 147.986  0.00  0.00    +0.000 A 
ENDBRANCH  11  16
BRANCH   8  22
ATOM     22  O   UNL     1     101.398 123.395 147.602  0.00  0.00    +0.000 OA
ATOM     23  C   UNL     1     101.368 122.742 148.104  0.00  0.00    +0.000 C 
ENDBRANCH   8  22
TORSDOF 2
ENDMDL
MODEL 10
REMARK VINA RESULT:      -8.2     12.325     13.732
REMARK  Name = 44257614
REMARK  2 active torsions:
REMARK  status: ('A' for Active; 'I' for Inactive)
REMARK    1  A    between atoms: O_2  and  C_10
REMARK    2  A    between atoms: C_13  and  C_17
REMARK                            x       y       z     vdW  Elec       q    Type
REMARK                         _______ _______ _______ _____ _____    ______ ____
ROOT
ATOM      1  O   UNL     1     113.753 127.336 136.476  0.00  0.00    +0.000 OA
ATOM      2  O   UNL     1     112.353 129.523 137.754  0.00  0.00    +0.000 OA
ATOM      3  O   UNL     1     112.191 128.188 138.277  0.00  0.00    +0.000 OA
ATOM      4  C   UNL     1     113.555 128.170 136.533  0.00  0.00    +0.000 A 
ATOM      5  C   UNL     1     113.045 128.445 137.121  0.00  0.00    +0.000 A 
ATOM      6  C   UNL     1     113.880 128.699 135.990  0.00  0.00    +0.000 A 
ATOM      7  C   UNL     1     113.188 129.776 136.623  0.00  0.00    +0.000 A 
ATOM      8  C   UNL     1     113.697 129.502 136.035  0.00  0.00    +0.000 A 
ATOM      9  C   UNL     1     112.862 129.248 137.166  0.00  0.00    +0.000 A 
ATOM     10  C   UNL     1     112.700 127.905 137.692  0.00  0.00    +0.000 A 
ATOM     11  C   UNL     1     113.417 126.781 137.039  0.00  0.00    +0.000 A 
ATOM     12  C   UNL     1     112.887 127.067 137.651  0.00  0.00    +0.000 A 
ATOM     13  C   UNL     1     114.390 128.425 135.402  0.00  0.00    +0.000 C 
ATOM     14  C   UNL     1     113.005 130.580 136.668  0.00  0.00    +0.000 C 
ENDROOT
BRANCH  11  16
ATOM     15  O   UNL     1     112.430 125.754 136.205  0.00  0.00    +0.000 OA
ATOM     16  C   UNL     1     113.602 125.978 136.991  0.00  0.00    +0.000 A 
ATOM     17  C   UNL     1     113.108 125.465 136.575  0.00  0.00    +0.000 A 
ATOM     18  C   UNL     1     114.280 125.689 137.361  0.00  0.00    +0.000 A 
ATOM     19  C   UNL     1     113.293 124.663 136.527  0.00  0.00    +0.000 A 
ATOM     20  C   UNL     1     114.465 124.885 137.313  0.00  0.00    +0.000 A 
ATOM     21  C   UNL     1     113.971 124.372 136.897  0.00  0.00    +0.000 A 
ENDBRANCH  11  16
BRANCH   8  22
ATOM     22  O   UNL     1     114.023 130.031 135.492  0.00  0.00    +0.000 OA
ATOM     23  C   UNL     1     114.749 130.389 135.649  0.00  0.00    +0.000 C 
ENDBRANCH   8  22
TORSDOF 2
ENDMDL
