MODEL 1
REMARK VINA RESULT:      -9.0      0.000      0.000
REMARK  Name = 44258389
REMARK  6 active torsions:
REMARK  status: ('A' for Active; 'I' for Inactive)
REMARK    1  A    between atoms: O_6  and  C_20
REMARK    2  A    between atoms: O_10  and  C_31
REMARK    3  A    between atoms: O_11  and  C_33
REMARK    4  A    between atoms: C_14  and  C_17
REMARK    5  A    between atoms: C_16  and  C_18
REMARK    6  A    between atoms: C_25  and  C_28
REMARK                            x       y       z     vdW  Elec       q    Type
REMARK                         _______ _______ _______ _____ _____    ______ ____
ROOT
ATOM      1  O   UNL     1     114.153 128.362 140.958  0.00  0.00    +0.000 OA
ATOM      2  O   UNL     1     113.030 127.382 138.477  0.00  0.00    +0.000 OA
ATOM      3  O   UNL     1     114.289 126.963 140.634  0.00  0.00    +0.000 OA
ATOM      4  C   UNL     1     113.476 129.262 140.079  0.00  0.00    +0.000 A 
ATOM      5  C   UNL     1     113.742 128.501 140.256  0.00  0.00    +0.000 A 
ATOM      6  C   UNL     1     113.066 129.402 139.377  0.00  0.00    +0.000 A 
ATOM      7  C   UNL     1     113.598 127.881 139.733  0.00  0.00    +0.000 A 
ATOM      8  C   UNL     1     112.921 128.781 138.853  0.00  0.00    +0.000 A 
ATOM      9  C   UNL     1     113.187 128.021 139.031  0.00  0.00    +0.000 A 
ATOM     10  C   UNL     1     113.880 127.093 139.930  0.00  0.00    +0.000 A 
ATOM     11  C   UNL     1     113.304 126.588 138.656  0.00  0.00    +0.000 A 
ATOM     12  C   UNL     1     113.732 126.443 139.388  0.00  0.00    +0.000 A 
ENDROOT
BRANCH   4  19
ATOM     13  O   UNL     1     113.076 130.057 141.197  0.00  0.00    +0.000 OA
ATOM     14  O   UNL     1     114.856 130.156 139.937  0.00  0.00    +0.000 OA
ATOM     15  O   UNL     1     115.145 131.398 140.985  0.00  0.00    +0.000 OA
ATOM     16  O   UNL     1     114.055 131.745 142.173  0.00  0.00    +0.000 OA
ATOM     17  C   UNL     1     114.311 130.330 140.531  0.00  0.00    +0.000 C 
ATOM     18  C   UNL     1     114.455 130.951 141.055  0.00  0.00    +0.000 C 
ATOM     19  C   UNL     1     113.621 129.882 140.602  0.00  0.00    +0.000 C 
ATOM     20  C   UNL     1     113.910 131.124 141.650  0.00  0.00    +0.000 C 
ATOM     21  C   UNL     1     113.220 130.677 141.720  0.00  0.00    +0.000 C 
BRANCH  21  23
ATOM     22  O   UNL     1     112.136 130.278 142.560  0.00  0.00    +0.000 OA
ATOM     23  C   UNL     1     112.676 130.851 142.314  0.00  0.00    +0.000 C 
ENDBRANCH  21  23
ENDBRANCH   4  19
BRANCH  11  24
ATOM     24  C   UNL     1     113.158 125.969 138.131  0.00  0.00    +0.000 A 
ATOM     25  C   UNL     1     113.741 125.737 137.595  0.00  0.00    +0.000 A 
ATOM     26  C   UNL     1     112.430 125.583 138.141  0.00  0.00    +0.000 A 
ATOM     27  C   UNL     1     113.595 125.118 137.069  0.00  0.00    +0.000 A 
ATOM     28  C   UNL     1     112.284 124.964 137.615  0.00  0.00    +0.000 A 
ATOM     29  C   UNL     1     112.866 124.732 137.079  0.00  0.00    +0.000 A 
BRANCH  27  30
ATOM     30  O   UNL     1     114.178 124.886 136.533  0.00  0.00    +0.000 OA
ATOM     31  C   UNL     1     114.842 125.361 136.415  0.00  0.00    +0.000 C 
ENDBRANCH  27  30
BRANCH  29  32
ATOM     32  O   UNL     1     112.721 124.113 136.553  0.00  0.00    +0.000 OA
ATOM     33  C   UNL     1     111.988 123.733 136.556  0.00  0.00    +0.000 C 
ENDBRANCH  29  32
ENDBRANCH  11  24
BRANCH   6  34
ATOM     34  O   UNL     1     112.800 130.162 139.198  0.00  0.00    +0.000 OA
ATOM     35  C   UNL     1     112.299 130.284 138.554  0.00  0.00    +0.000 C 
ENDBRANCH   6  34
TORSDOF 6
ENDMDL
MODEL 2
REMARK VINA RESULT:      -9.0      0.979      5.878
REMARK  Name = 44258389
REMARK  6 active torsions:
REMARK  status: ('A' for Active; 'I' for Inactive)
REMARK    1  A    between atoms: O_6  and  C_20
REMARK    2  A    between atoms: O_10  and  C_31
REMARK    3  A    between atoms: O_11  and  C_33
REMARK    4  A    between atoms: C_14  and  C_17
REMARK    5  A    between atoms: C_16  and  C_18
REMARK    6  A    between atoms: C_25  and  C_28
REMARK                            x       y       z     vdW  Elec       q    Type
REMARK                         _______ _______ _______ _____ _____    ______ ____
ROOT
ATOM      1  O   UNL     1     113.854 126.109 139.400  0.00  0.00    +0.000 OA
ATOM      2  O   UNL     1     113.106 128.886 139.716  0.00  0.00    +0.000 OA
ATOM      3  O   UNL     1     114.133 126.770 140.652  0.00  0.00    +0.000 OA
ATOM      4  C   UNL     1     113.220 126.801 138.324  0.00  0.00    +0.000 A 
ATOM      5  C   UNL     1     113.519 126.797 139.093  0.00  0.00    +0.000 A 
ATOM      6  C   UNL     1     112.884 127.489 138.016  0.00  0.00    +0.000 A 
ATOM      7  C   UNL     1     113.484 127.480 139.553  0.00  0.00    +0.000 A 
ATOM      8  C   UNL     1     112.849 128.173 138.477  0.00  0.00    +0.000 A 
ATOM      9  C   UNL     1     113.149 128.168 139.245  0.00  0.00    +0.000 A 
ATOM     10  C   UNL     1     113.799 127.463 140.353  0.00  0.00    +0.000 A 
ATOM     11  C   UNL     1     113.416 128.888 140.516  0.00  0.00    +0.000 A 
ATOM     12  C   UNL     1     113.765 128.171 140.837  0.00  0.00    +0.000 A 
ENDROOT
BRANCH   4  19
ATOM     13  O   UNL     1     113.917 125.971 137.392  0.00  0.00    +0.000 OA
ATOM     14  O   UNL     1     111.967 125.728 138.342  0.00  0.00    +0.000 OA
ATOM     15  O   UNL     1     112.037 124.361 137.421  0.00  0.00    +0.000 OA
ATOM     16  O   UNL     1     113.360 124.068 136.481  0.00  0.00    +0.000 OA
ATOM     17  C   UNL     1     112.628 125.582 137.872  0.00  0.00    +0.000 C 
ATOM     18  C   UNL     1     112.664 124.898 137.411  0.00  0.00    +0.000 C 
ATOM     19  C   UNL     1     113.255 126.118 137.863  0.00  0.00    +0.000 C 
ATOM     20  C   UNL     1     113.326 124.752 136.941  0.00  0.00    +0.000 C 
ATOM     21  C   UNL     1     113.952 125.288 136.932  0.00  0.00    +0.000 C 
BRANCH  21  23
ATOM     22  O   UNL     1     115.023 125.770 136.117  0.00  0.00    +0.000 OA
ATOM     23  C   UNL     1     114.613 125.142 136.462  0.00  0.00    +0.000 C 
ENDBRANCH  21  23
ENDBRANCH   4  19
BRANCH  11  24
ATOM     24  C   UNL     1     113.379 129.573 140.975  0.00  0.00    +0.000 A 
ATOM     25  C   UNL     1     113.979 130.137 140.923  0.00  0.00    +0.000 A 
ATOM     26  C   UNL     1     112.742 129.694 141.485  0.00  0.00    +0.000 A 
ATOM     27  C   UNL     1     113.942 130.822 141.382  0.00  0.00    +0.000 A 
ATOM     28  C   UNL     1     112.705 130.379 141.944  0.00  0.00    +0.000 A 
ATOM     29  C   UNL     1     113.305 130.943 141.892  0.00  0.00    +0.000 A 
BRANCH  27  30
ATOM     30  O   UNL     1     114.542 131.385 141.330  0.00  0.00    +0.000 OA
ATOM     31  C   UNL     1     115.220 131.227 140.887  0.00  0.00    +0.000 C 
ENDBRANCH  27  30
BRANCH  29  32
ATOM     32  O   UNL     1     113.269 131.628 142.350  0.00  0.00    +0.000 OA
ATOM     33  C   UNL     1     112.659 131.726 142.897  0.00  0.00    +0.000 C 
ENDBRANCH  29  32
ENDBRANCH  11  24
BRANCH   6  34
ATOM     34  O   UNL     1     112.585 127.495 137.247  0.00  0.00    +0.000 OA
ATOM     35  C   UNL     1     112.350 128.205 136.900  0.00  0.00    +0.000 C 
ENDBRANCH   6  34
TORSDOF 6
ENDMDL
MODEL 3
REMARK VINA RESULT:      -8.7      3.770      5.220
REMARK  Name = 44258389
REMARK  6 active torsions:
REMARK  status: ('A' for Active; 'I' for Inactive)
REMARK    1  A    between atoms: O_6  and  C_20
REMARK    2  A    between atoms: O_10  and  C_31
REMARK    3  A    between atoms: O_11  and  C_33
REMARK    4  A    between atoms: C_14  and  C_17
REMARK    5  A    between atoms: C_16  and  C_18
REMARK    6  A    between atoms: C_25  and  C_28
REMARK                            x       y       z     vdW  Elec       q    Type
REMARK                         _______ _______ _______ _____ _____    ______ ____
ROOT
ATOM      1  O   UNL     1     110.327 129.553 135.101  0.00  0.00    +0.000 OA
ATOM      2  O   UNL     1     111.450 127.618 136.937  0.00  0.00    +0.000 OA
ATOM      3  O   UNL     1     111.303 128.610 134.612  0.00  0.00    +0.000 OA
ATOM      4  C   UNL     1     109.911 129.544 136.468  0.00  0.00    +0.000 A 
ATOM      5  C   UNL     1     110.373 129.232 135.860  0.00  0.00    +0.000 A 
ATOM      6  C   UNL     1     109.957 129.223 137.226  0.00  0.00    +0.000 A 
ATOM      7  C   UNL     1     110.880 128.599 136.010  0.00  0.00    +0.000 A 
ATOM      8  C   UNL     1     110.464 128.590 137.377  0.00  0.00    +0.000 A 
ATOM      9  C   UNL     1     110.925 128.278 136.768  0.00  0.00    +0.000 A 
ATOM     10  C   UNL     1     111.356 128.282 135.367  0.00  0.00    +0.000 A 
ATOM     11  C   UNL     1     111.933 127.289 136.308  0.00  0.00    +0.000 A 
ATOM     12  C   UNL     1     111.885 127.623 135.518  0.00  0.00    +0.000 A 
ENDROOT
BRANCH   4  19
ATOM     13  O   UNL     1     109.677 130.952 136.393  0.00  0.00    +0.000 OA
ATOM     14  O   UNL     1     108.349 129.261 136.018  0.00  0.00    +0.000 OA
ATOM     15  O   UNL     1     107.334 130.527 135.718  0.00  0.00    +0.000 OA
ATOM     16  O   UNL     1     107.882 132.075 135.868  0.00  0.00    +0.000 OA
ATOM     17  C   UNL     1     108.623 130.035 136.093  0.00  0.00    +0.000 C 
ATOM     18  C   UNL     1     108.115 130.669 135.943  0.00  0.00    +0.000 C 
ATOM     19  C   UNL     1     109.404 130.177 136.318  0.00  0.00    +0.000 C 
ATOM     20  C   UNL     1     108.389 131.443 136.018  0.00  0.00    +0.000 C 
ATOM     21  C   UNL     1     109.170 131.585 136.243  0.00  0.00    +0.000 C 
BRANCH  21  23
ATOM     22  O   UNL     1     110.124 132.516 136.757  0.00  0.00    +0.000 OA
ATOM     23  C   UNL     1     109.444 132.359 136.318  0.00  0.00    +0.000 C 
ENDBRANCH  21  23
ENDBRANCH   4  19
BRANCH  11  24
ATOM     24  C   UNL     1     112.439 126.655 136.461  0.00  0.00    +0.000 A 
ATOM     25  C   UNL     1     112.172 125.881 136.364  0.00  0.00    +0.000 A 
ATOM     26  C   UNL     1     113.213 126.797 136.712  0.00  0.00    +0.000 A 
ATOM     27  C   UNL     1     112.678 125.248 136.517  0.00  0.00    +0.000 A 
ATOM     28  C   UNL     1     113.719 126.164 136.865  0.00  0.00    +0.000 A 
ATOM     29  C   UNL     1     113.452 125.389 136.767  0.00  0.00    +0.000 A 
BRANCH  27  30
ATOM     30  O   UNL     1     112.411 124.473 136.420  0.00  0.00    +0.000 OA
ATOM     31  C   UNL     1     111.602 124.316 136.401  0.00  0.00    +0.000 C 
ENDBRANCH  27  30
BRANCH  29  32
ATOM     32  O   UNL     1     113.958 124.755 136.920  0.00  0.00    +0.000 OA
ATOM     33  C   UNL     1     114.717 124.895 137.212  0.00  0.00    +0.000 C 
ENDBRANCH  29  32
ENDBRANCH  11  24
BRANCH   6  34
ATOM     34  O   UNL     1     109.495 129.535 137.835  0.00  0.00    +0.000 OA
ATOM     35  C   UNL     1     109.630 129.303 138.616  0.00  0.00    +0.000 C 
ENDBRANCH   6  34
TORSDOF 6
ENDMDL
MODEL 4
REMARK VINA RESULT:      -8.6      4.193      8.797
REMARK  Name = 44258389
REMARK  6 active torsions:
REMARK  status: ('A' for Active; 'I' for Inactive)
REMARK    1  A    between atoms: O_6  and  C_20
REMARK    2  A    between atoms: O_10  and  C_31
REMARK    3  A    between atoms: O_11  and  C_33
REMARK    4  A    between atoms: C_14  and  C_17
REMARK    5  A    between atoms: C_16  and  C_18
REMARK    6  A    between atoms: C_25  and  C_28
REMARK                            x       y       z     vdW  Elec       q    Type
REMARK                         _______ _______ _______ _____ _____    ______ ____
ROOT
ATOM      1  O   UNL     1     111.914 132.652 142.984  0.00  0.00    +0.000 OA
ATOM      2  O   UNL     1     111.311 131.955 145.727  0.00  0.00    +0.000 OA
ATOM      3  O   UNL     1     111.738 133.708 143.950  0.00  0.00    +0.000 OA
ATOM      4  C   UNL     1     111.795 131.279 143.359  0.00  0.00    +0.000 A 
ATOM      5  C   UNL     1     111.775 132.079 143.561  0.00  0.00    +0.000 A 
ATOM      6  C   UNL     1     111.657 130.705 143.936  0.00  0.00    +0.000 A 
ATOM      7  C   UNL     1     111.616 132.305 144.337  0.00  0.00    +0.000 A 
ATOM      8  C   UNL     1     111.497 130.932 144.714  0.00  0.00    +0.000 A 
ATOM      9  C   UNL     1     111.477 131.732 144.914  0.00  0.00    +0.000 A 
ATOM     10  C   UNL     1     111.598 133.142 144.534  0.00  0.00    +0.000 A 
ATOM     11  C   UNL     1     111.288 132.786 145.942  0.00  0.00    +0.000 A 
ATOM     12  C   UNL     1     111.433 133.384 145.341  0.00  0.00    +0.000 A 
ENDROOT
BRANCH   4  19
ATOM     13  O   UNL     1     112.730 130.893 142.349  0.00  0.00    +0.000 OA
ATOM     14  O   UNL     1     110.563 131.143 142.271  0.00  0.00    +0.000 OA
ATOM     15  O   UNL     1     110.880 130.690 140.717  0.00  0.00    +0.000 OA
ATOM     16  O   UNL     1     112.430 130.372 140.251  0.00  0.00    +0.000 OA
ATOM     17  C   UNL     1     111.338 130.985 142.039  0.00  0.00    +0.000 C 
ATOM     18  C   UNL     1     111.497 130.758 141.261  0.00  0.00    +0.000 C 
ATOM     19  C   UNL     1     111.954 131.052 142.583  0.00  0.00    +0.000 C 
ATOM     20  C   UNL     1     112.272 130.599 141.028  0.00  0.00    +0.000 C 
ATOM     21  C   UNL     1     112.888 130.667 141.572  0.00  0.00    +0.000 C 
BRANCH  21  23
ATOM     22  O   UNL     1     114.258 131.063 141.477  0.00  0.00    +0.000 OA
ATOM     23  C   UNL     1     113.663 130.508 141.339  0.00  0.00    +0.000 C 
ENDBRANCH  21  23
ENDBRANCH   4  19
BRANCH  11  24
ATOM     24  C   UNL     1     111.129 133.010 146.720  0.00  0.00    +0.000 A 
ATOM     25  C   UNL     1     111.722 132.963 147.292  0.00  0.00    +0.000 A 
ATOM     26  C   UNL     1     110.377 133.281 146.926  0.00  0.00    +0.000 A 
ATOM     27  C   UNL     1     111.562 133.187 148.070  0.00  0.00    +0.000 A 
ATOM     28  C   UNL     1     110.218 133.504 147.704  0.00  0.00    +0.000 A 
ATOM     29  C   UNL     1     110.811 133.457 148.276  0.00  0.00    +0.000 A 
BRANCH  27  30
ATOM     30  O   UNL     1     112.155 133.140 148.643  0.00  0.00    +0.000 OA
ATOM     31  C   UNL     1     112.801 132.640 148.527  0.00  0.00    +0.000 C 
ENDBRANCH  27  30
BRANCH  29  32
ATOM     32  O   UNL     1     110.652 133.681 149.055  0.00  0.00    +0.000 OA
ATOM     33  C   UNL     1     109.876 133.831 149.290  0.00  0.00    +0.000 C 
ENDBRANCH  29  32
ENDBRANCH  11  24
BRANCH   6  34
ATOM     34  O   UNL     1     111.677 129.905 143.736  0.00  0.00    +0.000 OA
ATOM     35  C   UNL     1     111.602 129.331 144.323  0.00  0.00    +0.000 C 
ENDBRANCH   6  34
TORSDOF 6
ENDMDL
MODEL 5
REMARK VINA RESULT:      -8.5      8.861     10.502
REMARK  Name = 44258389
REMARK  6 active torsions:
REMARK  status: ('A' for Active; 'I' for Inactive)
REMARK    1  A    between atoms: O_6  and  C_20
REMARK    2  A    between atoms: O_10  and  C_31
REMARK    3  A    between atoms: O_11  and  C_33
REMARK    4  A    between atoms: C_14  and  C_17
REMARK    5  A    between atoms: C_16  and  C_18
REMARK    6  A    between atoms: C_25  and  C_28
REMARK                            x       y       z     vdW  Elec       q    Type
REMARK                         _______ _______ _______ _____ _____    ______ ____
ROOT
ATOM      1  O   UNL     1     106.978 127.144 146.857  0.00  0.00    +0.000 OA
ATOM      2  O   UNL     1     105.367 126.758 144.484  0.00  0.00    +0.000 OA
ATOM      3  O   UNL     1     106.957 128.177 145.852  0.00  0.00    +0.000 OA
ATOM      4  C   UNL     1     106.221 125.942 146.699  0.00  0.00    +0.000 A 
ATOM      5  C   UNL     1     106.460 126.679 146.414  0.00  0.00    +0.000 A 
ATOM      6  C   UNL     1     105.703 125.477 146.256  0.00  0.00    +0.000 A 
ATOM      7  C   UNL     1     106.182 126.950 145.687  0.00  0.00    +0.000 A 
ATOM      8  C   UNL     1     105.424 125.749 145.527  0.00  0.00    +0.000 A 
ATOM      9  C   UNL     1     105.664 126.486 145.244  0.00  0.00    +0.000 A 
ATOM     10  C   UNL     1     106.439 127.720 145.401  0.00  0.00    +0.000 A 
ATOM     11  C   UNL     1     105.613 127.523 144.182  0.00  0.00    +0.000 A 
ATOM     12  C   UNL     1     106.152 128.008 144.644  0.00  0.00    +0.000 A 
ENDROOT
BRANCH   4  19
ATOM     13  O   UNL     1     106.053 125.790 148.110  0.00  0.00    +0.000 OA
ATOM     14  O   UNL     1     107.671 125.160 146.787  0.00  0.00    +0.000 OA
ATOM     15  O   UNL     1     108.228 124.616 148.242  0.00  0.00    +0.000 OA
ATOM     16  O   UNL     1     107.335 124.855 149.608  0.00  0.00    +0.000 OA
ATOM     17  C   UNL     1     107.224 125.280 147.470  0.00  0.00    +0.000 C 
ATOM     18  C   UNL     1     107.503 125.007 148.198  0.00  0.00    +0.000 C 
ATOM     19  C   UNL     1     106.499 125.671 147.426  0.00  0.00    +0.000 C 
ATOM     20  C   UNL     1     107.056 125.127 148.881  0.00  0.00    +0.000 C 
ATOM     21  C   UNL     1     106.331 125.518 148.837  0.00  0.00    +0.000 C 
BRANCH  21  23
ATOM     22  O   UNL     1     105.415 126.312 149.594  0.00  0.00    +0.000 OA
ATOM     23  C   UNL     1     105.885 125.637 149.520  0.00  0.00    +0.000 C 
ENDBRANCH  21  23
ENDBRANCH   4  19
BRANCH  11  24
ATOM     24  C   UNL     1     105.333 127.792 143.455  0.00  0.00    +0.000 A 
ATOM     25  C   UNL     1     105.520 127.383 142.763  0.00  0.00    +0.000 A 
ATOM     26  C   UNL     1     104.865 128.471 143.418  0.00  0.00    +0.000 A 
ATOM     27  C   UNL     1     105.240 127.652 142.036  0.00  0.00    +0.000 A 
ATOM     28  C   UNL     1     104.585 128.740 142.690  0.00  0.00    +0.000 A 
ATOM     29  C   UNL     1     104.773 128.331 141.999  0.00  0.00    +0.000 A 
BRANCH  27  30
ATOM     30  O   UNL     1     105.428 127.242 141.345  0.00  0.00    +0.000 OA
ATOM     31  C   UNL     1     105.886 126.557 141.383  0.00  0.00    +0.000 C 
ENDBRANCH  27  30
BRANCH  29  32
ATOM     32  O   UNL     1     104.493 128.599 141.270  0.00  0.00    +0.000 OA
ATOM     33  C   UNL     1     103.835 129.095 141.239  0.00  0.00    +0.000 C 
ENDBRANCH  29  32
ENDBRANCH  11  24
BRANCH   6  34
ATOM     34  O   UNL     1     105.463 124.741 146.539  0.00  0.00    +0.000 OA
ATOM     35  C   UNL     1     104.855 124.331 146.162  0.00  0.00    +0.000 C 
ENDBRANCH   6  34
TORSDOF 6
ENDMDL
MODEL 6
REMARK VINA RESULT:      -8.4      9.179     10.902
REMARK  Name = 44258389
REMARK  6 active torsions:
REMARK  status: ('A' for Active; 'I' for Inactive)
REMARK    1  A    between atoms: O_6  and  C_20
REMARK    2  A    between atoms: O_10  and  C_31
REMARK    3  A    between atoms: O_11  and  C_33
REMARK    4  A    between atoms: C_14  and  C_17
REMARK    5  A    between atoms: C_16  and  C_18
REMARK    6  A    between atoms: C_25  and  C_28
REMARK                            x       y       z     vdW  Elec       q    Type
REMARK                         _______ _______ _______ _____ _____    ______ ____
ROOT
ATOM      1  O   UNL     1     106.588 125.471 143.965  0.00  0.00    +0.000 OA
ATOM      2  O   UNL     1     105.022 126.142 146.303  0.00  0.00    +0.000 OA
ATOM      3  O   UNL     1     106.339 124.452 144.955  0.00  0.00    +0.000 OA
ATOM      4  C   UNL     1     106.076 126.795 144.122  0.00  0.00    +0.000 A 
ATOM      5  C   UNL     1     106.159 126.023 144.402  0.00  0.00    +0.000 A 
ATOM      6  C   UNL     1     105.648 127.348 144.559  0.00  0.00    +0.000 A 
ATOM      7  C   UNL     1     105.815 125.805 145.118  0.00  0.00    +0.000 A 
ATOM      8  C   UNL     1     105.302 127.129 145.276  0.00  0.00    +0.000 A 
ATOM      9  C   UNL     1     105.386 126.358 145.555  0.00  0.00    +0.000 A 
ATOM     10  C   UNL     1     105.908 124.998 145.399  0.00  0.00    +0.000 A 
ATOM     11  C   UNL     1     105.105 125.340 146.600  0.00  0.00    +0.000 A 
ATOM     12  C   UNL     1     105.551 124.764 146.144  0.00  0.00    +0.000 A 
ENDROOT
BRANCH   4  19
ATOM     13  O   UNL     1     107.188 127.317 143.392  0.00  0.00    +0.000 OA
ATOM     14  O   UNL     1     105.232 126.627 142.714  0.00  0.00    +0.000 OA
ATOM     15  O   UNL     1     105.921 127.064 141.281  0.00  0.00    +0.000 OA
ATOM     16  O   UNL     1     107.455 127.670 141.255  0.00  0.00    +0.000 OA
ATOM     17  C   UNL     1     105.999 126.930 142.702  0.00  0.00    +0.000 C 
ATOM     18  C   UNL     1     106.344 127.149 141.984  0.00  0.00    +0.000 C 
ATOM     19  C   UNL     1     106.421 127.014 143.406  0.00  0.00    +0.000 C 
ATOM     20  C   UNL     1     107.111 127.452 141.972  0.00  0.00    +0.000 C 
ATOM     21  C   UNL     1     107.533 127.536 142.676  0.00  0.00    +0.000 C 
BRANCH  21  23
ATOM     22  O   UNL     1     108.621 128.181 143.341  0.00  0.00    +0.000 OA
ATOM     23  C   UNL     1     108.300 127.839 142.662  0.00  0.00    +0.000 C 
ENDBRANCH  21  23
ENDBRANCH   4  19
BRANCH  11  24
ATOM     24  C   UNL     1     104.759 125.124 147.317  0.00  0.00    +0.000 A 
ATOM     25  C   UNL     1     105.167 125.241 148.024  0.00  0.00    +0.000 A 
ATOM     26  C   UNL     1     104.004 124.792 147.327  0.00  0.00    +0.000 A 
ATOM     27  C   UNL     1     104.821 125.025 148.741  0.00  0.00    +0.000 A 
ATOM     28  C   UNL     1     103.657 124.576 148.044  0.00  0.00    +0.000 A 
ATOM     29  C   UNL     1     104.066 124.692 148.751  0.00  0.00    +0.000 A 
BRANCH  27  30
ATOM     30  O   UNL     1     105.230 125.141 149.448  0.00  0.00    +0.000 OA
ATOM     31  C   UNL     1     105.934 125.573 149.452  0.00  0.00    +0.000 C 
ENDBRANCH  27  30
BRANCH  29  32
ATOM     32  O   UNL     1     103.721 124.476 149.469  0.00  0.00    +0.000 OA
ATOM     33  C   UNL     1     102.956 124.168 149.481  0.00  0.00    +0.000 C 
ENDBRANCH  29  32
ENDBRANCH  11  24
BRANCH   6  34
ATOM     34  O   UNL     1     105.564 128.120 144.280  0.00  0.00    +0.000 OA
ATOM     35  C   UNL     1     105.225 128.699 144.761  0.00  0.00    +0.000 C 
ENDBRANCH   6  34
TORSDOF 6
ENDMDL
MODEL 7
REMARK VINA RESULT:      -8.3      3.274      6.201
REMARK  Name = 44258389
REMARK  6 active torsions:
REMARK  status: ('A' for Active; 'I' for Inactive)
REMARK    1  A    between atoms: O_6  and  C_20
REMARK    2  A    between atoms: O_10  and  C_31
REMARK    3  A    between atoms: O_11  and  C_33
REMARK    4  A    between atoms: C_14  and  C_17
REMARK    5  A    between atoms: C_16  and  C_18
REMARK    6  A    between atoms: C_25  and  C_28
REMARK                            x       y       z     vdW  Elec       q    Type
REMARK                         _______ _______ _______ _____ _____    ______ ____
ROOT
ATOM      1  O   UNL     1     113.099 127.248 136.030  0.00  0.00    +0.000 OA
ATOM      2  O   UNL     1     111.341 129.187 137.263  0.00  0.00    +0.000 OA
ATOM      3  O   UNL     1     112.940 128.540 135.409  0.00  0.00    +0.000 OA
ATOM      4  C   UNL     1     112.407 126.916 137.235  0.00  0.00    +0.000 A 
ATOM      5  C   UNL     1     112.579 127.456 136.636  0.00  0.00    +0.000 A 
ATOM      6  C   UNL     1     111.886 127.124 137.841  0.00  0.00    +0.000 A 
ATOM      7  C   UNL     1     112.231 128.203 136.641  0.00  0.00    +0.000 A 
ATOM      8  C   UNL     1     111.538 127.872 137.846  0.00  0.00    +0.000 A 
ATOM      9  C   UNL     1     111.710 128.411 137.246  0.00  0.00    +0.000 A 
ATOM     10  C   UNL     1     112.418 128.757 136.011  0.00  0.00    +0.000 A 
ATOM     11  C   UNL     1     111.516 129.754 136.642  0.00  0.00    +0.000 A 
ATOM     12  C   UNL     1     112.058 129.537 136.011  0.00  0.00    +0.000 A 
ENDROOT
BRANCH   4  19
ATOM     13  O   UNL     1     112.370 125.535 136.867  0.00  0.00    +0.000 OA
ATOM     14  O   UNL     1     113.875 126.685 137.951  0.00  0.00    +0.000 OA
ATOM     15  O   UNL     1     114.572 125.189 137.941  0.00  0.00    +0.000 OA
ATOM     16  O   UNL     1     113.801 123.925 137.215  0.00  0.00    +0.000 OA
ATOM     17  C   UNL     1     113.489 126.053 137.588  0.00  0.00    +0.000 C 
ATOM     18  C   UNL     1     113.838 125.304 137.583  0.00  0.00    +0.000 C 
ATOM     19  C   UNL     1     112.755 126.168 137.230  0.00  0.00    +0.000 C 
ATOM     20  C   UNL     1     113.452 124.673 137.220  0.00  0.00    +0.000 C 
ATOM     21  C   UNL     1     112.718 124.788 136.862  0.00  0.00    +0.000 C 
BRANCH  21  23
ATOM     22  O   UNL     1     111.588 124.265 136.160  0.00  0.00    +0.000 OA
ATOM     23  C   UNL     1     112.332 124.156 136.499  0.00  0.00    +0.000 C 
ENDBRANCH  21  23
ENDBRANCH   4  19
BRANCH  11  24
ATOM     24  C   UNL     1     111.166 130.501 136.650  0.00  0.00    +0.000 A 
ATOM     25  C   UNL     1     110.432 130.617 136.291  0.00  0.00    +0.000 A 
ATOM     26  C   UNL     1     111.550 131.132 137.017  0.00  0.00    +0.000 A 
ATOM     27  C   UNL     1     110.083 131.364 136.299  0.00  0.00    +0.000 A 
ATOM     28  C   UNL     1     111.200 131.879 137.025  0.00  0.00    +0.000 A 
ATOM     29  C   UNL     1     110.466 131.995 136.666  0.00  0.00    +0.000 A 
BRANCH  27  30
ATOM     30  O   UNL     1     109.349 131.479 135.939  0.00  0.00    +0.000 OA
ATOM     31  C   UNL     1     108.942 130.838 135.617  0.00  0.00    +0.000 C 
ENDBRANCH  27  30
BRANCH  29  32
ATOM     32  O   UNL     1     110.116 132.742 136.673  0.00  0.00    +0.000 OA
ATOM     33  C   UNL     1     110.524 133.386 136.990  0.00  0.00    +0.000 C 
ENDBRANCH  29  32
ENDBRANCH  11  24
BRANCH   6  34
ATOM     34  O   UNL     1     111.714 126.585 138.441  0.00  0.00    +0.000 OA
ATOM     35  C   UNL     1     111.131 126.759 138.998  0.00  0.00    +0.000 C 
ENDBRANCH   6  34
TORSDOF 6
ENDMDL
MODEL 8
REMARK VINA RESULT:      -8.3      3.141      4.107
REMARK  Name = 44258389
REMARK  6 active torsions:
REMARK  status: ('A' for Active; 'I' for Inactive)
REMARK    1  A    between atoms: O_6  and  C_20
REMARK    2  A    between atoms: O_10  and  C_31
REMARK    3  A    between atoms: O_11  and  C_33
REMARK    4  A    between atoms: C_14  and  C_17
REMARK    5  A    between atoms: C_16  and  C_18
REMARK    6  A    between atoms: C_25  and  C_28
REMARK                            x       y       z     vdW  Elec       q    Type
REMARK                         _______ _______ _______ _____ _____    ______ ____
ROOT
ATOM      1  O   UNL     1     109.405 129.901 137.814  0.00  0.00    +0.000 OA
ATOM      2  O   UNL     1     111.347 127.886 137.077  0.00  0.00    +0.000 OA
ATOM      3  O   UNL     1     108.957 128.549 137.588  0.00  0.00    +0.000 OA
ATOM      4  C   UNL     1     110.783 130.255 137.681  0.00  0.00    +0.000 A 
ATOM      5  C   UNL     1     110.185 129.688 137.648  0.00  0.00    +0.000 A 
ATOM      6  C   UNL     1     111.562 130.042 137.515  0.00  0.00    +0.000 A 
ATOM      7  C   UNL     1     110.366 128.908 137.451  0.00  0.00    +0.000 A 
ATOM      8  C   UNL     1     111.744 129.262 137.317  0.00  0.00    +0.000 A 
ATOM      9  C   UNL     1     111.145 128.695 137.285  0.00  0.00    +0.000 A 
ATOM     10  C   UNL     1     109.734 128.326 137.420  0.00  0.00    +0.000 A 
ATOM     11  C   UNL     1     110.729 127.290 137.042  0.00  0.00    +0.000 A 
ATOM     12  C   UNL     1     109.916 127.512 137.215  0.00  0.00    +0.000 A 
ENDROOT
BRANCH   4  19
ATOM     13  O   UNL     1     110.450 131.588 137.285  0.00  0.00    +0.000 OA
ATOM     14  O   UNL     1     110.723 130.712 139.265  0.00  0.00    +0.000 OA
ATOM     15  O   UNL     1     110.361 132.272 139.662  0.00  0.00    +0.000 OA
ATOM     16  O   UNL     1     110.058 133.375 138.474  0.00  0.00    +0.000 OA
ATOM     17  C   UNL     1     110.572 131.263 138.671  0.00  0.00    +0.000 C 
ATOM     18  C   UNL     1     110.391 132.044 138.869  0.00  0.00    +0.000 C 
ATOM     19  C   UNL     1     110.602 131.035 137.879  0.00  0.00    +0.000 C 
ATOM     20  C   UNL     1     110.239 132.595 138.275  0.00  0.00    +0.000 C 
ATOM     21  C   UNL     1     110.269 132.367 137.483  0.00  0.00    +0.000 C 
BRANCH  21  23
ATOM     22  O   UNL     1     109.870 132.667 136.144  0.00  0.00    +0.000 OA
ATOM     23  C   UNL     1     110.118 132.919 136.889  0.00  0.00    +0.000 C 
ENDBRANCH  21  23
ENDBRANCH   4  19
BRANCH  11  24
ATOM     24  C   UNL     1     110.913 126.511 136.844  0.00  0.00    +0.000 A 
ATOM     25  C   UNL     1     110.727 126.221 136.094  0.00  0.00    +0.000 A 
ATOM     26  C   UNL     1     111.284 126.022 137.395  0.00  0.00    +0.000 A 
ATOM     27  C   UNL     1     110.911 125.442 135.896  0.00  0.00    +0.000 A 
ATOM     28  C   UNL     1     111.468 125.242 137.197  0.00  0.00    +0.000 A 
ATOM     29  C   UNL     1     111.281 124.952 136.447  0.00  0.00    +0.000 A 
BRANCH  27  30
ATOM     30  O   UNL     1     110.724 125.152 135.147  0.00  0.00    +0.000 OA
ATOM     31  C   UNL     1     110.287 125.615 134.622  0.00  0.00    +0.000 C 
ENDBRANCH  27  30
BRANCH  29  32
ATOM     32  O   UNL     1     111.465 124.173 136.248  0.00  0.00    +0.000 OA
ATOM     33  C   UNL     1     111.908 123.709 136.767  0.00  0.00    +0.000 C 
ENDBRANCH  29  32
ENDBRANCH  11  24
BRANCH   6  34
ATOM     34  O   UNL     1     112.161 130.609 137.547  0.00  0.00    +0.000 OA
ATOM     35  C   UNL     1     112.925 130.417 137.303  0.00  0.00    +0.000 C 
ENDBRANCH   6  34
TORSDOF 6
ENDMDL
