MODEL 1
REMARK VINA RESULT:     -10.6      0.000      0.000
REMARK  Name = 44257682
REMARK  7 active torsions:
REMARK  status: ('A' for Active; 'I' for Inactive)
REMARK    1  A    between atoms: O_1  and  C_16
REMARK    2  A    between atoms: O_1  and  C_21
REMARK    3  A    between atoms: O_6  and  C_24
REMARK    4  A    between atoms: O_6  and  C_34
REMARK    5  A    between atoms: C_18  and  C_26
REMARK    6  A    between atoms: C_20  and  C_27
REMARK    7  A    between atoms: C_36  and  C_39
REMARK                            x       y       z     vdW  Elec       q    Type
REMARK                         _______ _______ _______ _____ _____    ______ ____
ROOT
ATOM      1  O   UNL     1     113.066 127.541 136.232  0.00  0.00    +0.000 OA
ATOM      2  O   UNL     1     113.291 128.445 138.526  0.00  0.00    +0.000 OA
ATOM      3  O   UNL     1     113.153 129.473 137.244  0.00  0.00    +0.000 OA
ATOM      4  C   UNL     1     113.210 127.327 137.639  0.00  0.00    +0.000 C 
ATOM      5  C   UNL     1     113.216 128.143 137.761  0.00  0.00    +0.000 C 
ATOM      6  C   UNL     1     113.135 127.026 136.874  0.00  0.00    +0.000 C 
ATOM      7  C   UNL     1     113.147 128.658 137.120  0.00  0.00    +0.000 C 
ATOM      8  C   UNL     1     113.072 128.356 136.356  0.00  0.00    +0.000 C 
ENDROOT
BRANCH   6  13
ATOM      9  O   UNL     1     111.709 126.295 136.453  0.00  0.00    +0.000 OA
ATOM     10  O   UNL     1     114.525 126.154 137.049  0.00  0.00    +0.000 OA
ATOM     11  O   UNL     1     113.109 123.762 136.383  0.00  0.00    +0.000 OA
ATOM     12  O   UNL     1     111.699 123.791 136.078  0.00  0.00    +0.000 OA
ATOM     13  C   UNL     1     113.129 126.210 136.751  0.00  0.00    +0.000 A 
ATOM     14  C   UNL     1     112.426 125.830 136.541  0.00  0.00    +0.000 A 
ATOM     15  C   UNL     1     113.823 125.774 136.839  0.00  0.00    +0.000 A 
ATOM     16  C   UNL     1     112.420 125.015 136.418  0.00  0.00    +0.000 A 
ATOM     17  C   UNL     1     113.817 124.958 136.716  0.00  0.00    +0.000 A 
ATOM     18  C   UNL     1     113.115 124.579 136.506  0.00  0.00    +0.000 A 
ATOM     19  C   UNL     1     111.696 124.607 136.199  0.00  0.00    +0.000 A 
ATOM     20  C   UNL     1     110.976 125.906 136.234  0.00  0.00    +0.000 A 
ATOM     21  C   UNL     1     110.969 125.055 136.106  0.00  0.00    +0.000 A 
BRANCH  20  23
ATOM     22  O   UNL     1     108.203 127.660 135.886  0.00  0.00    +0.000 OA
ATOM     23  C   UNL     1     110.283 126.345 136.147  0.00  0.00    +0.000 A 
ATOM     24  C   UNL     1     109.751 126.404 136.775  0.00  0.00    +0.000 A 
ATOM     25  C   UNL     1     110.121 126.724 135.432  0.00  0.00    +0.000 A 
ATOM     26  C   UNL     1     109.057 126.842 136.688  0.00  0.00    +0.000 A 
ATOM     27  C   UNL     1     109.428 127.162 135.345  0.00  0.00    +0.000 A 
ATOM     28  C   UNL     1     108.896 127.222 135.973  0.00  0.00    +0.000 A 
ENDBRANCH  20  23
ENDBRANCH   6  13
BRANCH   8  30
ATOM     29  O   UNL     1     113.475 128.764 135.048  0.00  0.00    +0.000 OA
ATOM     30  C   UNL     1     113.003 128.871 135.715  0.00  0.00    +0.000 C 
ENDBRANCH   8  30
BRANCH   4  31
ATOM     31  O   UNL     1     113.279 126.813 138.280  0.00  0.00    +0.000 OA
BRANCH  31  35
ATOM     32  O   UNL     1     112.066 127.229 138.911  0.00  0.00    +0.000 OA
ATOM     33  O   UNL     1     113.946 126.515 139.759  0.00  0.00    +0.000 OA
ATOM     34  O   UNL     1     113.067 126.782 141.130  0.00  0.00    +0.000 OA
ATOM     35  C   UNL     1     112.840 126.946 138.965  0.00  0.00    +0.000 C 
ATOM     36  C   UNL     1     113.173 126.797 139.704  0.00  0.00    +0.000 C 
ATOM     37  C   UNL     1     112.733 126.931 140.390  0.00  0.00    +0.000 C 
ATOM     38  C   UNL     1     111.960 127.213 140.335  0.00  0.00    +0.000 C 
ATOM     39  C   UNL     1     111.627 127.362 139.596  0.00  0.00    +0.000 C 
ATOM     40  C   UNL     1     110.853 127.645 139.542  0.00  0.00    +0.000 C 
BRANCH  38  41
ATOM     41  O   UNL     1     111.520 127.347 141.021  0.00  0.00    +0.000 OA
BRANCH  41  43
ATOM     42  O   UNL     1     111.176 126.000 141.355  0.00  0.00    +0.000 OA
ATOM     43  C   UNL     1     110.961 126.792 141.267  0.00  0.00    +0.000 C 
ATOM     44  C   UNL     1     110.187 127.029 141.426  0.00  0.00    +0.000 C 
ENDBRANCH  41  43
ENDBRANCH  38  41
ENDBRANCH  31  35
ENDBRANCH   4  31
TORSDOF 7
ENDMDL
MODEL 2
REMARK VINA RESULT:     -10.3      1.504      3.398
REMARK  Name = 44257682
REMARK  7 active torsions:
REMARK  status: ('A' for Active; 'I' for Inactive)
REMARK    1  A    between atoms: O_1  and  C_16
REMARK    2  A    between atoms: O_1  and  C_21
REMARK    3  A    between atoms: O_6  and  C_24
REMARK    4  A    between atoms: O_6  and  C_34
REMARK    5  A    between atoms: C_18  and  C_26
REMARK    6  A    between atoms: C_20  and  C_27
REMARK    7  A    between atoms: C_36  and  C_39
REMARK                            x       y       z     vdW  Elec       q    Type
REMARK                         _______ _______ _______ _____ _____    ______ ____
ROOT
ATOM      1  O   UNL     1     111.437 126.287 139.124  0.00  0.00    +0.000 OA
ATOM      2  O   UNL     1     111.219 128.737 139.403  0.00  0.00    +0.000 OA
ATOM      3  O   UNL     1     109.932 127.753 139.716  0.00  0.00    +0.000 OA
ATOM      4  C   UNL     1     112.008 127.596 139.060  0.00  0.00    +0.000 C 
ATOM      5  C   UNL     1     111.292 127.920 139.310  0.00  0.00    +0.000 C 
ATOM      6  C   UNL     1     112.081 126.779 138.967  0.00  0.00    +0.000 C 
ATOM      7  C   UNL     1     110.648 127.428 139.466  0.00  0.00    +0.000 C 
ATOM      8  C   UNL     1     110.721 126.612 139.373  0.00  0.00    +0.000 C 
ENDROOT
BRANCH   6  13
ATOM      9  O   UNL     1     112.183 126.158 137.435  0.00  0.00    +0.000 OA
ATOM     10  O   UNL     1     113.379 126.759 139.988  0.00  0.00    +0.000 OA
ATOM     11  O   UNL     1     114.947 125.483 137.967  0.00  0.00    +0.000 OA
ATOM     12  O   UNL     1     114.386 125.166 136.677  0.00  0.00    +0.000 OA
ATOM     13  C   UNL     1     112.797 126.455 138.718  0.00  0.00    +0.000 A 
ATOM     14  C   UNL     1     112.865 126.141 137.957  0.00  0.00    +0.000 A 
ATOM     15  C   UNL     1     113.446 126.445 139.228  0.00  0.00    +0.000 A 
ATOM     16  C   UNL     1     113.582 125.818 137.708  0.00  0.00    +0.000 A 
ATOM     17  C   UNL     1     114.163 126.121 138.978  0.00  0.00    +0.000 A 
ATOM     18  C   UNL     1     114.230 125.808 138.218  0.00  0.00    +0.000 A 
ATOM     19  C   UNL     1     113.665 125.488 136.918  0.00  0.00    +0.000 A 
ATOM     20  C   UNL     1     112.247 125.833 136.643  0.00  0.00    +0.000 A 
ATOM     21  C   UNL     1     112.994 125.495 136.383  0.00  0.00    +0.000 A 
BRANCH  20  23
ATOM     22  O   UNL     1     109.647 125.879 134.612  0.00  0.00    +0.000 OA
ATOM     23  C   UNL     1     111.597 125.844 136.136  0.00  0.00    +0.000 A 
ATOM     24  C   UNL     1     111.073 125.207 136.122  0.00  0.00    +0.000 A 
ATOM     25  C   UNL     1     111.471 126.493 135.641  0.00  0.00    +0.000 A 
ATOM     26  C   UNL     1     110.423 125.219 135.614  0.00  0.00    +0.000 A 
ATOM     27  C   UNL     1     110.821 126.504 135.134  0.00  0.00    +0.000 A 
ATOM     28  C   UNL     1     110.297 125.867 135.120  0.00  0.00    +0.000 A 
ENDBRANCH  20  23
ENDBRANCH   6  13
BRANCH   8  30
ATOM     29  O   UNL     1     110.203 125.350 139.796  0.00  0.00    +0.000 OA
ATOM     30  C   UNL     1     110.078 126.120 139.530  0.00  0.00    +0.000 C 
ENDBRANCH   8  30
BRANCH   4  31
ATOM     31  O   UNL     1     112.651 128.088 138.904  0.00  0.00    +0.000 OA
BRANCH  31  35
ATOM     32  O   UNL     1     112.038 128.801 137.828  0.00  0.00    +0.000 OA
ATOM     33  O   UNL     1     113.443 129.462 139.362  0.00  0.00    +0.000 OA
ATOM     34  O   UNL     1     113.225 130.861 138.514  0.00  0.00    +0.000 OA
ATOM     35  C   UNL     1     112.543 128.788 138.481  0.00  0.00    +0.000 C 
ATOM     36  C   UNL     1     112.938 129.474 138.709  0.00  0.00    +0.000 C 
ATOM     37  C   UNL     1     112.829 130.174 138.285  0.00  0.00    +0.000 C 
ATOM     38  C   UNL     1     112.324 130.186 137.633  0.00  0.00    +0.000 C 
ATOM     39  C   UNL     1     111.929 129.500 137.404  0.00  0.00    +0.000 C 
ATOM     40  C   UNL     1     111.424 129.513 136.751  0.00  0.00    +0.000 C 
BRANCH  38  41
ATOM     41  O   UNL     1     112.216 130.887 137.209  0.00  0.00    +0.000 OA
BRANCH  41  43
ATOM     42  O   UNL     1     111.545 131.760 138.121  0.00  0.00    +0.000 OA
ATOM     43  C   UNL     1     111.581 131.382 137.388  0.00  0.00    +0.000 C 
ATOM     44  C   UNL     1     110.981 131.501 136.834  0.00  0.00    +0.000 C 
ENDBRANCH  41  43
ENDBRANCH  38  41
ENDBRANCH  31  35
ENDBRANCH   4  31
TORSDOF 7
ENDMDL
MODEL 3
REMARK VINA RESULT:     -10.3      2.117      3.943
REMARK  Name = 44257682
REMARK  7 active torsions:
REMARK  status: ('A' for Active; 'I' for Inactive)
REMARK    1  A    between atoms: O_1  and  C_16
REMARK    2  A    between atoms: O_1  and  C_21
REMARK    3  A    between atoms: O_6  and  C_24
REMARK    4  A    between atoms: O_6  and  C_34
REMARK    5  A    between atoms: C_18  and  C_26
REMARK    6  A    between atoms: C_20  and  C_27
REMARK    7  A    between atoms: C_36  and  C_39
REMARK                            x       y       z     vdW  Elec       q    Type
REMARK                         _______ _______ _______ _____ _____    ______ ____
ROOT
ATOM      1  O   UNL     1     113.251 128.892 135.125  0.00  0.00    +0.000 OA
ATOM      2  O   UNL     1     113.372 130.028 137.321  0.00  0.00    +0.000 OA
ATOM      3  O   UNL     1     114.624 130.159 136.254  0.00  0.00    +0.000 OA
ATOM      4  C   UNL     1     112.665 129.205 136.390  0.00  0.00    +0.000 C 
ATOM      5  C   UNL     1     113.332 129.649 136.588  0.00  0.00    +0.000 C 
ATOM      6  C   UNL     1     112.625 128.826 135.658  0.00  0.00    +0.000 C 
ATOM      7  C   UNL     1     113.958 129.715 136.055  0.00  0.00    +0.000 C 
ATOM      8  C   UNL     1     113.917 129.336 135.324  0.00  0.00    +0.000 C 
ENDROOT
BRANCH   6  13
ATOM      9  O   UNL     1     112.569 127.233 136.106  0.00  0.00    +0.000 OA
ATOM     10  O   UNL     1     111.381 129.527 134.830  0.00  0.00    +0.000 OA
ATOM     11  O   UNL     1     109.960 127.048 134.867  0.00  0.00    +0.000 OA
ATOM     12  O   UNL     1     110.520 125.876 135.495  0.00  0.00    +0.000 OA
ATOM     13  C   UNL     1     111.959 128.382 135.460  0.00  0.00    +0.000 A 
ATOM     14  C   UNL     1     111.915 127.586 135.676  0.00  0.00    +0.000 A 
ATOM     15  C   UNL     1     111.337 128.732 135.046  0.00  0.00    +0.000 A 
ATOM     16  C   UNL     1     111.249 127.142 135.478  0.00  0.00    +0.000 A 
ATOM     17  C   UNL     1     110.670 128.287 134.849  0.00  0.00    +0.000 A 
ATOM     18  C   UNL     1     110.627 127.492 135.064  0.00  0.00    +0.000 A 
ATOM     19  C   UNL     1     111.191 126.313 135.697  0.00  0.00    +0.000 A 
ATOM     20  C   UNL     1     112.529 126.406 136.334  0.00  0.00    +0.000 A 
ATOM     21  C   UNL     1     111.835 125.942 136.127  0.00  0.00    +0.000 A 
BRANCH  20  23
ATOM     22  O   UNL     1     115.023 125.015 137.987  0.00  0.00    +0.000 OA
ATOM     23  C   UNL     1     113.153 126.058 136.747  0.00  0.00    +0.000 A 
ATOM     24  C   UNL     1     113.143 126.043 137.572  0.00  0.00    +0.000 A 
ATOM     25  C   UNL     1     113.786 125.725 136.336  0.00  0.00    +0.000 A 
ATOM     26  C   UNL     1     113.767 125.695 137.985  0.00  0.00    +0.000 A 
ATOM     27  C   UNL     1     114.409 125.378 136.749  0.00  0.00    +0.000 A 
ATOM     28  C   UNL     1     114.400 125.363 137.574  0.00  0.00    +0.000 A 
ENDBRANCH  20  23
ENDBRANCH   6  13
BRANCH   8  30
ATOM     29  O   UNL     1     115.009 128.744 134.618  0.00  0.00    +0.000 OA
ATOM     30  C   UNL     1     114.543 129.402 134.791  0.00  0.00    +0.000 C 
ENDBRANCH   8  30
BRANCH   4  31
ATOM     31  O   UNL     1     112.039 129.139 136.924  0.00  0.00    +0.000 OA
BRANCH  31  35
ATOM     32  O   UNL     1     111.713 130.530 136.914  0.00  0.00    +0.000 OA
ATOM     33  O   UNL     1     111.560 129.038 138.499  0.00  0.00    +0.000 OA
ATOM     34  O   UNL     1     110.994 130.379 139.277  0.00  0.00    +0.000 OA
ATOM     35  C   UNL     1     111.756 129.809 137.313  0.00  0.00    +0.000 C 
ATOM     36  C   UNL     1     111.517 129.759 138.100  0.00  0.00    +0.000 C 
ATOM     37  C   UNL     1     111.234 130.430 138.489  0.00  0.00    +0.000 C 
ATOM     38  C   UNL     1     111.191 131.150 138.090  0.00  0.00    +0.000 C 
ATOM     39  C   UNL     1     111.430 131.200 137.303  0.00  0.00    +0.000 C 
ATOM     40  C   UNL     1     111.387 131.922 136.903  0.00  0.00    +0.000 C 
BRANCH  38  41
ATOM     41  O   UNL     1     110.908 131.821 138.479  0.00  0.00    +0.000 OA
BRANCH  41  43
ATOM     42  O   UNL     1     109.504 131.590 138.624  0.00  0.00    +0.000 OA
ATOM     43  C   UNL     1     110.128 132.065 138.365  0.00  0.00    +0.000 C 
ATOM     44  C   UNL     1     109.971 132.785 137.993  0.00  0.00    +0.000 C 
ENDBRANCH  41  43
ENDBRANCH  38  41
ENDBRANCH  31  35
ENDBRANCH   4  31
TORSDOF 7
ENDMDL
MODEL 4
REMARK VINA RESULT:     -10.3      2.013      3.683
REMARK  Name = 44257682
REMARK  7 active torsions:
REMARK  status: ('A' for Active; 'I' for Inactive)
REMARK    1  A    between atoms: O_1  and  C_16
REMARK    2  A    between atoms: O_1  and  C_21
REMARK    3  A    between atoms: O_6  and  C_24
REMARK    4  A    between atoms: O_6  and  C_34
REMARK    5  A    between atoms: C_18  and  C_26
REMARK    6  A    between atoms: C_20  and  C_27
REMARK    7  A    between atoms: C_36  and  C_39
REMARK                            x       y       z     vdW  Elec       q    Type
REMARK                         _______ _______ _______ _____ _____    ______ ____
ROOT
ATOM      1  O   UNL     1     112.229 128.539 135.256  0.00  0.00    +0.000 OA
ATOM      2  O   UNL     1     111.814 129.516 137.493  0.00  0.00    +0.000 OA
ATOM      3  O   UNL     1     113.011 130.126 136.535  0.00  0.00    +0.000 OA
ATOM      4  C   UNL     1     111.492 128.559 136.481  0.00  0.00    +0.000 C 
ATOM      5  C   UNL     1     111.952 129.190 136.747  0.00  0.00    +0.000 C 
ATOM      6  C   UNL     1     111.630 128.234 135.735  0.00  0.00    +0.000 C 
ATOM      7  C   UNL     1     112.551 129.495 136.268  0.00  0.00    +0.000 C 
ATOM      8  C   UNL     1     112.689 129.169 135.523  0.00  0.00    +0.000 C 
ENDROOT
BRANCH   6  13
ATOM      9  O   UNL     1     112.071 126.694 136.156  0.00  0.00    +0.000 OA
ATOM     10  O   UNL     1     110.298 128.518 134.803  0.00  0.00    +0.000 OA
ATOM     11  O   UNL     1     109.788 125.709 134.672  0.00  0.00    +0.000 OA
ATOM     12  O   UNL     1     110.652 124.763 135.336  0.00  0.00    +0.000 OA
ATOM     13  C   UNL     1     111.170 127.603 135.469  0.00  0.00    +0.000 A 
ATOM     14  C   UNL     1     111.375 126.829 135.670  0.00  0.00    +0.000 A 
ATOM     15  C   UNL     1     110.504 127.745 135.003  0.00  0.00    +0.000 A 
ATOM     16  C   UNL     1     110.915 126.198 135.404  0.00  0.00    +0.000 A 
ATOM     17  C   UNL     1     110.043 127.114 134.737  0.00  0.00    +0.000 A 
ATOM     18  C   UNL     1     110.249 126.341 134.938  0.00  0.00    +0.000 A 
ATOM     19  C   UNL     1     111.118 125.388 135.606  0.00  0.00    +0.000 A 
ATOM     20  C   UNL     1     112.290 125.891 136.368  0.00  0.00    +0.000 A 
ATOM     21  C   UNL     1     111.810 125.233 136.091  0.00  0.00    +0.000 A 
BRANCH  20  23
ATOM     22  O   UNL     1     114.955 125.334 138.233  0.00  0.00    +0.000 OA
ATOM     23  C   UNL     1     112.956 125.752 136.834  0.00  0.00    +0.000 A 
ATOM     24  C   UNL     1     112.884 125.713 137.655  0.00  0.00    +0.000 A 
ATOM     25  C   UNL     1     113.694 125.651 136.479  0.00  0.00    +0.000 A 
ATOM     26  C   UNL     1     113.551 125.573 138.121  0.00  0.00    +0.000 A 
ATOM     27  C   UNL     1     114.361 125.512 136.945  0.00  0.00    +0.000 A 
ATOM     28  C   UNL     1     114.289 125.473 137.766  0.00  0.00    +0.000 A 
ENDBRANCH  20  23
ENDBRANCH   6  13
BRANCH   8  30
ATOM     29  O   UNL     1     113.850 128.969 134.716  0.00  0.00    +0.000 OA
ATOM     30  C   UNL     1     113.287 129.474 135.045  0.00  0.00    +0.000 C 
ENDBRANCH   8  30
BRANCH   4  31
ATOM     31  O   UNL     1     110.893 128.254 136.960  0.00  0.00    +0.000 OA
BRANCH  31  35
ATOM     32  O   UNL     1     110.097 129.441 136.934  0.00  0.00    +0.000 OA
ATOM     33  O   UNL     1     110.348 127.921 138.481  0.00  0.00    +0.000 OA
ATOM     34  O   UNL     1     109.279 128.941 139.216  0.00  0.00    +0.000 OA
ATOM     35  C   UNL     1     110.359 128.764 137.328  0.00  0.00    +0.000 C 
ATOM     36  C   UNL     1     110.086 128.597 138.088  0.00  0.00    +0.000 C 
ATOM     37  C   UNL     1     109.551 129.107 138.455  0.00  0.00    +0.000 C 
ATOM     38  C   UNL     1     109.290 129.784 138.062  0.00  0.00    +0.000 C 
ATOM     39  C   UNL     1     109.562 129.950 137.302  0.00  0.00    +0.000 C 
ATOM     40  C   UNL     1     109.301 130.627 136.909  0.00  0.00    +0.000 C 
BRANCH  38  41
ATOM     41  O   UNL     1     108.755 130.294 138.430  0.00  0.00    +0.000 OA
BRANCH  41  43
ATOM     42  O   UNL     1     109.538 131.448 138.746  0.00  0.00    +0.000 OA
ATOM     43  C   UNL     1     109.024 130.846 138.981  0.00  0.00    +0.000 C 
ATOM     44  C   UNL     1     108.779 130.797 139.767  0.00  0.00    +0.000 C 
ENDBRANCH  41  43
ENDBRANCH  38  41
ENDBRANCH  31  35
ENDBRANCH   4  31
TORSDOF 7
ENDMDL
MODEL 5
REMARK VINA RESULT:     -10.3      1.309      3.141
REMARK  Name = 44257682
REMARK  7 active torsions:
REMARK  status: ('A' for Active; 'I' for Inactive)
REMARK    1  A    between atoms: O_1  and  C_16
REMARK    2  A    between atoms: O_1  and  C_21
REMARK    3  A    between atoms: O_6  and  C_24
REMARK    4  A    between atoms: O_6  and  C_34
REMARK    5  A    between atoms: C_18  and  C_26
REMARK    6  A    between atoms: C_20  and  C_27
REMARK    7  A    between atoms: C_36  and  C_39
REMARK                            x       y       z     vdW  Elec       q    Type
REMARK                         _______ _______ _______ _____ _____    ______ ____
ROOT
ATOM      1  O   UNL     1     113.279 125.716 136.295  0.00  0.00    +0.000 OA
ATOM      2  O   UNL     1     113.013 125.370 138.732  0.00  0.00    +0.000 OA
ATOM      3  O   UNL     1     114.515 125.327 138.052  0.00  0.00    +0.000 OA
ATOM      4  C   UNL     1     112.439 125.622 137.448  0.00  0.00    +0.000 C 
ATOM      5  C   UNL     1     113.102 125.485 137.919  0.00  0.00    +0.000 C 
ATOM      6  C   UNL     1     112.527 125.737 136.635  0.00  0.00    +0.000 C 
ATOM      7  C   UNL     1     113.853 125.464 137.579  0.00  0.00    +0.000 C 
ATOM      8  C   UNL     1     113.941 125.579 136.768  0.00  0.00    +0.000 C 
ENDROOT
BRANCH   6  13
ATOM      9  O   UNL     1     112.263 127.267 136.058  0.00  0.00    +0.000 OA
ATOM     10  O   UNL     1     111.494 124.499 136.283  0.00  0.00    +0.000 OA
ATOM     11  O   UNL     1     109.875 126.286 134.749  0.00  0.00    +0.000 OA
ATOM     12  O   UNL     1     110.225 127.679 134.612  0.00  0.00    +0.000 OA
ATOM     13  C   UNL     1     111.864 125.874 136.164  0.00  0.00    +0.000 A 
ATOM     14  C   UNL     1     111.718 126.631 135.868  0.00  0.00    +0.000 A 
ATOM     15  C   UNL     1     111.348 125.255 135.988  0.00  0.00    +0.000 A 
ATOM     16  C   UNL     1     111.055 126.768 135.397  0.00  0.00    +0.000 A 
ATOM     17  C   UNL     1     110.684 125.393 135.516  0.00  0.00    +0.000 A 
ATOM     18  C   UNL     1     110.538 126.149 135.221  0.00  0.00    +0.000 A 
ATOM     19  C   UNL     1     110.891 127.551 135.083  0.00  0.00    +0.000 A 
ATOM     20  C   UNL     1     112.116 128.056 135.754  0.00  0.00    +0.000 A 
ATOM     21  C   UNL     1     111.425 128.200 135.262  0.00  0.00    +0.000 A 
BRANCH  20  23
ATOM     22  O   UNL     1     114.189 130.524 136.464  0.00  0.00    +0.000 OA
ATOM     23  C   UNL     1     112.634 128.673 135.932  0.00  0.00    +0.000 A 
ATOM     24  C   UNL     1     113.341 128.752 135.513  0.00  0.00    +0.000 A 
ATOM     25  C   UNL     1     112.446 129.211 136.528  0.00  0.00    +0.000 A 
ATOM     26  C   UNL     1     113.859 129.369 135.690  0.00  0.00    +0.000 A 
ATOM     27  C   UNL     1     112.964 129.828 136.706  0.00  0.00    +0.000 A 
ATOM     28  C   UNL     1     113.671 129.907 136.287  0.00  0.00    +0.000 A 
ENDBRANCH  20  23
ENDBRANCH   6  13
BRANCH   8  30
ATOM     29  O   UNL     1     114.848 125.042 135.804  0.00  0.00    +0.000 OA
ATOM     30  C   UNL     1     114.693 125.558 136.428  0.00  0.00    +0.000 C 
ENDBRANCH   8  30
BRANCH   4  31
ATOM     31  O   UNL     1     111.687 125.643 137.788  0.00  0.00    +0.000 OA
BRANCH  31  35
ATOM     32  O   UNL     1     111.970 126.745 138.654  0.00  0.00    +0.000 OA
ATOM     33  O   UNL     1     110.646 125.028 138.911  0.00  0.00    +0.000 OA
ATOM     34  O   UNL     1     110.409 125.822 140.338  0.00  0.00    +0.000 OA
ATOM     35  C   UNL     1     111.568 126.040 138.502  0.00  0.00    +0.000 C 
ATOM     36  C   UNL     1     111.048 125.732 139.062  0.00  0.00    +0.000 C 
ATOM     37  C   UNL     1     110.929 126.130 139.777  0.00  0.00    +0.000 C 
ATOM     38  C   UNL     1     111.331 126.834 139.928  0.00  0.00    +0.000 C 
ATOM     39  C   UNL     1     111.851 127.141 139.367  0.00  0.00    +0.000 C 
ATOM     40  C   UNL     1     112.253 127.846 139.519  0.00  0.00    +0.000 C 
BRANCH  38  41
ATOM     41  O   UNL     1     111.212 127.231 140.642  0.00  0.00    +0.000 OA
BRANCH  41  43
ATOM     42  O   UNL     1     111.762 126.387 141.657  0.00  0.00    +0.000 OA
ATOM     43  C   UNL     1     111.734 127.116 141.270  0.00  0.00    +0.000 C 
ATOM     44  C   UNL     1     112.230 127.730 141.512  0.00  0.00    +0.000 C 
ENDBRANCH  41  43
ENDBRANCH  38  41
ENDBRANCH  31  35
ENDBRANCH   4  31
TORSDOF 7
ENDMDL
MODEL 6
REMARK VINA RESULT:     -10.2      1.973      4.234
REMARK  Name = 44257682
REMARK  7 active torsions:
REMARK  status: ('A' for Active; 'I' for Inactive)
REMARK    1  A    between atoms: O_1  and  C_16
REMARK    2  A    between atoms: O_1  and  C_21
REMARK    3  A    between atoms: O_6  and  C_24
REMARK    4  A    between atoms: O_6  and  C_34
REMARK    5  A    between atoms: C_18  and  C_26
REMARK    6  A    between atoms: C_20  and  C_27
REMARK    7  A    between atoms: C_36  and  C_39
REMARK                            x       y       z     vdW  Elec       q    Type
REMARK                         _______ _______ _______ _____ _____    ______ ____
ROOT
ATOM      1  O   UNL     1     112.783 128.105 135.745  0.00  0.00    +0.000 OA
ATOM      2  O   UNL     1     111.490 129.906 136.847  0.00  0.00    +0.000 OA
ATOM      3  O   UNL     1     113.026 130.197 136.319  0.00  0.00    +0.000 OA
ATOM      4  C   UNL     1     111.584 128.560 136.376  0.00  0.00    +0.000 C 
ATOM      5  C   UNL     1     111.921 129.305 136.479  0.00  0.00    +0.000 C 
ATOM      6  C   UNL     1     112.015 127.959 136.009  0.00  0.00    +0.000 C 
ATOM      7  C   UNL     1     112.689 129.451 136.215  0.00  0.00    +0.000 C 
ATOM      8  C   UNL     1     113.119 128.851 135.848  0.00  0.00    +0.000 C 
ENDROOT
BRANCH   6  13
ATOM      9  O   UNL     1     112.164 126.844 137.224  0.00  0.00    +0.000 OA
ATOM     10  O   UNL     1     111.210 127.602 134.612  0.00  0.00    +0.000 OA
ATOM     11  O   UNL     1     110.665 124.976 135.598  0.00  0.00    +0.000 OA
ATOM     12  O   UNL     1     111.125 124.557 136.901  0.00  0.00    +0.000 OA
ATOM     13  C   UNL     1     111.677 127.214 135.906  0.00  0.00    +0.000 A 
ATOM     14  C   UNL     1     111.742 126.646 136.502  0.00  0.00    +0.000 A 
ATOM     15  C   UNL     1     111.275 127.035 135.208  0.00  0.00    +0.000 A 
ATOM     16  C   UNL     1     111.405 125.901 136.399  0.00  0.00    +0.000 A 
ATOM     17  C   UNL     1     110.938 126.289 135.105  0.00  0.00    +0.000 A 
ATOM     18  C   UNL     1     111.003 125.722 135.701  0.00  0.00    +0.000 A 
ATOM     19  C   UNL     1     111.465 125.301 137.012  0.00  0.00    +0.000 A 
ATOM     20  C   UNL     1     112.234 126.258 137.847  0.00  0.00    +0.000 A 
ATOM     21  C   UNL     1     111.883 125.480 137.741  0.00  0.00    +0.000 A 
BRANCH  20  23
ATOM     22  O   UNL     1     113.845 126.983 140.635  0.00  0.00    +0.000 OA
ATOM     23  C   UNL     1     112.637 126.439 138.544  0.00  0.00    +0.000 A 
ATOM     24  C   UNL     1     112.224 126.733 139.195  0.00  0.00    +0.000 A 
ATOM     25  C   UNL     1     113.453 126.327 138.590  0.00  0.00    +0.000 A 
ATOM     26  C   UNL     1     112.627 126.914 139.892  0.00  0.00    +0.000 A 
ATOM     27  C   UNL     1     113.856 126.508 139.287  0.00  0.00    +0.000 A 
ATOM     28  C   UNL     1     113.443 126.802 139.938  0.00  0.00    +0.000 A 
ENDBRANCH  20  23
ENDBRANCH   6  13
BRANCH   8  30
ATOM     29  O   UNL     1     114.424 128.375 135.513  0.00  0.00    +0.000 OA
ATOM     30  C   UNL     1     113.887 128.997 135.584  0.00  0.00    +0.000 C 
ENDBRANCH   8  30
BRANCH   4  31
ATOM     31  O   UNL     1     110.816 128.414 136.641  0.00  0.00    +0.000 OA
BRANCH  31  35
ATOM     32  O   UNL     1     110.194 129.324 135.731  0.00  0.00    +0.000 OA
ATOM     33  O   UNL     1     109.640 128.724 137.755  0.00  0.00    +0.000 OA
ATOM     34  O   UNL     1     108.430 129.790 137.404  0.00  0.00    +0.000 OA
ATOM     35  C   UNL     1     110.211 128.946 136.465  0.00  0.00    +0.000 C 
ATOM     36  C   UNL     1     109.623 129.101 137.022  0.00  0.00    +0.000 C 
ATOM     37  C   UNL     1     109.018 129.634 136.846  0.00  0.00    +0.000 C 
ATOM     38  C   UNL     1     109.001 130.011 136.113  0.00  0.00    +0.000 C 
ATOM     39  C   UNL     1     109.589 129.856 135.556  0.00  0.00    +0.000 C 
ATOM     40  C   UNL     1     109.572 130.234 134.822  0.00  0.00    +0.000 C 
BRANCH  38  41
ATOM     41  O   UNL     1     108.396 130.544 135.937  0.00  0.00    +0.000 OA
BRANCH  41  43
ATOM     42  O   UNL     1     108.674 131.661 136.785  0.00  0.00    +0.000 OA
ATOM     43  C   UNL     1     108.518 131.355 136.034  0.00  0.00    +0.000 C 
ATOM     44  C   UNL     1     108.484 131.859 135.382  0.00  0.00    +0.000 C 
ENDBRANCH  41  43
ENDBRANCH  38  41
ENDBRANCH  31  35
ENDBRANCH   4  31
TORSDOF 7
ENDMDL
MODEL 7
REMARK VINA RESULT:     -10.2      1.712      4.619
REMARK  Name = 44257682
REMARK  7 active torsions:
REMARK  status: ('A' for Active; 'I' for Inactive)
REMARK    1  A    between atoms: O_1  and  C_16
REMARK    2  A    between atoms: O_1  and  C_21
REMARK    3  A    between atoms: O_6  and  C_24
REMARK    4  A    between atoms: O_6  and  C_34
REMARK    5  A    between atoms: C_18  and  C_26
REMARK    6  A    between atoms: C_20  and  C_27
REMARK    7  A    between atoms: C_36  and  C_39
REMARK                            x       y       z     vdW  Elec       q    Type
REMARK                         _______ _______ _______ _____ _____    ______ ____
ROOT
ATOM      1  O   UNL     1     110.829 125.564 138.786  0.00  0.00    +0.000 OA
ATOM      2  O   UNL     1     109.454 127.029 137.338  0.00  0.00    +0.000 OA
ATOM      3  O   UNL     1     108.992 126.738 138.895  0.00  0.00    +0.000 OA
ATOM      4  C   UNL     1     110.602 126.198 137.524  0.00  0.00    +0.000 C 
ATOM      5  C   UNL     1     109.913 126.540 137.821  0.00  0.00    +0.000 C 
ATOM      6  C   UNL     1     111.060 125.709 138.007  0.00  0.00    +0.000 C 
ATOM      7  C   UNL     1     109.681 126.395 138.600  0.00  0.00    +0.000 C 
ATOM      8  C   UNL     1     110.139 125.907 139.081  0.00  0.00    +0.000 C 
ENDROOT
BRANCH   6  13
ATOM      9  O   UNL     1     112.521 126.227 138.591  0.00  0.00    +0.000 OA
ATOM     10  O   UNL     1     110.968 124.531 136.854  0.00  0.00    +0.000 OA
ATOM     11  O   UNL     1     113.819 124.340 136.821  0.00  0.00    +0.000 OA
ATOM     12  O   UNL     1     114.633 125.171 137.675  0.00  0.00    +0.000 OA
ATOM     13  C   UNL     1     111.750 125.367 137.711  0.00  0.00    +0.000 A 
ATOM     14  C   UNL     1     112.486 125.613 137.991  0.00  0.00    +0.000 A 
ATOM     15  C   UNL     1     111.703 124.778 137.135  0.00  0.00    +0.000 A 
ATOM     16  C   UNL     1     113.175 125.271 137.694  0.00  0.00    +0.000 A 
ATOM     17  C   UNL     1     112.394 124.435 136.838  0.00  0.00    +0.000 A 
ATOM     18  C   UNL     1     113.129 124.682 137.118  0.00  0.00    +0.000 A 
ATOM     19  C   UNL     1     113.948 125.519 137.977  0.00  0.00    +0.000 A 
ATOM     20  C   UNL     1     113.284 126.488 138.886  0.00  0.00    +0.000 A 
ATOM     21  C   UNL     1     114.003 126.131 138.577  0.00  0.00    +0.000 A 
BRANCH  20  23
ATOM     22  O   UNL     1     113.457 128.844 141.191  0.00  0.00    +0.000 OA
ATOM     23  C   UNL     1     113.327 127.077 139.462  0.00  0.00    +0.000 A 
ATOM     24  C   UNL     1     113.281 126.877 140.261  0.00  0.00    +0.000 A 
ATOM     25  C   UNL     1     113.416 127.866 139.239  0.00  0.00    +0.000 A 
ATOM     26  C   UNL     1     113.324 127.465 140.837  0.00  0.00    +0.000 A 
ATOM     27  C   UNL     1     113.459 128.455 139.815  0.00  0.00    +0.000 A 
ATOM     28  C   UNL     1     113.413 128.255 140.614  0.00  0.00    +0.000 A 
ENDBRANCH  20  23
ENDBRANCH   6  13
BRANCH   8  30
ATOM     29  O   UNL     1     109.881 124.989 140.144  0.00  0.00    +0.000 OA
ATOM     30  C   UNL     1     109.908 125.762 139.860  0.00  0.00    +0.000 C 
ENDBRANCH   8  30
BRANCH   4  31
ATOM     31  O   UNL     1     110.833 126.343 136.746  0.00  0.00    +0.000 OA
BRANCH  31  35
ATOM     32  O   UNL     1     111.074 127.740 136.924  0.00  0.00    +0.000 OA
ATOM     33  O   UNL     1     110.319 126.628 135.204  0.00  0.00    +0.000 OA
ATOM     34  O   UNL     1     110.302 128.168 134.612  0.00  0.00    +0.000 OA
ATOM     35  C   UNL     1     110.825 127.112 136.449  0.00  0.00    +0.000 C 
ATOM     36  C   UNL     1     110.568 127.255 135.679  0.00  0.00    +0.000 C 
ATOM     37  C   UNL     1     110.560 128.025 135.383  0.00  0.00    +0.000 C 
ATOM     38  C   UNL     1     110.809 128.652 135.858  0.00  0.00    +0.000 C 
ATOM     39  C   UNL     1     111.066 128.510 136.628  0.00  0.00    +0.000 C 
ATOM     40  C   UNL     1     111.315 129.137 137.103  0.00  0.00    +0.000 C 
BRANCH  38  41
ATOM     41  O   UNL     1     110.800 129.423 135.561  0.00  0.00    +0.000 OA
BRANCH  41  43
ATOM     42  O   UNL     1     109.638 129.957 136.199  0.00  0.00    +0.000 OA
ATOM     43  C   UNL     1     110.090 129.841 135.518  0.00  0.00    +0.000 C 
ATOM     44  C   UNL     1     109.832 130.143 134.796  0.00  0.00    +0.000 C 
ENDBRANCH  41  43
ENDBRANCH  38  41
ENDBRANCH  31  35
ENDBRANCH   4  31
TORSDOF 7
ENDMDL
MODEL 8
REMARK VINA RESULT:     -10.2      1.442      4.348
REMARK  Name = 44257682
REMARK  7 active torsions:
REMARK  status: ('A' for Active; 'I' for Inactive)
REMARK    1  A    between atoms: O_1  and  C_16
REMARK    2  A    between atoms: O_1  and  C_21
REMARK    3  A    between atoms: O_6  and  C_24
REMARK    4  A    between atoms: O_6  and  C_34
REMARK    5  A    between atoms: C_18  and  C_26
REMARK    6  A    between atoms: C_20  and  C_27
REMARK    7  A    between atoms: C_36  and  C_39
REMARK                            x       y       z     vdW  Elec       q    Type
REMARK                         _______ _______ _______ _____ _____    ______ ____
ROOT
ATOM      1  O   UNL     1     110.824 126.673 138.588  0.00  0.00    +0.000 OA
ATOM      2  O   UNL     1     111.536 129.041 138.701  0.00  0.00    +0.000 OA
ATOM      3  O   UNL     1     111.803 128.037 139.983  0.00  0.00    +0.000 OA
ATOM      4  C   UNL     1     110.928 127.965 137.985  0.00  0.00    +0.000 C 
ATOM      5  C   UNL     1     111.299 128.252 138.664  0.00  0.00    +0.000 C 
ATOM      6  C   UNL     1     110.691 127.175 137.947  0.00  0.00    +0.000 C 
ATOM      7  C   UNL     1     111.432 127.749 139.304  0.00  0.00    +0.000 C 
ATOM      8  C   UNL     1     111.195 126.961 139.266  0.00  0.00    +0.000 C 
ENDROOT
BRANCH   6  13
ATOM      9  O   UNL     1     111.509 126.102 136.987  0.00  0.00    +0.000 OA
ATOM     10  O   UNL     1     109.163 127.673 137.566  0.00  0.00    +0.000 OA
ATOM     11  O   UNL     1     109.210 126.028 135.229  0.00  0.00    +0.000 OA
ATOM     12  O   UNL     1     110.365 125.227 134.904  0.00  0.00    +0.000 OA
ATOM     13  C   UNL     1     110.320 126.889 137.268  0.00  0.00    +0.000 A 
ATOM     14  C   UNL     1     110.714 126.353 136.778  0.00  0.00    +0.000 A 
ATOM     15  C   UNL     1     109.557 127.137 137.077  0.00  0.00    +0.000 A 
ATOM     16  C   UNL     1     110.344 126.067 136.099  0.00  0.00    +0.000 A 
ATOM     17  C   UNL     1     109.187 126.850 136.398  0.00  0.00    +0.000 A 
ATOM     18  C   UNL     1     109.580 126.315 135.909  0.00  0.00    +0.000 A 
ATOM     19  C   UNL     1     110.743 125.508 135.581  0.00  0.00    +0.000 A 
ATOM     20  C   UNL     1     111.923 125.545 136.482  0.00  0.00    +0.000 A 
ATOM     21  C   UNL     1     111.538 125.246 135.774  0.00  0.00    +0.000 A 
BRANCH  20  23
ATOM     22  O   UNL     1     114.976 124.557 137.253  0.00  0.00    +0.000 OA
ATOM     23  C   UNL     1     112.687 125.298 136.675  0.00  0.00    +0.000 A 
ATOM     24  C   UNL     1     112.798 124.625 137.139  0.00  0.00    +0.000 A 
ATOM     25  C   UNL     1     113.339 125.724 136.403  0.00  0.00    +0.000 A 
ATOM     26  C   UNL     1     113.561 124.378 137.331  0.00  0.00    +0.000 A 
ATOM     27  C   UNL     1     114.102 125.477 136.596  0.00  0.00    +0.000 A 
ATOM     28  C   UNL     1     114.213 124.804 137.060  0.00  0.00    +0.000 A 
ENDBRANCH  20  23
ENDBRANCH   6  13
BRANCH   8  30
ATOM     29  O   UNL     1     110.804 125.842 140.063  0.00  0.00    +0.000 OA
ATOM     30  C   UNL     1     111.328 126.459 139.907  0.00  0.00    +0.000 C 
ENDBRANCH   8  30
BRANCH   4  31
ATOM     31  O   UNL     1     110.795 128.467 137.344  0.00  0.00    +0.000 OA
BRANCH  31  35
ATOM     32  O   UNL     1     112.171 128.675 137.017  0.00  0.00    +0.000 OA
ATOM     33  O   UNL     1     110.458 130.026 136.918  0.00  0.00    +0.000 OA
ATOM     34  O   UNL     1     111.665 131.013 136.379  0.00  0.00    +0.000 OA
ATOM     35  C   UNL     1     111.398 128.961 137.074  0.00  0.00    +0.000 C 
ATOM     36  C   UNL     1     111.230 129.740 136.861  0.00  0.00    +0.000 C 
ATOM     37  C   UNL     1     111.834 130.234 136.591  0.00  0.00    +0.000 C 
ATOM     38  C   UNL     1     112.605 129.948 136.534  0.00  0.00    +0.000 C 
ATOM     39  C   UNL     1     112.773 129.170 136.747  0.00  0.00    +0.000 C 
ATOM     40  C   UNL     1     113.546 128.884 136.689  0.00  0.00    +0.000 C 
BRANCH  38  41
ATOM     41  O   UNL     1     113.209 130.442 136.264  0.00  0.00    +0.000 OA
BRANCH  41  43
ATOM     42  O   UNL     1     113.421 131.300 137.387  0.00  0.00    +0.000 OA
ATOM     43  C   UNL     1     113.721 130.800 136.803  0.00  0.00    +0.000 C 
ATOM     44  C   UNL     1     114.532 130.660 136.758  0.00  0.00    +0.000 C 
ENDBRANCH  41  43
ENDBRANCH  38  41
ENDBRANCH  31  35
ENDBRANCH   4  31
TORSDOF 7
ENDMDL
MODEL 9
REMARK VINA RESULT:     -10.2      1.648      3.416
REMARK  Name = 44257682
REMARK  7 active torsions:
REMARK  status: ('A' for Active; 'I' for Inactive)
REMARK    1  A    between atoms: O_1  and  C_16
REMARK    2  A    between atoms: O_1  and  C_21
REMARK    3  A    between atoms: O_6  and  C_24
REMARK    4  A    between atoms: O_6  and  C_34
REMARK    5  A    between atoms: C_18  and  C_26
REMARK    6  A    between atoms: C_20  and  C_27
REMARK    7  A    between atoms: C_36  and  C_39
REMARK                            x       y       z     vdW  Elec       q    Type
REMARK                         _______ _______ _______ _____ _____    ______ ____
ROOT
ATOM      1  O   UNL     1     112.403 128.502 135.434  0.00  0.00    +0.000 OA
ATOM      2  O   UNL     1     111.494 130.003 137.180  0.00  0.00    +0.000 OA
ATOM      3  O   UNL     1     113.008 130.260 136.578  0.00  0.00    +0.000 OA
ATOM      4  C   UNL     1     111.342 128.874 136.317  0.00  0.00    +0.000 C 
ATOM      5  C   UNL     1     111.797 129.502 136.598  0.00  0.00    +0.000 C 
ATOM      6  C   UNL     1     111.646 128.373 135.735  0.00  0.00    +0.000 C 
ATOM      7  C   UNL     1     112.554 129.631 136.297  0.00  0.00    +0.000 C 
ATOM      8  C   UNL     1     112.857 129.131 135.715  0.00  0.00    +0.000 C 
ENDROOT
BRANCH   6  13
ATOM      9  O   UNL     1     112.073 126.830 136.158  0.00  0.00    +0.000 OA
ATOM     10  O   UNL     1     110.337 128.665 134.771  0.00  0.00    +0.000 OA
ATOM     11  O   UNL     1     109.827 125.858 134.613  0.00  0.00    +0.000 OA
ATOM     12  O   UNL     1     110.672 124.906 135.293  0.00  0.00    +0.000 OA
ATOM     13  C   UNL     1     111.191 127.745 135.454  0.00  0.00    +0.000 A 
ATOM     14  C   UNL     1     111.390 126.970 135.656  0.00  0.00    +0.000 A 
ATOM     15  C   UNL     1     110.537 127.891 134.973  0.00  0.00    +0.000 A 
ATOM     16  C   UNL     1     110.935 126.341 135.375  0.00  0.00    +0.000 A 
ATOM     17  C   UNL     1     110.082 127.262 134.692  0.00  0.00    +0.000 A 
ATOM     18  C   UNL     1     110.282 126.487 134.894  0.00  0.00    +0.000 A 
ATOM     19  C   UNL     1     111.133 125.530 135.578  0.00  0.00    +0.000 A 
ATOM     20  C   UNL     1     112.286 126.027 136.371  0.00  0.00    +0.000 A 
ATOM     21  C   UNL     1     111.812 125.371 136.079  0.00  0.00    +0.000 A 
BRANCH  20  23
ATOM     22  O   UNL     1     114.903 125.455 138.298  0.00  0.00    +0.000 OA
ATOM     23  C   UNL     1     112.940 125.884 136.853  0.00  0.00    +0.000 A 
ATOM     24  C   UNL     1     113.691 125.811 136.518  0.00  0.00    +0.000 A 
ATOM     25  C   UNL     1     112.844 125.813 137.669  0.00  0.00    +0.000 A 
ATOM     26  C   UNL     1     114.345 125.668 137.000  0.00  0.00    +0.000 A 
ATOM     27  C   UNL     1     113.498 125.671 138.151  0.00  0.00    +0.000 A 
ATOM     28  C   UNL     1     114.249 125.598 137.817  0.00  0.00    +0.000 A 
ENDBRANCH  20  23
ENDBRANCH   6  13
BRANCH   8  30
ATOM     29  O   UNL     1     113.766 129.136 134.613  0.00  0.00    +0.000 OA
ATOM     30  C   UNL     1     113.614 129.259 135.414  0.00  0.00    +0.000 C 
ENDBRANCH   8  30
BRANCH   4  31
ATOM     31  O   UNL     1     110.585 128.746 136.618  0.00  0.00    +0.000 OA
BRANCH  31  35
ATOM     32  O   UNL     1     111.013 128.512 137.961  0.00  0.00    +0.000 OA
ATOM     33  O   UNL     1     109.187 129.418 137.180  0.00  0.00    +0.000 OA
ATOM     34  O   UNL     1     108.916 129.521 138.805  0.00  0.00    +0.000 OA
ATOM     35  C   UNL     1     110.449 128.797 137.430  0.00  0.00    +0.000 C 
ATOM     36  C   UNL     1     109.751 129.133 137.711  0.00  0.00    +0.000 C 
ATOM     37  C   UNL     1     109.615 129.185 138.523  0.00  0.00    +0.000 C 
ATOM     38  C   UNL     1     110.179 128.900 139.054  0.00  0.00    +0.000 C 
ATOM     39  C   UNL     1     110.877 128.564 138.773  0.00  0.00    +0.000 C 
ATOM     40  C   UNL     1     111.441 128.279 139.305  0.00  0.00    +0.000 C 
BRANCH  38  41
ATOM     41  O   UNL     1     110.043 128.951 139.867  0.00  0.00    +0.000 OA
BRANCH  41  43
ATOM     42  O   UNL     1     108.961 128.054 140.131  0.00  0.00    +0.000 OA
ATOM     43  C   UNL     1     109.735 128.304 140.276  0.00  0.00    +0.000 C 
ATOM     44  C   UNL     1     110.200 127.906 140.829  0.00  0.00    +0.000 C 
ENDBRANCH  41  43
ENDBRANCH  38  41
ENDBRANCH  31  35
ENDBRANCH   4  31
TORSDOF 7
ENDMDL
MODEL 10
REMARK VINA RESULT:     -10.1      9.097     11.813
REMARK  Name = 44257682
REMARK  7 active torsions:
REMARK  status: ('A' for Active; 'I' for Inactive)
REMARK    1  A    between atoms: O_1  and  C_16
REMARK    2  A    between atoms: O_1  and  C_21
REMARK    3  A    between atoms: O_6  and  C_24
REMARK    4  A    between atoms: O_6  and  C_34
REMARK    5  A    between atoms: C_18  and  C_26
REMARK    6  A    between atoms: C_20  and  C_27
REMARK    7  A    between atoms: C_36  and  C_39
REMARK                            x       y       z     vdW  Elec       q    Type
REMARK                         _______ _______ _______ _____ _____    ______ ____
ROOT
ATOM      1  O   UNL     1     106.911 125.593 146.533  0.00  0.00    +0.000 OA
ATOM      2  O   UNL     1     105.416 123.954 147.633  0.00  0.00    +0.000 OA
ATOM      3  O   UNL     1     106.734 124.538 148.436  0.00  0.00    +0.000 OA
ATOM      4  C   UNL     1     105.754 124.755 146.498  0.00  0.00    +0.000 C 
ATOM      5  C   UNL     1     105.915 124.501 147.266  0.00  0.00    +0.000 C 
ATOM      6  C   UNL     1     106.252 125.301 146.131  0.00  0.00    +0.000 C 
ATOM      7  C   UNL     1     106.574 124.793 147.668  0.00  0.00    +0.000 C 
ATOM      8  C   UNL     1     107.071 125.338 147.302  0.00  0.00    +0.000 C 
ENDROOT
BRANCH   6  13
ATOM      9  O   UNL     1     105.728 126.855 145.901  0.00  0.00    +0.000 OA
ATOM     10  O   UNL     1     106.454 124.268 144.860  0.00  0.00    +0.000 OA
ATOM     11  O   UNL     1     105.607 126.319 143.059  0.00  0.00    +0.000 OA
ATOM     12  O   UNL     1     105.235 127.627 143.540  0.00  0.00    +0.000 OA
ATOM     13  C   UNL     1     106.091 125.555 145.363  0.00  0.00    +0.000 A 
ATOM     14  C   UNL     1     105.829 126.327 145.231  0.00  0.00    +0.000 A 
ATOM     15  C   UNL     1     106.192 125.039 144.728  0.00  0.00    +0.000 A 
ATOM     16  C   UNL     1     105.668 126.580 144.463  0.00  0.00    +0.000 A 
ATOM     17  C   UNL     1     106.031 125.293 143.959  0.00  0.00    +0.000 A 
ATOM     18  C   UNL     1     105.768 126.064 143.827  0.00  0.00    +0.000 A 
ATOM     19  C   UNL     1     105.394 127.381 144.312  0.00  0.00    +0.000 A 
ATOM     20  C   UNL     1     105.455 127.658 145.769  0.00  0.00    +0.000 A 
ATOM     21  C   UNL     1     105.287 127.924 144.969  0.00  0.00    +0.000 A 
BRANCH  20  23
ATOM     22  O   UNL     1     105.055 129.715 148.319  0.00  0.00    +0.000 OA
ATOM     23  C   UNL     1     105.355 128.172 146.407  0.00  0.00    +0.000 A 
ATOM     24  C   UNL     1     104.626 128.217 146.790  0.00  0.00    +0.000 A 
ATOM     25  C   UNL     1     105.984 128.642 146.661  0.00  0.00    +0.000 A 
ATOM     26  C   UNL     1     104.526 128.732 147.427  0.00  0.00    +0.000 A 
ATOM     27  C   UNL     1     105.884 129.156 147.298  0.00  0.00    +0.000 A 
ATOM     28  C   UNL     1     105.155 129.201 147.682  0.00  0.00    +0.000 A 
ENDBRANCH  20  23
ENDBRANCH   6  13
BRANCH   8  30
ATOM     29  O   UNL     1     108.455 125.694 147.315  0.00  0.00    +0.000 OA
ATOM     30  C   UNL     1     107.730 125.630 147.703  0.00  0.00    +0.000 C 
ENDBRANCH   8  30
BRANCH   4  31
ATOM     31  O   UNL     1     105.095 124.463 146.096  0.00  0.00    +0.000 OA
BRANCH  31  35
ATOM     32  O   UNL     1     104.118 125.013 146.982  0.00  0.00    +0.000 OA
ATOM     33  O   UNL     1     104.141 123.136 145.868  0.00  0.00    +0.000 OA
ATOM     34  O   UNL     1     102.687 123.023 146.640  0.00  0.00    +0.000 OA
ATOM     35  C   UNL     1     104.368 124.406 146.482  0.00  0.00    +0.000 C 
ATOM     36  C   UNL     1     103.891 123.743 146.368  0.00  0.00    +0.000 C 
ATOM     37  C   UNL     1     103.164 123.687 146.754  0.00  0.00    +0.000 C 
ATOM     38  C   UNL     1     102.915 124.294 147.254  0.00  0.00    +0.000 C 
ATOM     39  C   UNL     1     103.391 124.956 147.368  0.00  0.00    +0.000 C 
ATOM     40  C   UNL     1     103.141 125.563 147.868  0.00  0.00    +0.000 C 
BRANCH  38  41
ATOM     41  O   UNL     1     102.187 124.237 147.640  0.00  0.00    +0.000 OA
BRANCH  41  43
ATOM     42  O   UNL     1     102.578 123.935 148.982  0.00  0.00    +0.000 OA
ATOM     43  C   UNL     1     102.115 123.772 148.318  0.00  0.00    +0.000 C 
ATOM     44  C   UNL     1     101.580 123.145 148.333  0.00  0.00    +0.000 C 
ENDBRANCH  41  43
ENDBRANCH  38  41
ENDBRANCH  31  35
ENDBRANCH   4  31
TORSDOF 7
ENDMDL
