MODEL 1
REMARK VINA RESULT:      -7.6      0.000      0.000
REMARK  Name = 44260038
REMARK  5 active torsions:
REMARK  status: ('A' for Active; 'I' for Inactive)
REMARK    1  A    between atoms: O_2  and  C_13
REMARK    2  A    between atoms: O_3  and  C_16
REMARK    3  A    between atoms: O_4  and  C_18
REMARK    4  A    between atoms: O_7  and  C_24
REMARK    5  A    between atoms: C_12  and  C_15
REMARK                            x       y       z     vdW  Elec       q    Type
REMARK                         _______ _______ _______ _____ _____    ______ ____
ROOT
ATOM      1  O   UNL     1     103.805 124.398 146.904  0.00  0.00    +0.000 OA
ATOM      2  O   UNL     1     101.055 124.464 147.787  0.00  0.00    +0.000 OA
ATOM      3  O   UNL     1     102.103 125.072 148.570  0.00  0.00    +0.000 OA
ATOM      4  C   UNL     1     102.445 124.430 147.339  0.00  0.00    +0.000 A 
ATOM      5  C   UNL     1     103.012 124.205 146.784  0.00  0.00    +0.000 A 
ATOM      6  C   UNL     1     104.032 124.815 147.579  0.00  0.00    +0.000 A 
ATOM      7  C   UNL     1     103.464 125.039 148.134  0.00  0.00    +0.000 A 
ATOM      8  C   UNL     1     102.670 124.847 148.014  0.00  0.00    +0.000 A 
ATOM      9  C   UNL     1     102.789 123.770 146.077  0.00  0.00    +0.000 A 
ATOM     10  C   UNL     1     101.615 124.236 147.226  0.00  0.00    +0.000 A 
ATOM     11  C   UNL     1     101.965 123.567 145.947  0.00  0.00    +0.000 A 
ATOM     12  C   UNL     1     101.374 123.801 146.526  0.00  0.00    +0.000 A 
ENDROOT
BRANCH   6  15
ATOM     13  O   UNL     1     106.597 124.176 148.665  0.00  0.00    +0.000 OA
ATOM     14  O   UNL     1     106.226 126.609 147.211  0.00  0.00    +0.000 OA
ATOM     15  C   UNL     1     104.824 125.007 147.699  0.00  0.00    +0.000 A 
ATOM     16  C   UNL     1     105.128 125.711 147.395  0.00  0.00    +0.000 A 
ATOM     17  C   UNL     1     105.314 124.496 148.122  0.00  0.00    +0.000 A 
ATOM     18  C   UNL     1     106.107 124.688 148.242  0.00  0.00    +0.000 A 
ATOM     19  C   UNL     1     105.922 125.904 147.515  0.00  0.00    +0.000 A 
ATOM     20  C   UNL     1     106.411 125.392 147.938  0.00  0.00    +0.000 A 
BRANCH  20  21
ATOM     21  O   UNL     1     107.205 125.585 148.058  0.00  0.00    +0.000 OA
ATOM     22  C   UNL     1     107.787 125.256 147.575  0.00  0.00    +0.000 C 
ENDBRANCH  20  21
ENDBRANCH   6  15
BRANCH   7  23
ATOM     23  O   UNL     1     103.690 125.456 148.809  0.00  0.00    +0.000 OA
ATOM     24  C   UNL     1     103.116 125.742 149.329  0.00  0.00    +0.000 C 
ENDBRANCH   7  23
BRANCH   9  25
ATOM     25  O   UNL     1     103.364 123.550 145.527  0.00  0.00    +0.000 OA
ATOM     26  C   UNL     1     103.560 122.754 145.434  0.00  0.00    +0.000 C 
ENDBRANCH   9  25
BRANCH  11  27
ATOM     27  O   UNL     1     101.742 123.150 145.271  0.00  0.00    +0.000 OA
ATOM     28  C   UNL     1     100.942 123.044 145.097  0.00  0.00    +0.000 C 
ENDBRANCH  11  27
TORSDOF 5
ENDMDL
MODEL 2
REMARK VINA RESULT:      -7.6     13.458     14.466
REMARK  Name = 44260038
REMARK  5 active torsions:
REMARK  status: ('A' for Active; 'I' for Inactive)
REMARK    1  A    between atoms: O_2  and  C_13
REMARK    2  A    between atoms: O_3  and  C_16
REMARK    3  A    between atoms: O_4  and  C_18
REMARK    4  A    between atoms: O_7  and  C_24
REMARK    5  A    between atoms: C_12  and  C_15
REMARK                            x       y       z     vdW  Elec       q    Type
REMARK                         _______ _______ _______ _____ _____    ______ ____
ROOT
ATOM      1  O   UNL     1     112.849 126.655 136.549  0.00  0.00    +0.000 OA
ATOM      2  O   UNL     1     110.515 125.298 135.520  0.00  0.00    +0.000 OA
ATOM      3  O   UNL     1     110.690 126.718 135.339  0.00  0.00    +0.000 OA
ATOM      4  C   UNL     1     111.695 125.983 136.040  0.00  0.00    +0.000 A 
ATOM      5  C   UNL     1     112.415 125.962 136.444  0.00  0.00    +0.000 A 
ATOM      6  C   UNL     1     112.564 127.370 136.251  0.00  0.00    +0.000 A 
ATOM      7  C   UNL     1     111.845 127.391 135.847  0.00  0.00    +0.000 A 
ATOM      8  C   UNL     1     111.410 126.697 135.742  0.00  0.00    +0.000 A 
ATOM      9  C   UNL     1     112.722 125.223 136.759  0.00  0.00    +0.000 A 
ATOM     10  C   UNL     1     111.233 125.267 135.924  0.00  0.00    +0.000 A 
ATOM     11  C   UNL     1     112.274 124.498 136.652  0.00  0.00    +0.000 A 
ATOM     12  C   UNL     1     111.524 124.520 136.232  0.00  0.00    +0.000 A 
ENDROOT
BRANCH   6  15
ATOM     13  O   UNL     1     113.184 129.692 137.797  0.00  0.00    +0.000 OA
ATOM     14  O   UNL     1     114.551 129.209 135.334  0.00  0.00    +0.000 OA
ATOM     15  C   UNL     1     112.998 128.063 136.356  0.00  0.00    +0.000 A 
ATOM     16  C   UNL     1     113.557 128.289 135.793  0.00  0.00    +0.000 A 
ATOM     17  C   UNL     1     112.874 128.531 137.024  0.00  0.00    +0.000 A 
ATOM     18  C   UNL     1     113.308 129.224 137.129  0.00  0.00    +0.000 A 
ATOM     19  C   UNL     1     113.992 128.983 135.898  0.00  0.00    +0.000 A 
ATOM     20  C   UNL     1     113.867 129.450 136.566  0.00  0.00    +0.000 A 
BRANCH  20  21
ATOM     21  O   UNL     1     114.302 130.144 136.671  0.00  0.00    +0.000 OA
ATOM     22  C   UNL     1     114.002 130.863 136.401  0.00  0.00    +0.000 C 
ENDBRANCH  20  21
ENDBRANCH   6  15
BRANCH   7  23
ATOM     23  O   UNL     1     111.559 128.105 135.549  0.00  0.00    +0.000 OA
ATOM     24  C   UNL     1     110.987 128.105 134.955  0.00  0.00    +0.000 C 
ENDBRANCH   7  23
BRANCH   9  25
ATOM     25  O   UNL     1     113.442 125.212 137.161  0.00  0.00    +0.000 OA
ATOM     26  C   UNL     1     114.099 124.847 136.819  0.00  0.00    +0.000 C 
ENDBRANCH   9  25
BRANCH  11  27
ATOM     27  O   UNL     1     112.561 123.785 136.952  0.00  0.00    +0.000 OA
ATOM     28  C   UNL     1     112.043 123.160 137.099  0.00  0.00    +0.000 C 
ENDBRANCH  11  27
TORSDOF 5
ENDMDL
MODEL 3
REMARK VINA RESULT:      -7.4      7.601      8.817
REMARK  Name = 44260038
REMARK  5 active torsions:
REMARK  status: ('A' for Active; 'I' for Inactive)
REMARK    1  A    between atoms: O_2  and  C_13
REMARK    2  A    between atoms: O_3  and  C_16
REMARK    3  A    between atoms: O_4  and  C_18
REMARK    4  A    between atoms: O_7  and  C_24
REMARK    5  A    between atoms: C_12  and  C_15
REMARK                            x       y       z     vdW  Elec       q    Type
REMARK                         _______ _______ _______ _____ _____    ______ ____
ROOT
ATOM      1  O   UNL     1     103.540 130.176 142.286  0.00  0.00    +0.000 OA
ATOM      2  O   UNL     1     104.309 127.718 140.978  0.00  0.00    +0.000 OA
ATOM      3  O   UNL     1     103.401 128.644 140.347  0.00  0.00    +0.000 OA
ATOM      4  C   UNL     1     103.921 128.961 141.640  0.00  0.00    +0.000 A 
ATOM      5  C   UNL     1     103.967 129.471 142.286  0.00  0.00    +0.000 A 
ATOM      6  C   UNL     1     103.066 130.372 141.639  0.00  0.00    +0.000 A 
ATOM      7  C   UNL     1     103.019 129.861 140.993  0.00  0.00    +0.000 A 
ATOM      8  C   UNL     1     103.447 129.155 140.993  0.00  0.00    +0.000 A 
ATOM      9  C   UNL     1     104.458 129.279 142.966  0.00  0.00    +0.000 A 
ATOM     10  C   UNL     1     104.361 128.222 141.628  0.00  0.00    +0.000 A 
ATOM     11  C   UNL     1     104.905 128.546 142.972  0.00  0.00    +0.000 A 
ATOM     12  C   UNL     1     104.856 128.013 142.298  0.00  0.00    +0.000 A 
ENDROOT
BRANCH   6  15
ATOM     13  O   UNL     1     102.854 133.138 140.952  0.00  0.00    +0.000 OA
ATOM     14  O   UNL     1     100.711 131.839 142.325  0.00  0.00    +0.000 OA
ATOM     15  C   UNL     1     102.639 131.077 141.639  0.00  0.00    +0.000 A 
ATOM     16  C   UNL     1     101.889 131.105 141.982  0.00  0.00    +0.000 A 
ATOM     17  C   UNL     1     102.960 131.755 141.296  0.00  0.00    +0.000 A 
ATOM     18  C   UNL     1     102.533 132.460 141.295  0.00  0.00    +0.000 A 
ATOM     19  C   UNL     1     101.461 131.811 141.982  0.00  0.00    +0.000 A 
ATOM     20  C   UNL     1     101.783 132.488 141.638  0.00  0.00    +0.000 A 
BRANCH  20  21
ATOM     21  O   UNL     1     101.355 133.194 141.638  0.00  0.00    +0.000 OA
ATOM     22  C   UNL     1     101.445 133.732 142.257  0.00  0.00    +0.000 C 
ENDBRANCH  20  21
ENDBRANCH   6  15
BRANCH   7  23
ATOM     23  O   UNL     1     102.546 130.055 140.346  0.00  0.00    +0.000 OA
ATOM     24  C   UNL     1     102.276 129.463 139.839  0.00  0.00    +0.000 C 
ENDBRANCH   7  23
BRANCH   9  25
ATOM     25  O   UNL     1     104.498 129.796 143.608  0.00  0.00    +0.000 OA
ATOM     26  C   UNL     1     105.190 130.222 143.750  0.00  0.00    +0.000 C 
ENDBRANCH   9  25
BRANCH  11  27
ATOM     27  O   UNL     1     105.378 128.353 143.620  0.00  0.00    +0.000 OA
ATOM     28  C   UNL     1     105.620 127.573 143.736  0.00  0.00    +0.000 C 
ENDBRANCH  11  27
TORSDOF 5
ENDMDL
MODEL 4
REMARK VINA RESULT:      -7.4      1.470      1.842
REMARK  Name = 44260038
REMARK  5 active torsions:
REMARK  status: ('A' for Active; 'I' for Inactive)
REMARK    1  A    between atoms: O_2  and  C_13
REMARK    2  A    between atoms: O_3  and  C_16
REMARK    3  A    between atoms: O_4  and  C_18
REMARK    4  A    between atoms: O_7  and  C_24
REMARK    5  A    between atoms: C_12  and  C_15
REMARK                            x       y       z     vdW  Elec       q    Type
REMARK                         _______ _______ _______ _____ _____    ______ ____
ROOT
ATOM      1  O   UNL     1     103.804 124.533 146.566  0.00  0.00    +0.000 OA
ATOM      2  O   UNL     1     102.680 123.955 149.164  0.00  0.00    +0.000 OA
ATOM      3  O   UNL     1     103.853 124.784 149.028  0.00  0.00    +0.000 OA
ATOM      4  C   UNL     1     103.248 124.247 147.850  0.00  0.00    +0.000 A 
ATOM      5  C   UNL     1     103.231 124.163 147.029  0.00  0.00    +0.000 A 
ATOM      6  C   UNL     1     104.394 124.987 146.922  0.00  0.00    +0.000 A 
ATOM      7  C   UNL     1     104.410 125.071 147.743  0.00  0.00    +0.000 A 
ATOM      8  C   UNL     1     103.837 124.701 148.207  0.00  0.00    +0.000 A 
ATOM      9  C   UNL     1     102.622 123.693 146.646  0.00  0.00    +0.000 A 
ATOM     10  C   UNL     1     102.656 123.866 148.345  0.00  0.00    +0.000 A 
ATOM     11  C   UNL     1     102.023 123.305 147.124  0.00  0.00    +0.000 A 
ATOM     12  C   UNL     1     102.040 123.392 147.979  0.00  0.00    +0.000 A 
ENDROOT
BRANCH   6  15
ATOM     13  O   UNL     1     106.977 124.973 145.700  0.00  0.00    +0.000 OA
ATOM     14  O   UNL     1     105.249 127.224 145.362  0.00  0.00    +0.000 OA
ATOM     15  C   UNL     1     104.967 125.357 146.459  0.00  0.00    +0.000 A 
ATOM     16  C   UNL     1     104.821 126.105 146.143  0.00  0.00    +0.000 A 
ATOM     17  C   UNL     1     105.686 124.980 146.311  0.00  0.00    +0.000 A 
ATOM     18  C   UNL     1     106.258 125.350 145.848  0.00  0.00    +0.000 A 
ATOM     19  C   UNL     1     105.395 126.476 145.678  0.00  0.00    +0.000 A 
ATOM     20  C   UNL     1     106.113 126.098 145.531  0.00  0.00    +0.000 A 
BRANCH  20  21
ATOM     21  O   UNL     1     106.686 126.469 145.067  0.00  0.00    +0.000 OA
ATOM     22  C   UNL     1     106.594 126.505 144.248  0.00  0.00    +0.000 C 
ENDBRANCH  20  21
ENDBRANCH   6  15
BRANCH   7  23
ATOM     23  O   UNL     1     104.999 125.525 148.100  0.00  0.00    +0.000 OA
ATOM     24  C   UNL     1     104.889 125.818 148.863  0.00  0.00    +0.000 C 
ENDBRANCH   7  23
BRANCH   9  25
ATOM     25  O   UNL     1     102.614 123.615 145.825  0.00  0.00    +0.000 OA
ATOM     26  C   UNL     1     102.808 122.892 145.478  0.00  0.00    +0.000 C 
ENDBRANCH   9  25
BRANCH  11  27
ATOM     27  O   UNL     1     101.435 122.852 146.764  0.00  0.00    +0.000 OA
ATOM     28  C   UNL     1     100.711 122.740 147.143  0.00  0.00    +0.000 C 
ENDBRANCH  11  27
TORSDOF 5
ENDMDL
MODEL 5
REMARK VINA RESULT:      -7.2     12.597     13.952
REMARK  Name = 44260038
REMARK  5 active torsions:
REMARK  status: ('A' for Active; 'I' for Inactive)
REMARK    1  A    between atoms: O_2  and  C_13
REMARK    2  A    between atoms: O_3  and  C_16
REMARK    3  A    between atoms: O_4  and  C_18
REMARK    4  A    between atoms: O_7  and  C_24
REMARK    5  A    between atoms: C_12  and  C_15
REMARK                            x       y       z     vdW  Elec       q    Type
REMARK                         _______ _______ _______ _____ _____    ______ ____
ROOT
ATOM      1  O   UNL     1     111.820 126.792 136.732  0.00  0.00    +0.000 OA
ATOM      2  O   UNL     1     111.983 123.981 136.085  0.00  0.00    +0.000 OA
ATOM      3  O   UNL     1     110.862 124.780 135.654  0.00  0.00    +0.000 OA
ATOM      4  C   UNL     1     111.902 125.402 136.413  0.00  0.00    +0.000 A 
ATOM      5  C   UNL     1     112.221 126.072 136.772  0.00  0.00    +0.000 A 
ATOM      6  C   UNL     1     111.099 126.841 136.333  0.00  0.00    +0.000 A 
ATOM      7  C   UNL     1     110.780 126.171 135.973  0.00  0.00    +0.000 A 
ATOM      8  C   UNL     1     111.182 125.450 136.013  0.00  0.00    +0.000 A 
ATOM      9  C   UNL     1     112.970 126.034 137.191  0.00  0.00    +0.000 A 
ATOM     10  C   UNL     1     112.310 124.645 136.447  0.00  0.00    +0.000 A 
ATOM     11  C   UNL     1     113.393 125.287 137.236  0.00  0.00    +0.000 A 
ATOM     12  C   UNL     1     113.060 124.588 136.862  0.00  0.00    +0.000 A 
ENDROOT
BRANCH   6  15
ATOM     13  O   UNL     1     109.142 128.646 137.373  0.00  0.00    +0.000 OA
ATOM     14  O   UNL     1     110.649 129.356 135.050  0.00  0.00    +0.000 OA
ATOM     15  C   UNL     1     110.698 127.561 136.293  0.00  0.00    +0.000 A 
ATOM     16  C   UNL     1     110.874 128.098 135.692  0.00  0.00    +0.000 A 
ATOM     17  C   UNL     1     110.121 127.744 136.853  0.00  0.00    +0.000 A 
ATOM     18  C   UNL     1     109.720 128.463 136.813  0.00  0.00    +0.000 A 
ATOM     19  C   UNL     1     110.473 128.818 135.651  0.00  0.00    +0.000 A 
ATOM     20  C   UNL     1     109.896 129.000 136.212  0.00  0.00    +0.000 A 
BRANCH  20  21
ATOM     21  O   UNL     1     109.494 129.720 136.171  0.00  0.00    +0.000 OA
ATOM     22  C   UNL     1     108.778 129.771 135.765  0.00  0.00    +0.000 C 
ENDBRANCH  20  21
ENDBRANCH   6  15
BRANCH   7  23
ATOM     23  O   UNL     1     110.060 126.219 135.574  0.00  0.00    +0.000 OA
ATOM     24  C   UNL     1     109.898 125.704 134.950  0.00  0.00    +0.000 C 
ENDBRANCH   7  23
BRANCH   9  25
ATOM     25  O   UNL     1     113.282 126.710 137.547  0.00  0.00    +0.000 OA
ATOM     26  C   UNL     1     113.295 126.772 138.370  0.00  0.00    +0.000 C 
ENDBRANCH   9  25
BRANCH  11  27
ATOM     27  O   UNL     1     114.113 125.241 137.636  0.00  0.00    +0.000 OA
ATOM     28  C   UNL     1     114.680 124.690 137.402  0.00  0.00    +0.000 C 
ENDBRANCH  11  27
TORSDOF 5
ENDMDL
MODEL 6
REMARK VINA RESULT:      -7.2      2.827      4.034
REMARK  Name = 44260038
REMARK  5 active torsions:
REMARK  status: ('A' for Active; 'I' for Inactive)
REMARK    1  A    between atoms: O_2  and  C_13
REMARK    2  A    between atoms: O_3  and  C_16
REMARK    3  A    between atoms: O_4  and  C_18
REMARK    4  A    between atoms: O_7  and  C_24
REMARK    5  A    between atoms: C_12  and  C_15
REMARK                            x       y       z     vdW  Elec       q    Type
REMARK                         _______ _______ _______ _____ _____    ______ ____
ROOT
ATOM      1  O   UNL     1     106.375 125.274 145.788  0.00  0.00    +0.000 OA
ATOM      2  O   UNL     1     106.314 127.434 143.870  0.00  0.00    +0.000 OA
ATOM      3  O   UNL     1     106.694 127.667 145.242  0.00  0.00    +0.000 OA
ATOM      4  C   UNL     1     106.345 126.341 144.839  0.00  0.00    +0.000 A 
ATOM      5  C   UNL     1     106.238 125.544 145.021  0.00  0.00    +0.000 A 
ATOM      6  C   UNL     1     106.618 125.802 146.374  0.00  0.00    +0.000 A 
ATOM      7  C   UNL     1     106.724 126.600 146.192  0.00  0.00    +0.000 A 
ATOM      8  C   UNL     1     106.587 126.870 145.424  0.00  0.00    +0.000 A 
ATOM      9  C   UNL     1     105.986 124.984 144.419  0.00  0.00    +0.000 A 
ATOM     10  C   UNL     1     106.206 126.635 144.042  0.00  0.00    +0.000 A 
ATOM     11  C   UNL     1     105.842 125.259 143.618  0.00  0.00    +0.000 A 
ATOM     12  C   UNL     1     105.953 126.091 143.428  0.00  0.00    +0.000 A 
ENDROOT
BRANCH   6  15
ATOM     13  O   UNL     1     105.662 125.247 149.009  0.00  0.00    +0.000 OA
ATOM     14  O   UNL     1     108.395 124.740 148.344  0.00  0.00    +0.000 OA
ATOM     15  C   UNL     1     106.754 125.533 147.141  0.00  0.00    +0.000 A 
ATOM     16  C   UNL     1     107.506 125.271 147.358  0.00  0.00    +0.000 A 
ATOM     17  C   UNL     1     106.140 125.524 147.692  0.00  0.00    +0.000 A 
ATOM     18  C   UNL     1     106.276 125.255 148.459  0.00  0.00    +0.000 A 
ATOM     19  C   UNL     1     107.643 125.001 148.127  0.00  0.00    +0.000 A 
ATOM     20  C   UNL     1     107.028 124.994 148.676  0.00  0.00    +0.000 A 
BRANCH  20  21
ATOM     21  O   UNL     1     107.165 124.724 149.444  0.00  0.00    +0.000 OA
ATOM     22  C   UNL     1     107.124 123.917 149.612  0.00  0.00    +0.000 C 
ENDBRANCH  20  21
ENDBRANCH   6  15
BRANCH   7  23
ATOM     23  O   UNL     1     106.967 127.128 146.777  0.00  0.00    +0.000 OA
ATOM     24  C   UNL     1     107.102 127.920 146.588  0.00  0.00    +0.000 C 
ENDBRANCH   7  23
BRANCH   9  25
ATOM     25  O   UNL     1     105.882 124.188 144.610  0.00  0.00    +0.000 OA
ATOM     26  C   UNL     1     105.122 123.869 144.646  0.00  0.00    +0.000 C 
ENDBRANCH   9  25
BRANCH  11  27
ATOM     27  O   UNL     1     105.599 124.729 143.034  0.00  0.00    +0.000 OA
ATOM     28  C   UNL     1     105.764 124.885 142.241  0.00  0.00    +0.000 C 
ENDBRANCH  11  27
TORSDOF 5
ENDMDL
MODEL 7
REMARK VINA RESULT:      -7.2     11.366     12.925
REMARK  Name = 44260038
REMARK  5 active torsions:
REMARK  status: ('A' for Active; 'I' for Inactive)
REMARK    1  A    between atoms: O_2  and  C_13
REMARK    2  A    between atoms: O_3  and  C_16
REMARK    3  A    between atoms: O_4  and  C_18
REMARK    4  A    between atoms: O_7  and  C_24
REMARK    5  A    between atoms: C_12  and  C_15
REMARK                            x       y       z     vdW  Elec       q    Type
REMARK                         _______ _______ _______ _____ _____    ______ ____
ROOT
ATOM      1  O   UNL     1     110.415 126.879 136.547  0.00  0.00    +0.000 OA
ATOM      2  O   UNL     1     110.899 125.471 139.022  0.00  0.00    +0.000 OA
ATOM      3  O   UNL     1     110.243 126.756 139.013  0.00  0.00    +0.000 OA
ATOM      4  C   UNL     1     110.655 126.182 137.770  0.00  0.00    +0.000 A 
ATOM      5  C   UNL     1     110.712 126.223 136.948  0.00  0.00    +0.000 A 
ATOM      6  C   UNL     1     110.061 127.495 136.966  0.00  0.00    +0.000 A 
ATOM      7  C   UNL     1     110.003 127.454 137.788  0.00  0.00    +0.000 A 
ATOM      8  C   UNL     1     110.301 126.797 138.191  0.00  0.00    +0.000 A 
ATOM      9  C   UNL     1     111.079 125.588 136.499  0.00  0.00    +0.000 A 
ATOM     10  C   UNL     1     110.960 125.503 138.201  0.00  0.00    +0.000 A 
ATOM     11  C   UNL     1     111.390 124.902 136.912  0.00  0.00    +0.000 A 
ATOM     12  C   UNL     1     111.330 124.859 137.769  0.00  0.00    +0.000 A 
ENDROOT
BRANCH   6  15
ATOM     13  O   UNL     1     110.453 130.088 135.831  0.00  0.00    +0.000 OA
ATOM     14  O   UNL     1     107.885 128.840 135.691  0.00  0.00    +0.000 OA
ATOM     15  C   UNL     1     109.764 128.151 136.565  0.00  0.00    +0.000 A 
ATOM     16  C   UNL     1     108.973 128.167 136.329  0.00  0.00    +0.000 A 
ATOM     17  C   UNL     1     110.257 128.791 136.399  0.00  0.00    +0.000 A 
ATOM     18  C   UNL     1     109.960 129.447 135.997  0.00  0.00    +0.000 A 
ATOM     19  C   UNL     1     108.676 128.824 135.927  0.00  0.00    +0.000 A 
ATOM     20  C   UNL     1     109.169 129.463 135.761  0.00  0.00    +0.000 A 
BRANCH  20  21
ATOM     21  O   UNL     1     108.872 130.120 135.359  0.00  0.00    +0.000 OA
ATOM     22  C   UNL     1     108.530 130.742 135.780  0.00  0.00    +0.000 C 
ENDBRANCH  20  21
ENDBRANCH   6  15
BRANCH   7  23
ATOM     23  O   UNL     1     109.649 128.069 138.209  0.00  0.00    +0.000 OA
ATOM     24  C   UNL     1     109.855 128.202 138.996  0.00  0.00    +0.000 C 
ENDBRANCH   7  23
BRANCH   9  25
ATOM     25  O   UNL     1     111.132 125.638 135.678  0.00  0.00    +0.000 OA
ATOM     26  C   UNL     1     110.619 125.197 135.205  0.00  0.00    +0.000 C 
ENDBRANCH   9  25
BRANCH  11  27
ATOM     27  O   UNL     1     111.744 124.288 136.490  0.00  0.00    +0.000 OA
ATOM     28  C   UNL     1     112.202 123.726 136.884  0.00  0.00    +0.000 C 
ENDBRANCH  11  27
TORSDOF 5
ENDMDL
MODEL 8
REMARK VINA RESULT:      -7.2      9.559     11.290
REMARK  Name = 44260038
REMARK  5 active torsions:
REMARK  status: ('A' for Active; 'I' for Inactive)
REMARK    1  A    between atoms: O_2  and  C_13
REMARK    2  A    between atoms: O_3  and  C_16
REMARK    3  A    between atoms: O_4  and  C_18
REMARK    4  A    between atoms: O_7  and  C_24
REMARK    5  A    between atoms: C_12  and  C_15
REMARK                            x       y       z     vdW  Elec       q    Type
REMARK                         _______ _______ _______ _____ _____    ______ ____
ROOT
ATOM      1  O   UNL     1     111.777 131.328 145.428  0.00  0.00    +0.000 OA
ATOM      2  O   UNL     1     112.213 131.682 142.594  0.00  0.00    +0.000 OA
ATOM      3  O   UNL     1     112.419 132.768 143.520  0.00  0.00    +0.000 OA
ATOM      4  C   UNL     1     111.992 131.502 144.027  0.00  0.00    +0.000 A 
ATOM      5  C   UNL     1     111.778 131.022 144.662  0.00  0.00    +0.000 A 
ATOM      6  C   UNL     1     111.990 132.114 145.559  0.00  0.00    +0.000 A 
ATOM      7  C   UNL     1     112.204 132.594 144.923  0.00  0.00    +0.000 A 
ATOM      8  C   UNL     1     112.205 132.288 144.156  0.00  0.00    +0.000 A 
ATOM      9  C   UNL     1     111.554 130.201 144.539  0.00  0.00    +0.000 A 
ATOM     10  C   UNL     1     111.997 131.195 143.223  0.00  0.00    +0.000 A 
ATOM     11  C   UNL     1     111.553 129.877 143.744  0.00  0.00    +0.000 A 
ATOM     12  C   UNL     1     111.776 130.377 143.081  0.00  0.00    +0.000 A 
ENDROOT
BRANCH   6  15
ATOM     13  O   UNL     1     110.677 133.562 147.644  0.00  0.00    +0.000 OA
ATOM     14  O   UNL     1     113.298 132.505 148.070  0.00  0.00    +0.000 OA
ATOM     15  C   UNL     1     111.989 132.420 146.324  0.00  0.00    +0.000 A 
ATOM     16  C   UNL     1     112.644 132.309 146.814  0.00  0.00    +0.000 A 
ATOM     17  C   UNL     1     111.334 132.838 146.602  0.00  0.00    +0.000 A 
ATOM     18  C   UNL     1     111.333 133.144 147.367  0.00  0.00    +0.000 A 
ATOM     19  C   UNL     1     112.643 132.616 147.580  0.00  0.00    +0.000 A 
ATOM     20  C   UNL     1     111.987 133.033 147.856  0.00  0.00    +0.000 A 
BRANCH  20  21
ATOM     21  O   UNL     1     111.987 133.340 148.623  0.00  0.00    +0.000 OA
ATOM     22  C   UNL     1     111.864 132.839 149.267  0.00  0.00    +0.000 C 
ENDBRANCH  20  21
ENDBRANCH   6  15
BRANCH   7  23
ATOM     23  O   UNL     1     112.417 133.381 145.053  0.00  0.00    +0.000 OA
ATOM     24  C   UNL     1     112.402 133.921 144.429  0.00  0.00    +0.000 C 
ENDBRANCH   7  23
BRANCH   9  25
ATOM     25  O   UNL     1     111.341 129.729 145.182  0.00  0.00    +0.000 OA
ATOM     26  C   UNL     1     111.833 129.110 145.418  0.00  0.00    +0.000 C 
ENDBRANCH   9  25
BRANCH  11  27
ATOM     27  O   UNL     1     111.339 129.090 143.617  0.00  0.00    +0.000 OA
ATOM     28  C   UNL     1     111.192 128.821 142.851  0.00  0.00    +0.000 C 
ENDBRANCH  11  27
TORSDOF 5
ENDMDL
MODEL 9
REMARK VINA RESULT:      -7.2      1.284      2.600
REMARK  Name = 44260038
REMARK  5 active torsions:
REMARK  status: ('A' for Active; 'I' for Inactive)
REMARK    1  A    between atoms: O_2  and  C_13
REMARK    2  A    between atoms: O_3  and  C_16
REMARK    3  A    between atoms: O_4  and  C_18
REMARK    4  A    between atoms: O_7  and  C_24
REMARK    5  A    between atoms: C_12  and  C_15
REMARK                            x       y       z     vdW  Elec       q    Type
REMARK                         _______ _______ _______ _____ _____    ______ ____
ROOT
ATOM      1  O   UNL     1     103.586 124.782 147.157  0.00  0.00    +0.000 OA
ATOM      2  O   UNL     1     101.607 122.741 146.645  0.00  0.00    +0.000 OA
ATOM      3  O   UNL     1     102.796 122.844 145.835  0.00  0.00    +0.000 OA
ATOM      4  C   UNL     1     102.607 123.773 146.905  0.00  0.00    +0.000 A 
ATOM      5  C   UNL     1     102.870 124.419 147.345  0.00  0.00    +0.000 A 
ATOM      6  C   UNL     1     104.040 124.500 146.528  0.00  0.00    +0.000 A 
ATOM      7  C   UNL     1     103.776 123.854 146.087  0.00  0.00    +0.000 A 
ATOM      8  C   UNL     1     103.059 123.490 146.276  0.00  0.00    +0.000 A 
ATOM      9  C   UNL     1     102.407 124.723 148.003  0.00  0.00    +0.000 A 
ATOM     10  C   UNL     1     101.862 123.386 147.091  0.00  0.00    +0.000 A 
ATOM     11  C   UNL     1     101.660 124.349 148.204  0.00  0.00    +0.000 A 
ATOM     12  C   UNL     1     101.386 123.675 147.744  0.00  0.00    +0.000 A 
ENDROOT
BRANCH   6  15
ATOM     13  O   UNL     1     106.857 124.770 146.922  0.00  0.00    +0.000 OA
ATOM     14  O   UNL     1     105.519 126.410 145.002  0.00  0.00    +0.000 OA
ATOM     15  C   UNL     1     104.755 124.863 146.340  0.00  0.00    +0.000 A 
ATOM     16  C   UNL     1     104.779 125.455 145.765  0.00  0.00    +0.000 A 
ATOM     17  C   UNL     1     105.448 124.635 146.725  0.00  0.00    +0.000 A 
ATOM     18  C   UNL     1     106.164 124.998 146.537  0.00  0.00    +0.000 A 
ATOM     19  C   UNL     1     105.496 125.819 145.576  0.00  0.00    +0.000 A 
ATOM     20  C   UNL     1     106.188 125.590 145.962  0.00  0.00    +0.000 A 
BRANCH  20  21
ATOM     21  O   UNL     1     106.905 125.953 145.773  0.00  0.00    +0.000 OA
ATOM     22  C   UNL     1     107.136 126.639 146.169  0.00  0.00    +0.000 C 
ENDBRANCH  20  21
ENDBRANCH   6  15
BRANCH   7  23
ATOM     23  O   UNL     1     104.229 123.571 145.458  0.00  0.00    +0.000 OA
ATOM     24  C   UNL     1     104.025 122.862 145.090  0.00  0.00    +0.000 C 
ENDBRANCH   7  23
BRANCH   9  25
ATOM     25  O   UNL     1     102.678 125.369 148.438  0.00  0.00    +0.000 OA
ATOM     26  C   UNL     1     102.298 126.098 148.372  0.00  0.00    +0.000 C 
ENDBRANCH   9  25
BRANCH  11  27
ATOM     27  O   UNL     1     101.209 124.633 148.833  0.00  0.00    +0.000 OA
ATOM     28  C   UNL     1     100.712 124.123 149.249  0.00  0.00    +0.000 C 
ENDBRANCH  11  27
TORSDOF 5
ENDMDL
MODEL 10
REMARK VINA RESULT:      -7.1     12.348     13.669
REMARK  Name = 44260038
REMARK  5 active torsions:
REMARK  status: ('A' for Active; 'I' for Inactive)
REMARK    1  A    between atoms: O_2  and  C_13
REMARK    2  A    between atoms: O_3  and  C_16
REMARK    3  A    between atoms: O_4  and  C_18
REMARK    4  A    between atoms: O_7  and  C_24
REMARK    5  A    between atoms: C_12  and  C_15
REMARK                            x       y       z     vdW  Elec       q    Type
REMARK                         _______ _______ _______ _____ _____    ______ ____
ROOT
ATOM      1  O   UNL     1     110.404 127.364 136.431  0.00  0.00    +0.000 OA
ATOM      2  O   UNL     1     111.523 129.930 135.719  0.00  0.00    +0.000 OA
ATOM      3  O   UNL     1     112.371 128.787 135.952  0.00  0.00    +0.000 OA
ATOM      4  C   UNL     1     110.956 128.633 136.079  0.00  0.00    +0.000 A 
ATOM      5  C   UNL     1     110.300 128.159 136.239  0.00  0.00    +0.000 A 
ATOM      6  C   UNL     1     111.163 127.042 136.464  0.00  0.00    +0.000 A 
ATOM      7  C   UNL     1     111.819 127.516 136.304  0.00  0.00    +0.000 A 
ATOM      8  C   UNL     1     111.715 128.313 136.111  0.00  0.00    +0.000 A 
ATOM      9  C   UNL     1     109.504 128.482 136.208  0.00  0.00    +0.000 A 
ATOM     10  C   UNL     1     110.862 129.464 135.877  0.00  0.00    +0.000 A 
ATOM     11  C   UNL     1     109.390 129.310 136.009  0.00  0.00    +0.000 A 
ATOM     12  C   UNL     1     110.074 129.804 135.842  0.00  0.00    +0.000 A 
ENDROOT
BRANCH   6  15
ATOM     13  O   UNL     1     111.429 124.314 135.655  0.00  0.00    +0.000 OA
ATOM     14  O   UNL     1     111.519 124.997 138.428  0.00  0.00    +0.000 OA
ATOM     15  C   UNL     1     111.267 126.247 136.656  0.00  0.00    +0.000 A 
ATOM     16  C   UNL     1     111.341 126.020 137.446  0.00  0.00    +0.000 A 
ATOM     17  C   UNL     1     111.296 125.678 136.059  0.00  0.00    +0.000 A 
ATOM     18  C   UNL     1     111.399 124.883 136.252  0.00  0.00    +0.000 A 
ATOM     19  C   UNL     1     111.445 125.224 137.639  0.00  0.00    +0.000 A 
ATOM     20  C   UNL     1     111.474 124.656 137.041  0.00  0.00    +0.000 A 
BRANCH  20  21
ATOM     21  O   UNL     1     111.577 123.860 137.234  0.00  0.00    +0.000 OA
ATOM     22  C   UNL     1     112.316 123.504 137.137  0.00  0.00    +0.000 C 
ENDBRANCH  20  21
ENDBRANCH   6  15
BRANCH   7  23
ATOM     23  O   UNL     1     112.578 127.196 136.336  0.00  0.00    +0.000 OA
ATOM     24  C   UNL     1     113.231 127.690 136.434  0.00  0.00    +0.000 C 
ENDBRANCH   7  23
BRANCH   9  25
ATOM     25  O   UNL     1     108.855 128.000 136.370  0.00  0.00    +0.000 OA
ATOM     26  C   UNL     1     108.381 127.727 135.752  0.00  0.00    +0.000 C 
ENDBRANCH   9  25
BRANCH  11  27
ATOM     27  O   UNL     1     108.630 129.628 135.977  0.00  0.00    +0.000 OA
ATOM     28  C   UNL     1     108.525 130.446 135.994  0.00  0.00    +0.000 C 
ENDBRANCH  11  27
TORSDOF 5
ENDMDL
