MODEL 1
REMARK VINA RESULT:     -10.7      0.000      0.000
REMARK  Name = 44258936
REMARK  6 active torsions:
REMARK  status: ('A' for Active; 'I' for Inactive)
REMARK    1  A    between atoms: O_3  and  C_21
REMARK    2  A    between atoms: O_3  and  C_29
REMARK    3  A    between atoms: O_7  and  C_25
REMARK    4  A    between atoms: O_7  and  C_30
REMARK    5  A    between atoms: C_26  and  C_28
REMARK    6  A    between atoms: C_33  and  C_38
REMARK                            x       y       z     vdW  Elec       q    Type
REMARK                         _______ _______ _______ _____ _____    ______ ____
ROOT
ATOM      1  O   UNL     1     113.536 126.288 138.679  0.00  0.00    +0.000 OA
ATOM      2  O   UNL     1     111.137 125.818 138.296  0.00  0.00    +0.000 OA
ATOM      3  O   UNL     1     110.786 126.423 139.557  0.00  0.00    +0.000 OA
ATOM      4  C   UNL     1     112.496 125.751 137.860  0.00  0.00    +0.000 A 
ATOM      5  C   UNL     1     112.661 127.145 140.548  0.00  0.00    +0.000 A 
ATOM      6  C   UNL     1     112.177 126.356 139.114  0.00  0.00    +0.000 A 
ATOM      7  C   UNL     1     111.937 125.974 138.423  0.00  0.00    +0.000 A 
ATOM      8  C   UNL     1     113.296 125.907 137.988  0.00  0.00    +0.000 A 
ATOM      9  C   UNL     1     112.976 126.513 139.243  0.00  0.00    +0.000 A 
ATOM     10  C   UNL     1     113.238 126.909 139.959  0.00  0.00    +0.000 A 
ATOM     11  C   UNL     1     111.827 126.981 140.416  0.00  0.00    +0.000 A 
ATOM     12  C   UNL     1     111.584 126.584 139.693  0.00  0.00    +0.000 A 
ENDROOT
BRANCH   8  14
ATOM     13  O   UNL     1     115.535 125.010 135.737  0.00  0.00    +0.000 OA
ATOM     14  C   UNL     1     113.856 125.684 137.425  0.00  0.00    +0.000 A 
ATOM     15  C   UNL     1     114.103 124.898 137.380  0.00  0.00    +0.000 A 
ATOM     16  C   UNL     1     114.169 126.245 136.908  0.00  0.00    +0.000 A 
ATOM     17  C   UNL     1     114.663 124.673 136.816  0.00  0.00    +0.000 A 
ATOM     18  C   UNL     1     114.728 126.021 136.345  0.00  0.00    +0.000 A 
ATOM     19  C   UNL     1     114.975 125.235 136.299  0.00  0.00    +0.000 A 
ENDBRANCH   8  14
BRANCH   4  20
ATOM     20  O   UNL     1     112.256 125.369 137.169  0.00  0.00    +0.000 OA
BRANCH  20  29
ATOM     21  O   UNL     1     111.748 126.567 136.578  0.00  0.00    +0.000 OA
ATOM     22  O   UNL     1     110.155 125.229 135.237  0.00  0.00    +0.000 OA
ATOM     23  O   UNL     1     110.178 126.872 135.092  0.00  0.00    +0.000 OA
ATOM     24  O   UNL     1     111.194 124.477 136.275  0.00  0.00    +0.000 OA
ATOM     25  C   UNL     1     110.686 125.675 135.684  0.00  0.00    +0.000 C 
ATOM     26  C   UNL     1     110.697 126.496 135.611  0.00  0.00    +0.000 C 
ATOM     27  C   UNL     1     111.206 125.298 136.203  0.00  0.00    +0.000 C 
ATOM     28  C   UNL     1     111.228 126.942 136.058  0.00  0.00    +0.000 C 
ATOM     29  C   UNL     1     111.737 125.745 136.650  0.00  0.00    +0.000 C 
ATOM     30  C   UNL     1     111.240 127.764 135.986  0.00  0.00    +0.000 C 
ENDBRANCH  20  29
ENDBRANCH   4  20
BRANCH   5  31
ATOM     31  O   UNL     1     112.904 127.526 141.239  0.00  0.00    +0.000 OA
BRANCH  31  39
ATOM     32  O   UNL     1     113.191 128.818 140.701  0.00  0.00    +0.000 OA
ATOM     33  O   UNL     1     112.075 129.874 142.642  0.00  0.00    +0.000 OA
ATOM     34  O   UNL     1     112.160 128.230 142.532  0.00  0.00    +0.000 OA
ATOM     35  O   UNL     1     112.734 130.815 141.458  0.00  0.00    +0.000 OA
ATOM     36  C   UNL     1     112.447 129.522 141.995  0.00  0.00    +0.000 C 
ATOM     37  C   UNL     1     112.489 128.700 141.941  0.00  0.00    +0.000 C 
ATOM     38  C   UNL     1     112.777 129.992 141.403  0.00  0.00    +0.000 C 
ATOM     39  C   UNL     1     112.861 128.348 141.294  0.00  0.00    +0.000 C 
ATOM     40  C   UNL     1     113.149 129.640 140.756  0.00  0.00    +0.000 C 
BRANCH  40  43
ATOM     41  O   UNL     1     112.998 130.425 139.571  0.00  0.00    +0.000 OA
ATOM     42  O   UNL     1     114.288 130.267 140.165  0.00  0.00    +0.000 OA
ATOM     43  C   UNL     1     113.478 130.111 140.164  0.00  0.00    +0.000 C 
ENDBRANCH  40  43
ENDBRANCH  31  39
ENDBRANCH   5  31
TORSDOF 6
ENDMDL
MODEL 2
REMARK VINA RESULT:     -10.5      1.357      2.737
REMARK  Name = 44258936
REMARK  6 active torsions:
REMARK  status: ('A' for Active; 'I' for Inactive)
REMARK    1  A    between atoms: O_3  and  C_21
REMARK    2  A    between atoms: O_3  and  C_29
REMARK    3  A    between atoms: O_7  and  C_25
REMARK    4  A    between atoms: O_7  and  C_30
REMARK    5  A    between atoms: C_26  and  C_28
REMARK    6  A    between atoms: C_33  and  C_38
REMARK                            x       y       z     vdW  Elec       q    Type
REMARK                         _______ _______ _______ _____ _____    ______ ____
ROOT
ATOM      1  O   UNL     1     113.104 128.511 138.113  0.00  0.00    +0.000 OA
ATOM      2  O   UNL     1     112.431 126.237 138.822  0.00  0.00    +0.000 OA
ATOM      3  O   UNL     1     113.076 126.413 140.101  0.00  0.00    +0.000 OA
ATOM      4  C   UNL     1     112.444 127.273 137.839  0.00  0.00    +0.000 A 
ATOM      5  C   UNL     1     113.992 128.456 140.163  0.00  0.00    +0.000 A 
ATOM      6  C   UNL     1     113.091 127.474 139.096  0.00  0.00    +0.000 A 
ATOM      7  C   UNL     1     112.655 126.995 138.585  0.00  0.00    +0.000 A 
ATOM      8  C   UNL     1     112.668 128.031 137.602  0.00  0.00    +0.000 A 
ATOM      9  C   UNL     1     113.315 128.232 138.861  0.00  0.00    +0.000 A 
ATOM     10  C   UNL     1     113.769 128.740 139.384  0.00  0.00    +0.000 A 
ATOM     11  C   UNL     1     113.759 127.666 140.410  0.00  0.00    +0.000 A 
ATOM     12  C   UNL     1     113.305 127.172 139.872  0.00  0.00    +0.000 A 
ENDROOT
BRANCH   8  14
ATOM     13  O   UNL     1     111.824 129.147 134.614  0.00  0.00    +0.000 OA
ATOM     14  C   UNL     1     112.457 128.310 136.856  0.00  0.00    +0.000 A 
ATOM     15  C   UNL     1     113.025 128.363 136.260  0.00  0.00    +0.000 A 
ATOM     16  C   UNL     1     111.678 128.536 136.704  0.00  0.00    +0.000 A 
ATOM     17  C   UNL     1     112.814 128.642 135.512  0.00  0.00    +0.000 A 
ATOM     18  C   UNL     1     111.467 128.815 135.957  0.00  0.00    +0.000 A 
ATOM     19  C   UNL     1     112.035 128.868 135.361  0.00  0.00    +0.000 A 
ENDBRANCH   8  14
BRANCH   4  20
ATOM     20  O   UNL     1     112.008 126.794 137.328  0.00  0.00    +0.000 OA
BRANCH  20  29
ATOM     21  O   UNL     1     113.121 125.966 136.985  0.00  0.00    +0.000 OA
ATOM     22  O   UNL     1     111.586 124.066 136.588  0.00  0.00    +0.000 OA
ATOM     23  O   UNL     1     113.211 123.872 136.378  0.00  0.00    +0.000 OA
ATOM     24  O   UNL     1     110.985 125.527 137.063  0.00  0.00    +0.000 OA
ATOM     25  C   UNL     1     112.098 124.699 136.721  0.00  0.00    +0.000 C 
ATOM     26  C   UNL     1     112.910 124.602 136.616  0.00  0.00    +0.000 C 
ATOM     27  C   UNL     1     111.796 125.430 136.958  0.00  0.00    +0.000 C 
ATOM     28  C   UNL     1     113.421 125.236 136.748  0.00  0.00    +0.000 C 
ATOM     29  C   UNL     1     112.308 126.063 137.090  0.00  0.00    +0.000 C 
ATOM     30  C   UNL     1     114.235 125.138 136.643  0.00  0.00    +0.000 C 
ENDBRANCH  20  29
ENDBRANCH   4  20
BRANCH   5  31
ATOM     31  O   UNL     1     114.428 128.937 140.672  0.00  0.00    +0.000 OA
BRANCH  31  39
ATOM     32  O   UNL     1     113.322 129.487 141.391  0.00  0.00    +0.000 OA
ATOM     33  O   UNL     1     114.466 131.680 141.476  0.00  0.00    +0.000 OA
ATOM     34  O   UNL     1     115.190 130.399 140.728  0.00  0.00    +0.000 OA
ATOM     35  O   UNL     1     112.979 131.499 142.167  0.00  0.00    +0.000 OA
ATOM     36  C   UNL     1     114.085 130.949 141.448  0.00  0.00    +0.000 C 
ATOM     37  C   UNL     1     114.447 130.309 141.074  0.00  0.00    +0.000 C 
ATOM     38  C   UNL     1     113.341 130.858 141.793  0.00  0.00    +0.000 C 
ATOM     39  C   UNL     1     114.066 129.578 141.046  0.00  0.00    +0.000 C 
ATOM     40  C   UNL     1     112.960 130.127 141.765  0.00  0.00    +0.000 C 
BRANCH  40  43
ATOM     41  O   UNL     1     112.151 129.750 142.881  0.00  0.00    +0.000 OA
ATOM     42  O   UNL     1     111.538 130.233 141.685  0.00  0.00    +0.000 OA
ATOM     43  C   UNL     1     112.217 130.037 142.110  0.00  0.00    +0.000 C 
ENDBRANCH  40  43
ENDBRANCH  31  39
ENDBRANCH   5  31
TORSDOF 6
ENDMDL
MODEL 3
REMARK VINA RESULT:     -10.4      7.071      9.477
REMARK  Name = 44258936
REMARK  6 active torsions:
REMARK  status: ('A' for Active; 'I' for Inactive)
REMARK    1  A    between atoms: O_3  and  C_21
REMARK    2  A    between atoms: O_3  and  C_29
REMARK    3  A    between atoms: O_7  and  C_25
REMARK    4  A    between atoms: O_7  and  C_30
REMARK    5  A    between atoms: C_26  and  C_28
REMARK    6  A    between atoms: C_33  and  C_38
REMARK                            x       y       z     vdW  Elec       q    Type
REMARK                         _______ _______ _______ _____ _____    ______ ____
ROOT
ATOM      1  O   UNL     1     105.000 127.569 142.678  0.00  0.00    +0.000 OA
ATOM      2  O   UNL     1     107.280 128.252 142.000  0.00  0.00    +0.000 OA
ATOM      3  O   UNL     1     107.824 126.997 142.460  0.00  0.00    +0.000 OA
ATOM      4  C   UNL     1     105.884 128.535 142.108  0.00  0.00    +0.000 A 
ATOM      5  C   UNL     1     106.153 125.753 143.283  0.00  0.00    +0.000 A 
ATOM      6  C   UNL     1     106.396 127.285 142.571  0.00  0.00    +0.000 A 
ATOM      7  C   UNL     1     106.520 128.024 142.226  0.00  0.00    +0.000 A 
ATOM      8  C   UNL     1     105.124 128.308 142.334  0.00  0.00    +0.000 A 
ATOM      9  C   UNL     1     105.637 127.057 142.797  0.00  0.00    +0.000 A 
ATOM     10  C   UNL     1     105.495 126.290 143.157  0.00  0.00    +0.000 A 
ATOM     11  C   UNL     1     106.946 125.990 143.048  0.00  0.00    +0.000 A 
ATOM     12  C   UNL     1     107.068 126.762 142.689  0.00  0.00    +0.000 A 
ENDROOT
BRANCH   8  14
ATOM     13  O   UNL     1     102.578 130.353 141.859  0.00  0.00    +0.000 OA
ATOM     14  C   UNL     1     104.488 128.819 142.215  0.00  0.00    +0.000 A 
ATOM     15  C   UNL     1     104.154 128.895 141.465  0.00  0.00    +0.000 A 
ATOM     16  C   UNL     1     104.184 129.255 142.847  0.00  0.00    +0.000 A 
ATOM     17  C   UNL     1     103.517 129.407 141.346  0.00  0.00    +0.000 A 
ATOM     18  C   UNL     1     103.548 129.766 142.729  0.00  0.00    +0.000 A 
ATOM     19  C   UNL     1     103.215 129.842 141.978  0.00  0.00    +0.000 A 
ENDBRANCH   8  14
BRANCH   4  20
ATOM     20  O   UNL     1     106.008 129.275 141.763  0.00  0.00    +0.000 OA
BRANCH  20  29
ATOM     21  O   UNL     1     106.575 129.867 142.933  0.00  0.00    +0.000 OA
ATOM     22  O   UNL     1     108.005 131.304 141.512  0.00  0.00    +0.000 OA
ATOM     23  O   UNL     1     108.096 131.417 143.156  0.00  0.00    +0.000 OA
ATOM     24  O   UNL     1     106.961 130.232 140.816  0.00  0.00    +0.000 OA
ATOM     25  C   UNL     1     107.528 130.825 141.986  0.00  0.00    +0.000 C 
ATOM     26  C   UNL     1     107.574 130.882 142.807  0.00  0.00    +0.000 C 
ATOM     27  C   UNL     1     107.006 130.289 141.637  0.00  0.00    +0.000 C 
ATOM     28  C   UNL     1     107.097 130.403 143.280  0.00  0.00    +0.000 C 
ATOM     29  C   UNL     1     106.530 129.810 142.110  0.00  0.00    +0.000 C 
ATOM     30  C   UNL     1     107.143 130.459 144.103  0.00  0.00    +0.000 C 
ENDBRANCH  20  29
ENDBRANCH   4  20
BRANCH   5  31
ATOM     31  O   UNL     1     106.027 125.014 143.628  0.00  0.00    +0.000 OA
BRANCH  31  39
ATOM     32  O   UNL     1     106.391 125.381 144.960  0.00  0.00    +0.000 OA
ATOM     33  O   UNL     1     104.607 123.915 145.853  0.00  0.00    +0.000 OA
ATOM     34  O   UNL     1     104.838 124.037 144.223  0.00  0.00    +0.000 OA
ATOM     35  O   UNL     1     105.566 124.771 146.888  0.00  0.00    +0.000 OA
ATOM     36  C   UNL     1     105.202 124.404 145.555  0.00  0.00    +0.000 C 
ATOM     37  C   UNL     1     105.317 124.465 144.741  0.00  0.00    +0.000 C 
ATOM     38  C   UNL     1     105.682 124.832 146.073  0.00  0.00    +0.000 C 
ATOM     39  C   UNL     1     105.911 124.953 144.443  0.00  0.00    +0.000 C 
ATOM     40  C   UNL     1     106.276 125.320 145.775  0.00  0.00    +0.000 C 
BRANCH  40  43
ATOM     41  O   UNL     1     106.519 126.494 146.554  0.00  0.00    +0.000 OA
ATOM     42  O   UNL     1     107.471 125.429 146.550  0.00  0.00    +0.000 OA
ATOM     43  C   UNL     1     106.755 125.748 146.293  0.00  0.00    +0.000 C 
ENDBRANCH  40  43
ENDBRANCH  31  39
ENDBRANCH   5  31
TORSDOF 6
ENDMDL
MODEL 4
REMARK VINA RESULT:     -10.3      1.625      5.910
REMARK  Name = 44258936
REMARK  6 active torsions:
REMARK  status: ('A' for Active; 'I' for Inactive)
REMARK    1  A    between atoms: O_3  and  C_21
REMARK    2  A    between atoms: O_3  and  C_29
REMARK    3  A    between atoms: O_7  and  C_25
REMARK    4  A    between atoms: O_7  and  C_30
REMARK    5  A    between atoms: C_26  and  C_28
REMARK    6  A    between atoms: C_33  and  C_38
REMARK                            x       y       z     vdW  Elec       q    Type
REMARK                         _______ _______ _______ _____ _____    ______ ____
ROOT
ATOM      1  O   UNL     1     112.543 128.560 138.299  0.00  0.00    +0.000 OA
ATOM      2  O   UNL     1     114.111 128.631 140.212  0.00  0.00    +0.000 OA
ATOM      3  O   UNL     1     113.955 127.213 140.430  0.00  0.00    +0.000 OA
ATOM      4  C   UNL     1     113.413 129.297 139.158  0.00  0.00    +0.000 A 
ATOM      5  C   UNL     1     112.527 126.409 138.904  0.00  0.00    +0.000 A 
ATOM      6  C   UNL     1     113.241 127.893 139.353  0.00  0.00    +0.000 A 
ATOM      7  C   UNL     1     113.588 128.608 139.574  0.00  0.00    +0.000 A 
ATOM      8  C   UNL     1     112.890 129.274 138.520  0.00  0.00    +0.000 A 
ATOM      9  C   UNL     1     112.718 127.868 138.715  0.00  0.00    +0.000 A 
ATOM     10  C   UNL     1     112.349 127.131 138.475  0.00  0.00    +0.000 A 
ATOM     11  C   UNL     1     113.072 126.433 139.568  0.00  0.00    +0.000 A 
ATOM     12  C   UNL     1     113.431 127.181 139.794  0.00  0.00    +0.000 A 
ENDROOT
BRANCH   8  14
ATOM     13  O   UNL     1     112.189 132.035 136.856  0.00  0.00    +0.000 OA
ATOM     14  C   UNL     1     112.715 129.964 138.104  0.00  0.00    +0.000 A 
ATOM     15  C   UNL     1     111.983 130.331 138.203  0.00  0.00    +0.000 A 
ATOM     16  C   UNL     1     113.272 130.289 137.589  0.00  0.00    +0.000 A 
ATOM     17  C   UNL     1     111.807 131.022 137.787  0.00  0.00    +0.000 A 
ATOM     18  C   UNL     1     113.097 130.979 137.173  0.00  0.00    +0.000 A 
ATOM     19  C   UNL     1     112.365 131.345 137.272  0.00  0.00    +0.000 A 
ENDBRANCH   8  14
BRANCH   4  20
ATOM     20  O   UNL     1     113.761 130.012 139.380  0.00  0.00    +0.000 OA
BRANCH  20  29
ATOM     21  O   UNL     1     112.925 130.181 140.526  0.00  0.00    +0.000 OA
ATOM     22  O   UNL     1     114.718 131.468 141.645  0.00  0.00    +0.000 OA
ATOM     23  O   UNL     1     113.283 131.208 142.418  0.00  0.00    +0.000 OA
ATOM     24  O   UNL     1     114.957 130.870 140.126  0.00  0.00    +0.000 OA
ATOM     25  C   UNL     1     114.120 131.039 141.272  0.00  0.00    +0.000 C 
ATOM     26  C   UNL     1     113.404 130.909 141.659  0.00  0.00    +0.000 C 
ATOM     27  C   UNL     1     114.240 130.740 140.512  0.00  0.00    +0.000 C 
ATOM     28  C   UNL     1     112.806 130.480 141.285  0.00  0.00    +0.000 C 
ATOM     29  C   UNL     1     113.642 130.311 140.139  0.00  0.00    +0.000 C 
ATOM     30  C   UNL     1     112.088 130.350 141.672  0.00  0.00    +0.000 C 
ENDBRANCH  20  29
ENDBRANCH   4  20
BRANCH   5  31
ATOM     31  O   UNL     1     112.178 125.696 138.680  0.00  0.00    +0.000 OA
BRANCH  31  39
ATOM     32  O   UNL     1     113.289 125.279 137.884  0.00  0.00    +0.000 OA
ATOM     33  O   UNL     1     111.762 123.984 136.428  0.00  0.00    +0.000 OA
ATOM     34  O   UNL     1     111.160 124.833 137.709  0.00  0.00    +0.000 OA
ATOM     35  O   UNL     1     113.382 123.999 136.117  0.00  0.00    +0.000 OA
ATOM     36  C   UNL     1     112.271 124.416 136.913  0.00  0.00    +0.000 C 
ATOM     37  C   UNL     1     111.970 124.840 137.554  0.00  0.00    +0.000 C 
ATOM     38  C   UNL     1     113.081 124.423 136.758  0.00  0.00    +0.000 C 
ATOM     39  C   UNL     1     112.479 125.271 138.039  0.00  0.00    +0.000 C 
ATOM     40  C   UNL     1     113.590 124.855 137.243  0.00  0.00    +0.000 C 
BRANCH  40  43
ATOM     41  O   UNL     1     114.710 125.391 136.535  0.00  0.00    +0.000 OA
ATOM     42  O   UNL     1     114.900 124.340 137.484  0.00  0.00    +0.000 OA
ATOM     43  C   UNL     1     114.400 124.862 137.087  0.00  0.00    +0.000 C 
ENDBRANCH  40  43
ENDBRANCH  31  39
ENDBRANCH   5  31
TORSDOF 6
ENDMDL
MODEL 5
REMARK VINA RESULT:     -10.2      2.418      4.449
REMARK  Name = 44258936
REMARK  6 active torsions:
REMARK  status: ('A' for Active; 'I' for Inactive)
REMARK    1  A    between atoms: O_3  and  C_21
REMARK    2  A    between atoms: O_3  and  C_29
REMARK    3  A    between atoms: O_7  and  C_25
REMARK    4  A    between atoms: O_7  and  C_30
REMARK    5  A    between atoms: C_26  and  C_28
REMARK    6  A    between atoms: C_33  and  C_38
REMARK                            x       y       z     vdW  Elec       q    Type
REMARK                         _______ _______ _______ _____ _____    ______ ____
ROOT
ATOM      1  O   UNL     1     112.235 128.386 138.373  0.00  0.00    +0.000 OA
ATOM      2  O   UNL     1     113.311 127.085 136.563  0.00  0.00    +0.000 OA
ATOM      3  O   UNL     1     113.303 128.235 135.692  0.00  0.00    +0.000 OA
ATOM      4  C   UNL     1     112.784 127.158 137.889  0.00  0.00    +0.000 A 
ATOM      5  C   UNL     1     112.375 129.954 136.788  0.00  0.00    +0.000 A 
ATOM      6  C   UNL     1     112.763 128.312 137.047  0.00  0.00    +0.000 A 
ATOM      7  C   UNL     1     112.953 127.518 137.167  0.00  0.00    +0.000 A 
ATOM      8  C   UNL     1     112.425 127.592 138.493  0.00  0.00    +0.000 A 
ATOM      9  C   UNL     1     112.404 128.746 137.650  0.00  0.00    +0.000 A 
ATOM     10  C   UNL     1     112.202 129.574 137.537  0.00  0.00    +0.000 A 
ATOM     11  C   UNL     1     112.749 129.503 136.158  0.00  0.00    +0.000 A 
ATOM     12  C   UNL     1     112.944 128.675 136.290  0.00  0.00    +0.000 A 
ENDROOT
BRANCH   8  14
ATOM     13  O   UNL     1     111.748 126.153 141.383  0.00  0.00    +0.000 OA
ATOM     14  C   UNL     1     112.256 127.232 139.215  0.00  0.00    +0.000 A 
ATOM     15  C   UNL     1     111.478 127.033 139.405  0.00  0.00    +0.000 A 
ATOM     16  C   UNL     1     112.864 127.071 139.749  0.00  0.00    +0.000 A 
ATOM     17  C   UNL     1     111.309 126.673 140.128  0.00  0.00    +0.000 A 
ATOM     18  C   UNL     1     112.695 126.711 140.471  0.00  0.00    +0.000 A 
ATOM     19  C   UNL     1     111.918 126.513 140.661  0.00  0.00    +0.000 A 
ENDBRANCH   8  14
BRANCH   4  20
ATOM     20  O   UNL     1     112.973 126.365 138.009  0.00  0.00    +0.000 OA
BRANCH  20  29
ATOM     21  O   UNL     1     111.892 125.883 137.208  0.00  0.00    +0.000 OA
ATOM     22  O   UNL     1     113.194 123.848 136.673  0.00  0.00    +0.000 OA
ATOM     23  O   UNL     1     111.679 124.045 136.050  0.00  0.00    +0.000 OA
ATOM     24  O   UNL     1     113.841 125.007 137.653  0.00  0.00    +0.000 OA
ATOM     25  C   UNL     1     112.760 124.526 136.852  0.00  0.00    +0.000 C 
ATOM     26  C   UNL     1     112.003 124.625 136.540  0.00  0.00    +0.000 C 
ATOM     27  C   UNL     1     113.085 125.106 137.341  0.00  0.00    +0.000 C 
ATOM     28  C   UNL     1     111.569 125.303 136.718  0.00  0.00    +0.000 C 
ATOM     29  C   UNL     1     112.650 125.784 137.520  0.00  0.00    +0.000 C 
ATOM     30  C   UNL     1     110.811 125.402 136.407  0.00  0.00    +0.000 C 
ENDBRANCH  20  29
ENDBRANCH   4  20
BRANCH   5  31
ATOM     31  O   UNL     1     112.184 130.748 136.671  0.00  0.00    +0.000 OA
BRANCH  31  39
ATOM     32  O   UNL     1     110.918 130.527 136.046  0.00  0.00    +0.000 OA
ATOM     33  O   UNL     1     110.005 132.525 137.188  0.00  0.00    +0.000 OA
ATOM     34  O   UNL     1     111.576 132.080 137.432  0.00  0.00    +0.000 OA
ATOM     35  O   UNL     1     109.043 131.638 136.183  0.00  0.00    +0.000 OA
ATOM     36  C   UNL     1     110.310 131.859 136.807  0.00  0.00    +0.000 C 
ATOM     37  C   UNL     1     111.095 131.637 136.929  0.00  0.00    +0.000 C 
ATOM     38  C   UNL     1     109.829 131.415 136.305  0.00  0.00    +0.000 C 
ATOM     39  C   UNL     1     111.399 130.971 136.549  0.00  0.00    +0.000 C 
ATOM     40  C   UNL     1     110.133 130.749 135.924  0.00  0.00    +0.000 C 
BRANCH  40  43
ATOM     41  O   UNL     1     109.641 130.466 134.613  0.00  0.00    +0.000 OA
ATOM     42  O   UNL     1     109.181 129.703 135.730  0.00  0.00    +0.000 OA
ATOM     43  C   UNL     1     109.652 130.306 135.422  0.00  0.00    +0.000 C 
ENDBRANCH  40  43
ENDBRANCH  31  39
ENDBRANCH   5  31
TORSDOF 6
ENDMDL
MODEL 6
REMARK VINA RESULT:     -10.0      2.711      5.094
REMARK  Name = 44258936
REMARK  6 active torsions:
REMARK  status: ('A' for Active; 'I' for Inactive)
REMARK    1  A    between atoms: O_3  and  C_21
REMARK    2  A    between atoms: O_3  and  C_29
REMARK    3  A    between atoms: O_7  and  C_25
REMARK    4  A    between atoms: O_7  and  C_30
REMARK    5  A    between atoms: C_26  and  C_28
REMARK    6  A    between atoms: C_33  and  C_38
REMARK                            x       y       z     vdW  Elec       q    Type
REMARK                         _______ _______ _______ _____ _____    ______ ____
ROOT
ATOM      1  O   UNL     1     113.581 128.791 137.225  0.00  0.00    +0.000 OA
ATOM      2  O   UNL     1     111.352 129.569 137.967  0.00  0.00    +0.000 OA
ATOM      3  O   UNL     1     111.128 128.337 138.683  0.00  0.00    +0.000 OA
ATOM      4  C   UNL     1     112.564 129.795 137.245  0.00  0.00    +0.000 A 
ATOM      5  C   UNL     1     112.923 127.023 138.422  0.00  0.00    +0.000 A 
ATOM      6  C   UNL     1     112.368 128.566 137.946  0.00  0.00    +0.000 A 
ATOM      7  C   UNL     1     112.095 129.310 137.719  0.00  0.00    +0.000 A 
ATOM      8  C   UNL     1     113.308 129.536 136.998  0.00  0.00    +0.000 A 
ATOM      9  C   UNL     1     113.111 128.306 137.699  0.00  0.00    +0.000 A 
ATOM     10  C   UNL     1     113.407 127.533 137.929  0.00  0.00    +0.000 A 
ATOM     11  C   UNL     1     112.149 127.293 138.680  0.00  0.00    +0.000 A 
ATOM     12  C   UNL     1     111.870 128.070 138.440  0.00  0.00    +0.000 A 
ENDROOT
BRANCH   8  14
ATOM     13  O   UNL     1     115.187 131.476 135.102  0.00  0.00    +0.000 OA
ATOM     14  C   UNL     1     113.777 130.020 136.524  0.00  0.00    +0.000 A 
ATOM     15  C   UNL     1     114.131 130.693 136.845  0.00  0.00    +0.000 A 
ATOM     16  C   UNL     1     113.893 129.833 135.729  0.00  0.00    +0.000 A 
ATOM     17  C   UNL     1     114.601 131.178 136.370  0.00  0.00    +0.000 A 
ATOM     18  C   UNL     1     114.363 130.318 135.255  0.00  0.00    +0.000 A 
ATOM     19  C   UNL     1     114.717 130.990 135.576  0.00  0.00    +0.000 A 
ENDBRANCH   8  14
BRANCH   4  20
ATOM     20  O   UNL     1     112.291 130.539 137.018  0.00  0.00    +0.000 OA
BRANCH  20  29
ATOM     21  O   UNL     1     111.375 130.038 136.043  0.00  0.00    +0.000 OA
ATOM     22  O   UNL     1     109.875 131.962 136.461  0.00  0.00    +0.000 OA
ATOM     23  O   UNL     1     109.460 130.819 135.346  0.00  0.00    +0.000 OA
ATOM     24  O   UNL     1     111.291 131.822 137.297  0.00  0.00    +0.000 OA
ATOM     25  C   UNL     1     110.375 131.320 136.322  0.00  0.00    +0.000 C 
ATOM     26  C   UNL     1     110.167 130.749 135.765  0.00  0.00    +0.000 C 
ATOM     27  C   UNL     1     111.083 131.251 136.740  0.00  0.00    +0.000 C 
ATOM     28  C   UNL     1     110.667 130.108 135.625  0.00  0.00    +0.000 C 
ATOM     29  C   UNL     1     111.583 130.610 136.601  0.00  0.00    +0.000 C 
ATOM     30  C   UNL     1     110.459 129.536 135.067  0.00  0.00    +0.000 C 
ENDBRANCH  20  29
ENDBRANCH   4  20
BRANCH   5  31
ATOM     31  O   UNL     1     113.199 126.279 138.648  0.00  0.00    +0.000 OA
BRANCH  31  39
ATOM     32  O   UNL     1     112.569 125.434 137.683  0.00  0.00    +0.000 OA
ATOM     33  O   UNL     1     114.733 124.314 137.249  0.00  0.00    +0.000 OA
ATOM     34  O   UNL     1     114.642 125.532 138.359  0.00  0.00    +0.000 OA
ATOM     35  O   UNL     1     113.381 123.842 136.429  0.00  0.00    +0.000 OA
ATOM     36  C   UNL     1     114.011 124.687 137.394  0.00  0.00    +0.000 C 
ATOM     37  C   UNL     1     113.966 125.296 137.948  0.00  0.00    +0.000 C 
ATOM     38  C   UNL     1     113.335 124.452 136.984  0.00  0.00    +0.000 C 
ATOM     39  C   UNL     1     113.245 125.670 138.093  0.00  0.00    +0.000 C 
ATOM     40  C   UNL     1     112.614 124.825 137.128  0.00  0.00    +0.000 C 
BRANCH  40  43
ATOM     41  O   UNL     1     111.737 124.958 136.008  0.00  0.00    +0.000 OA
ATOM     42  O   UNL     1     111.465 123.984 137.018  0.00  0.00    +0.000 OA
ATOM     43  C   UNL     1     111.939 124.589 136.718  0.00  0.00    +0.000 C 
ENDBRANCH  40  43
ENDBRANCH  31  39
ENDBRANCH   5  31
TORSDOF 6
ENDMDL
MODEL 7
REMARK VINA RESULT:     -10.0      3.066      5.106
REMARK  Name = 44258936
REMARK  6 active torsions:
REMARK  status: ('A' for Active; 'I' for Inactive)
REMARK    1  A    between atoms: O_3  and  C_21
REMARK    2  A    between atoms: O_3  and  C_29
REMARK    3  A    between atoms: O_7  and  C_25
REMARK    4  A    between atoms: O_7  and  C_30
REMARK    5  A    between atoms: C_26  and  C_28
REMARK    6  A    between atoms: C_33  and  C_38
REMARK                            x       y       z     vdW  Elec       q    Type
REMARK                         _______ _______ _______ _____ _____    ______ ____
ROOT
ATOM      1  O   UNL     1     112.033 129.450 135.503  0.00  0.00    +0.000 OA
ATOM      2  O   UNL     1     111.770 127.074 136.145  0.00  0.00    +0.000 OA
ATOM      3  O   UNL     1     110.335 127.173 136.034  0.00  0.00    +0.000 OA
ATOM      4  C   UNL     1     112.611 128.200 135.883  0.00  0.00    +0.000 A 
ATOM      5  C   UNL     1     109.808 129.263 135.425  0.00  0.00    +0.000 A 
ATOM      6  C   UNL     1     111.193 128.325 135.765  0.00  0.00    +0.000 A 
ATOM      7  C   UNL     1     111.858 127.866 135.931  0.00  0.00    +0.000 A 
ATOM      8  C   UNL     1     112.699 128.992 135.669  0.00  0.00    +0.000 A 
ATOM      9  C   UNL     1     111.280 129.117 135.551  0.00  0.00    +0.000 A 
ATOM     10  C   UNL     1     110.594 129.604 135.376  0.00  0.00    +0.000 A 
ATOM     11  C   UNL     1     109.716 128.438 135.648  0.00  0.00    +0.000 A 
ATOM     12  C   UNL     1     110.414 127.965 135.819  0.00  0.00    +0.000 A 
ENDROOT
BRANCH   8  14
ATOM     13  O   UNL     1     115.710 130.326 135.476  0.00  0.00    +0.000 OA
ATOM     14  C   UNL     1     113.451 129.325 135.620  0.00  0.00    +0.000 A 
ATOM     15  C   UNL     1     113.712 129.842 136.208  0.00  0.00    +0.000 A 
ATOM     16  C   UNL     1     113.944 129.142 134.984  0.00  0.00    +0.000 A 
ATOM     17  C   UNL     1     114.466 130.176 136.160  0.00  0.00    +0.000 A 
ATOM     18  C   UNL     1     114.697 129.476 134.936  0.00  0.00    +0.000 A 
ATOM     19  C   UNL     1     114.957 129.992 135.524  0.00  0.00    +0.000 A 
ENDBRANCH   8  14
BRANCH   4  20
ATOM     20  O   UNL     1     113.276 127.741 136.048  0.00  0.00    +0.000 OA
BRANCH  20  29
ATOM     21  O   UNL     1     113.072 127.748 137.463  0.00  0.00    +0.000 OA
ATOM     22  O   UNL     1     114.134 125.518 137.626  0.00  0.00    +0.000 OA
ATOM     23  O   UNL     1     113.576 126.268 138.986  0.00  0.00    +0.000 OA
ATOM     24  O   UNL     1     113.984 126.255 136.158  0.00  0.00    +0.000 OA
ATOM     25  C   UNL     1     113.780 126.261 137.572  0.00  0.00    +0.000 C 
ATOM     26  C   UNL     1     113.501 126.636 138.251  0.00  0.00    +0.000 C 
ATOM     27  C   UNL     1     113.705 126.629 136.837  0.00  0.00    +0.000 C 
ATOM     28  C   UNL     1     113.147 127.379 138.197  0.00  0.00    +0.000 C 
ATOM     29  C   UNL     1     113.351 127.372 136.782  0.00  0.00    +0.000 C 
ATOM     30  C   UNL     1     112.868 127.754 138.877  0.00  0.00    +0.000 C 
ENDBRANCH  20  29
ENDBRANCH   4  20
BRANCH   5  31
ATOM     31  O   UNL     1     109.144 129.724 135.258  0.00  0.00    +0.000 OA
BRANCH  31  39
ATOM     32  O   UNL     1     109.061 130.180 136.610  0.00  0.00    +0.000 OA
ATOM     33  O   UNL     1     107.683 132.102 135.878  0.00  0.00    +0.000 OA
ATOM     34  O   UNL     1     108.226 131.005 134.770  0.00  0.00    +0.000 OA
ATOM     35  O   UNL     1     108.060 131.918 137.473  0.00  0.00    +0.000 OA
ATOM     36  C   UNL     1     108.143 131.461 136.122  0.00  0.00    +0.000 C 
ATOM     37  C   UNL     1     108.414 130.913 135.568  0.00  0.00    +0.000 C 
ATOM     38  C   UNL     1     108.331 131.369 136.920  0.00  0.00    +0.000 C 
ATOM     39  C   UNL     1     108.873 130.273 135.812  0.00  0.00    +0.000 C 
ATOM     40  C   UNL     1     108.790 130.728 137.164  0.00  0.00    +0.000 C 
BRANCH  40  43
ATOM     41  O   UNL     1     108.523 130.142 138.439  0.00  0.00    +0.000 OA
ATOM     42  O   UNL     1     109.622 131.041 138.282  0.00  0.00    +0.000 OA
ATOM     43  C   UNL     1     108.978 130.637 137.961  0.00  0.00    +0.000 C 
ENDBRANCH  40  43
ENDBRANCH  31  39
ENDBRANCH   5  31
TORSDOF 6
ENDMDL
MODEL 8
REMARK VINA RESULT:     -10.0      2.791      5.051
REMARK  Name = 44258936
REMARK  6 active torsions:
REMARK  status: ('A' for Active; 'I' for Inactive)
REMARK    1  A    between atoms: O_3  and  C_21
REMARK    2  A    between atoms: O_3  and  C_29
REMARK    3  A    between atoms: O_7  and  C_25
REMARK    4  A    between atoms: O_7  and  C_30
REMARK    5  A    between atoms: C_26  and  C_28
REMARK    6  A    between atoms: C_33  and  C_38
REMARK                            x       y       z     vdW  Elec       q    Type
REMARK                         _______ _______ _______ _____ _____    ______ ____
ROOT
ATOM      1  O   UNL     1     111.256 128.053 136.447  0.00  0.00    +0.000 OA
ATOM      2  O   UNL     1     112.643 128.715 138.387  0.00  0.00    +0.000 OA
ATOM      3  O   UNL     1     112.346 130.109 138.161  0.00  0.00    +0.000 OA
ATOM      4  C   UNL     1     112.105 127.698 137.540  0.00  0.00    +0.000 A 
ATOM      5  C   UNL     1     110.999 130.271 136.379  0.00  0.00    +0.000 A 
ATOM      6  C   UNL     1     111.794 129.070 137.294  0.00  0.00    +0.000 A 
ATOM      7  C   UNL     1     112.181 128.494 137.741  0.00  0.00    +0.000 A 
ATOM      8  C   UNL     1     111.642 127.477 136.894  0.00  0.00    +0.000 A 
ATOM      9  C   UNL     1     111.332 128.850 136.648  0.00  0.00    +0.000 A 
ATOM     10  C   UNL     1     110.924 129.441 136.175  0.00  0.00    +0.000 A 
ATOM     11  C   UNL     1     111.481 130.502 137.052  0.00  0.00    +0.000 A 
ATOM     12  C   UNL     1     111.881 129.897 137.513  0.00  0.00    +0.000 A 
ENDROOT
BRANCH   8  14
ATOM     13  O   UNL     1     111.339 124.291 136.092  0.00  0.00    +0.000 OA
ATOM     14  C   UNL     1     111.566 126.681 136.693  0.00  0.00    +0.000 A 
ATOM     15  C   UNL     1     112.200 126.279 136.351  0.00  0.00    +0.000 A 
ATOM     16  C   UNL     1     110.856 126.285 136.835  0.00  0.00    +0.000 A 
ATOM     17  C   UNL     1     112.124 125.482 136.150  0.00  0.00    +0.000 A 
ATOM     18  C   UNL     1     110.780 125.489 136.635  0.00  0.00    +0.000 A 
ATOM     19  C   UNL     1     111.414 125.087 136.293  0.00  0.00    +0.000 A 
ENDBRANCH   8  14
BRANCH   4  20
ATOM     20  O   UNL     1     112.491 127.122 137.987  0.00  0.00    +0.000 OA
BRANCH  20  29
ATOM     21  O   UNL     1     111.570 127.185 139.077  0.00  0.00    +0.000 OA
ATOM     22  O   UNL     1     113.380 126.556 140.643  0.00  0.00    +0.000 OA
ATOM     23  O   UNL     1     111.855 126.829 141.212  0.00  0.00    +0.000 OA
ATOM     24  O   UNL     1     113.698 126.702 139.031  0.00  0.00    +0.000 OA
ATOM     25  C   UNL     1     112.776 126.766 140.121  0.00  0.00    +0.000 C 
ATOM     26  C   UNL     1     112.015 126.902 140.405  0.00  0.00    +0.000 C 
ATOM     27  C   UNL     1     112.936 126.839 139.315  0.00  0.00    +0.000 C 
ATOM     28  C   UNL     1     111.411 127.112 139.883  0.00  0.00    +0.000 C 
ATOM     29  C   UNL     1     112.333 127.048 138.793  0.00  0.00    +0.000 C 
ATOM     30  C   UNL     1     110.648 127.248 140.167  0.00  0.00    +0.000 C 
ENDBRANCH  20  29
ENDBRANCH   4  20
BRANCH   5  31
ATOM     31  O   UNL     1     110.612 130.846 135.930  0.00  0.00    +0.000 OA
BRANCH  31  39
ATOM     32  O   UNL     1     109.595 131.224 136.861  0.00  0.00    +0.000 OA
ATOM     33  O   UNL     1     107.921 131.216 135.037  0.00  0.00    +0.000 OA
ATOM     34  O   UNL     1     109.496 130.841 134.715  0.00  0.00    +0.000 OA
ATOM     35  O   UNL     1     107.463 131.597 136.576  0.00  0.00    +0.000 OA
ATOM     36  C   UNL     1     108.479 131.219 135.645  0.00  0.00    +0.000 C 
ATOM     37  C   UNL     1     109.266 131.031 135.484  0.00  0.00    +0.000 C 
ATOM     38  C   UNL     1     108.250 131.409 136.415  0.00  0.00    +0.000 C 
ATOM     39  C   UNL     1     109.824 131.033 136.091  0.00  0.00    +0.000 C 
ATOM     40  C   UNL     1     108.808 131.412 137.023  0.00  0.00    +0.000 C 
BRANCH  40  43
ATOM     41  O   UNL     1     108.304 131.012 138.299  0.00  0.00    +0.000 OA
ATOM     42  O   UNL     1     108.623 132.383 138.053  0.00  0.00    +0.000 OA
ATOM     43  C   UNL     1     108.578 131.602 137.791  0.00  0.00    +0.000 C 
ENDBRANCH  40  43
ENDBRANCH  31  39
ENDBRANCH   5  31
TORSDOF 6
ENDMDL
MODEL 9
REMARK VINA RESULT:     -10.0      2.178      3.060
REMARK  Name = 44258936
REMARK  6 active torsions:
REMARK  status: ('A' for Active; 'I' for Inactive)
REMARK    1  A    between atoms: O_3  and  C_21
REMARK    2  A    between atoms: O_3  and  C_29
REMARK    3  A    between atoms: O_7  and  C_25
REMARK    4  A    between atoms: O_7  and  C_30
REMARK    5  A    between atoms: C_26  and  C_28
REMARK    6  A    between atoms: C_33  and  C_38
REMARK                            x       y       z     vdW  Elec       q    Type
REMARK                         _______ _______ _______ _____ _____    ______ ____
ROOT
ATOM      1  O   UNL     1     112.344 128.557 138.060  0.00  0.00    +0.000 OA
ATOM      2  O   UNL     1     111.657 126.186 138.248  0.00  0.00    +0.000 OA
ATOM      3  O   UNL     1     111.211 126.393 139.605  0.00  0.00    +0.000 OA
ATOM      4  C   UNL     1     112.217 127.255 137.483  0.00  0.00    +0.000 A 
ATOM      5  C   UNL     1     111.567 128.535 140.155  0.00  0.00    +0.000 A 
ATOM      6  C   UNL     1     111.784 127.487 138.825  0.00  0.00    +0.000 A 
ATOM      7  C   UNL     1     111.886 126.976 138.185  0.00  0.00    +0.000 A 
ATOM      8  C   UNL     1     112.446 128.046 137.420  0.00  0.00    +0.000 A 
ATOM      9  C   UNL     1     112.013 128.277 138.763  0.00  0.00    +0.000 A 
ATOM     10  C   UNL     1     111.912 128.819 139.422  0.00  0.00    +0.000 A 
ATOM     11  C   UNL     1     111.328 127.712 140.221  0.00  0.00    +0.000 A 
ATOM     12  C   UNL     1     111.438 127.184 139.550  0.00  0.00    +0.000 A 
ENDROOT
BRANCH   8  14
ATOM     13  O   UNL     1     113.770 129.162 134.612  0.00  0.00    +0.000 OA
ATOM     14  C   UNL     1     112.778 128.325 136.719  0.00  0.00    +0.000 A 
ATOM     15  C   UNL     1     112.298 128.455 136.060  0.00  0.00    +0.000 A 
ATOM     16  C   UNL     1     113.588 128.474 136.675  0.00  0.00    +0.000 A 
ATOM     17  C   UNL     1     112.630 128.734 135.357  0.00  0.00    +0.000 A 
ATOM     18  C   UNL     1     113.919 128.753 135.973  0.00  0.00    +0.000 A 
ATOM     19  C   UNL     1     113.440 128.883 135.314  0.00  0.00    +0.000 A 
ENDBRANCH   8  14
BRANCH   4  20
ATOM     20  O   UNL     1     112.319 126.744 136.844  0.00  0.00    +0.000 OA
BRANCH  20  29
ATOM     21  O   UNL     1     113.456 126.078 137.396  0.00  0.00    +0.000 OA
ATOM     22  O   UNL     1     112.788 123.988 136.251  0.00  0.00    +0.000 OA
ATOM     23  O   UNL     1     114.148 124.018 137.185  0.00  0.00    +0.000 OA
ATOM     24  O   UNL     1     111.874 125.351 136.080  0.00  0.00    +0.000 OA
ATOM     25  C   UNL     1     113.011 124.685 136.633  0.00  0.00    +0.000 C 
ATOM     26  C   UNL     1     113.690 124.700 137.099  0.00  0.00    +0.000 C 
ATOM     27  C   UNL     1     112.553 125.366 136.547  0.00  0.00    +0.000 C 
ATOM     28  C   UNL     1     113.913 125.396 137.481  0.00  0.00    +0.000 C 
ATOM     29  C   UNL     1     112.776 126.063 136.929  0.00  0.00    +0.000 C 
ATOM     30  C   UNL     1     114.593 125.412 137.949  0.00  0.00    +0.000 C 
ENDBRANCH  20  29
ENDBRANCH   4  20
BRANCH   5  31
ATOM     31  O   UNL     1     111.466 129.048 140.793  0.00  0.00    +0.000 OA
BRANCH  31  39
ATOM     32  O   UNL     1     110.117 129.423 140.510  0.00  0.00    +0.000 OA
ATOM     33  O   UNL     1     110.608 131.739 141.232  0.00  0.00    +0.000 OA
ATOM     34  O   UNL     1     111.794 130.592 141.274  0.00  0.00    +0.000 OA
ATOM     35  O   UNL     1     109.094 131.342 140.708  0.00  0.00    +0.000 OA
ATOM     36  C   UNL     1     110.444 130.967 140.991  0.00  0.00    +0.000 C 
ATOM     37  C   UNL     1     111.037 130.394 141.012  0.00  0.00    +0.000 C 
ATOM     38  C   UNL     1     109.687 130.768 140.729  0.00  0.00    +0.000 C 
ATOM     39  C   UNL     1     110.874 129.622 140.772  0.00  0.00    +0.000 C 
ATOM     40  C   UNL     1     109.524 129.996 140.489  0.00  0.00    +0.000 C 
BRANCH  40  43
ATOM     41  O   UNL     1     108.220 129.476 140.753  0.00  0.00    +0.000 OA
ATOM     42  O   UNL     1     108.558 129.923 139.439  0.00  0.00    +0.000 OA
ATOM     43  C   UNL     1     108.767 129.798 140.227  0.00  0.00    +0.000 C 
ENDBRANCH  40  43
ENDBRANCH  31  39
ENDBRANCH   5  31
TORSDOF 6
ENDMDL
MODEL 10
REMARK VINA RESULT:      -9.9      2.103      5.484
REMARK  Name = 44258936
REMARK  6 active torsions:
REMARK  status: ('A' for Active; 'I' for Inactive)
REMARK    1  A    between atoms: O_3  and  C_21
REMARK    2  A    between atoms: O_3  and  C_29
REMARK    3  A    between atoms: O_7  and  C_25
REMARK    4  A    between atoms: O_7  and  C_30
REMARK    5  A    between atoms: C_26  and  C_28
REMARK    6  A    between atoms: C_33  and  C_38
REMARK                            x       y       z     vdW  Elec       q    Type
REMARK                         _______ _______ _______ _____ _____    ______ ____
ROOT
ATOM      1  O   UNL     1     112.850 128.487 139.059  0.00  0.00    +0.000 OA
ATOM      2  O   UNL     1     111.312 129.486 137.397  0.00  0.00    +0.000 OA
ATOM      3  O   UNL     1     110.801 128.183 137.043  0.00  0.00    +0.000 OA
ATOM      4  C   UNL     1     112.325 129.637 138.393  0.00  0.00    +0.000 A 
ATOM      5  C   UNL     1     111.853 126.643 138.284  0.00  0.00    +0.000 A 
ATOM      6  C   UNL     1     111.837 128.336 138.063  0.00  0.00    +0.000 A 
ATOM      7  C   UNL     1     111.825 129.153 137.951  0.00  0.00    +0.000 A 
ATOM      8  C   UNL     1     112.838 129.304 138.947  0.00  0.00    +0.000 A 
ATOM      9  C   UNL     1     112.349 128.002 138.616  0.00  0.00    +0.000 A 
ATOM     10  C   UNL     1     112.371 127.152 138.742  0.00  0.00    +0.000 A 
ATOM     11  C   UNL     1     111.318 126.990 137.707  0.00  0.00    +0.000 A 
ATOM     12  C   UNL     1     111.311 127.842 137.595  0.00  0.00    +0.000 A 
ENDROOT
BRANCH   8  14
ATOM     13  O   UNL     1     114.839 131.239 140.718  0.00  0.00    +0.000 OA
ATOM     14  C   UNL     1     113.338 129.788 139.390  0.00  0.00    +0.000 A 
ATOM     15  C   UNL     1     113.187 129.914 140.191  0.00  0.00    +0.000 A 
ATOM     16  C   UNL     1     113.990 130.146 139.032  0.00  0.00    +0.000 A 
ATOM     17  C   UNL     1     113.688 130.398 140.634  0.00  0.00    +0.000 A 
ATOM     18  C   UNL     1     114.490 130.630 139.474  0.00  0.00    +0.000 A 
ATOM     19  C   UNL     1     114.339 130.756 140.275  0.00  0.00    +0.000 A 
ENDBRANCH   8  14
BRANCH   4  20
ATOM     20  O   UNL     1     112.313 130.454 138.282  0.00  0.00    +0.000 OA
BRANCH  20  29
ATOM     21  O   UNL     1     111.093 130.668 138.993  0.00  0.00    +0.000 OA
ATOM     22  O   UNL     1     110.540 132.547 137.480  0.00  0.00    +0.000 OA
ATOM     23  O   UNL     1     109.504 132.135 138.697  0.00  0.00    +0.000 OA
ATOM     24  O   UNL     1     111.945 131.707 137.273  0.00  0.00    +0.000 OA
ATOM     25  C   UNL     1     110.724 131.921 137.985  0.00  0.00    +0.000 C 
ATOM     26  C   UNL     1     110.206 131.715 138.592  0.00  0.00    +0.000 C 
ATOM     27  C   UNL     1     111.427 131.501 137.880  0.00  0.00    +0.000 C 
ATOM     28  C   UNL     1     110.391 131.089 139.097  0.00  0.00    +0.000 C 
ATOM     29  C   UNL     1     111.611 130.875 138.385  0.00  0.00    +0.000 C 
ATOM     30  C   UNL     1     109.872 130.883 139.705  0.00  0.00    +0.000 C 
ENDBRANCH  20  29
ENDBRANCH   4  20
BRANCH   5  31
ATOM     31  O   UNL     1     111.867 125.826 138.398  0.00  0.00    +0.000 OA
BRANCH  31  39
ATOM     32  O   UNL     1     113.081 125.511 137.714  0.00  0.00    +0.000 OA
ATOM     33  O   UNL     1     111.980 123.564 136.654  0.00  0.00    +0.000 OA
ATOM     34  O   UNL     1     111.133 124.528 137.692  0.00  0.00    +0.000 OA
ATOM     35  O   UNL     1     113.562 123.899 136.322  0.00  0.00    +0.000 OA
ATOM     36  C   UNL     1     112.347 124.213 137.007  0.00  0.00    +0.000 C 
ATOM     37  C   UNL     1     111.923 124.695 137.526  0.00  0.00    +0.000 C 
ATOM     38  C   UNL     1     113.138 124.381 136.842  0.00  0.00    +0.000 C 
ATOM     39  C   UNL     1     112.290 125.344 137.879  0.00  0.00    +0.000 C 
ATOM     40  C   UNL     1     113.505 125.030 137.195  0.00  0.00    +0.000 C 
BRANCH  40  43
ATOM     41  O   UNL     1     114.491 125.672 136.384  0.00  0.00    +0.000 OA
ATOM     42  O   UNL     1     114.891 124.888 137.509  0.00  0.00    +0.000 OA
ATOM     43  C   UNL     1     114.295 125.197 137.029  0.00  0.00    +0.000 C 
ENDBRANCH  40  43
ENDBRANCH  31  39
ENDBRANCH   5  31
TORSDOF 6
ENDMDL
