MODEL 1
REMARK VINA RESULT:      -8.0      0.000      0.000
REMARK  Name = null
REMARK  3 active torsions:
REMARK  status: ('A' for Active; 'I' for Inactive)
REMARK    1  A    between atoms: O_2  and  C_3
REMARK    2  A    between atoms: C_10  and  C_14
REMARK    3  A    between atoms: C_16  and  O_20
REMARK                            x       y       z     vdW  Elec       q    Type
REMARK                         _______ _______ _______ _____ _____    ______ ____
ROOT
ATOM      1  C   UNL     1     104.191 128.438 141.503  0.00  0.00    +0.000 A 
ATOM      2  C   UNL     1     103.662 128.751 140.952  0.00  0.00    +0.000 A 
ATOM      3  C   UNL     1     103.224 129.425 141.137  0.00  0.00    +0.000 A 
ATOM      4  C   UNL     1     103.315 129.787 141.874  0.00  0.00    +0.000 A 
ATOM      5  C   UNL     1     103.844 129.474 142.424  0.00  0.00    +0.000 A 
ATOM      6  C   UNL     1     104.282 128.800 142.240  0.00  0.00    +0.000 A 
ATOM      7  O   UNL     1     102.877 130.461 142.059  0.00  0.00    +0.000 OA
ATOM      8  C   UNL     1     102.348 130.773 141.509  0.00  0.00    +0.000 A 
ATOM      9  C   UNL     1     102.257 130.411 140.772  0.00  0.00    +0.000 A 
ATOM     10  C   UNL     1     102.695 129.738 140.587  0.00  0.00    +0.000 A 
ATOM     11  O   UNL     1     102.604 129.376 139.851  0.00  0.00    +0.000 OA
ENDROOT
BRANCH   8  12
ATOM     12  C   UNL     1     101.910 131.447 141.694  0.00  0.00    +0.000 A 
ATOM     13  C   UNL     1     102.234 132.196 141.571  0.00  0.00    +0.000 A 
ATOM     14  C   UNL     1     101.797 132.871 141.755  0.00  0.00    +0.000 A 
ATOM     15  C   UNL     1     101.034 132.796 142.063  0.00  0.00    +0.000 A 
ATOM     16  C   UNL     1     100.710 132.048 142.186  0.00  0.00    +0.000 A 
ATOM     17  C   UNL     1     101.149 131.373 142.001  0.00  0.00    +0.000 A 
BRANCH  14  18
ATOM     18  O   UNL     1     102.120 133.618 141.632  0.00  0.00    +0.000 OA
ATOM     19  C   UNL     1     101.635 134.247 141.409  0.00  0.00    +0.000 C 
ENDBRANCH  14  18
ENDBRANCH   8  12
BRANCH   1  21
ATOM     20  C   UNL     1     105.211 127.495 141.836  0.00  0.00    +0.000 C 
ATOM     21  O   UNL     1     104.629 127.764 141.318  0.00  0.00    +0.000 OA
ENDBRANCH   1  21
TORSDOF 3
ENDMDL
MODEL 2
REMARK VINA RESULT:      -7.9      8.684     11.658
REMARK  Name = null
REMARK  3 active torsions:
REMARK  status: ('A' for Active; 'I' for Inactive)
REMARK    1  A    between atoms: O_2  and  C_3
REMARK    2  A    between atoms: C_10  and  C_14
REMARK    3  A    between atoms: C_16  and  O_20
REMARK                            x       y       z     vdW  Elec       q    Type
REMARK                         _______ _______ _______ _____ _____    ______ ____
ROOT
ATOM      1  C   UNL     1     109.084 127.437 136.225  0.00  0.00    +0.000 A 
ATOM      2  C   UNL     1     109.322 126.857 135.687  0.00  0.00    +0.000 A 
ATOM      3  C   UNL     1     109.945 126.350 135.875  0.00  0.00    +0.000 A 
ATOM      4  C   UNL     1     110.332 126.423 136.601  0.00  0.00    +0.000 A 
ATOM      5  C   UNL     1     110.095 127.003 137.138  0.00  0.00    +0.000 A 
ATOM      6  C   UNL     1     109.471 127.509 136.951  0.00  0.00    +0.000 A 
ATOM      7  O   UNL     1     110.956 125.917 136.788  0.00  0.00    +0.000 OA
ATOM      8  C   UNL     1     111.193 125.338 136.251  0.00  0.00    +0.000 A 
ATOM      9  C   UNL     1     110.806 125.265 135.525  0.00  0.00    +0.000 A 
ATOM     10  C   UNL     1     110.182 125.771 135.338  0.00  0.00    +0.000 A 
ATOM     11  O   UNL     1     109.796 125.698 134.612  0.00  0.00    +0.000 OA
ENDROOT
BRANCH   8  12
ATOM     12  C   UNL     1     111.816 124.831 136.438  0.00  0.00    +0.000 A 
ATOM     13  C   UNL     1     112.594 125.102 136.395  0.00  0.00    +0.000 A 
ATOM     14  C   UNL     1     113.219 124.596 136.582  0.00  0.00    +0.000 A 
ATOM     15  C   UNL     1     113.064 123.819 136.812  0.00  0.00    +0.000 A 
ATOM     16  C   UNL     1     112.286 123.548 136.855  0.00  0.00    +0.000 A 
ATOM     17  C   UNL     1     111.663 124.055 136.668  0.00  0.00    +0.000 A 
BRANCH  14  18
ATOM     18  O   UNL     1     113.996 124.867 136.539  0.00  0.00    +0.000 OA
ATOM     19  C   UNL     1     114.501 124.776 137.184  0.00  0.00    +0.000 C 
ENDBRANCH  14  18
ENDBRANCH   8  12
BRANCH   1  21
ATOM     20  C   UNL     1     108.616 128.700 135.750  0.00  0.00    +0.000 C 
ATOM     21  O   UNL     1     108.461 127.943 136.037  0.00  0.00    +0.000 OA
ENDBRANCH   1  21
TORSDOF 3
ENDMDL
MODEL 3
REMARK VINA RESULT:      -7.6      8.277      9.365
REMARK  Name = null
REMARK  3 active torsions:
REMARK  status: ('A' for Active; 'I' for Inactive)
REMARK    1  A    between atoms: O_2  and  C_3
REMARK    2  A    between atoms: C_10  and  C_14
REMARK    3  A    between atoms: C_16  and  O_20
REMARK                            x       y       z     vdW  Elec       q    Type
REMARK                         _______ _______ _______ _____ _____    ______ ____
ROOT
ATOM      1  C   UNL     1     102.626 123.679 146.047  0.00  0.00    +0.000 A 
ATOM      2  C   UNL     1     102.796 124.291 146.574  0.00  0.00    +0.000 A 
ATOM      3  C   UNL     1     103.572 124.419 146.823  0.00  0.00    +0.000 A 
ATOM      4  C   UNL     1     104.180 123.933 146.544  0.00  0.00    +0.000 A 
ATOM      5  C   UNL     1     104.010 123.322 146.017  0.00  0.00    +0.000 A 
ATOM      6  C   UNL     1     103.233 123.194 145.768  0.00  0.00    +0.000 A 
ATOM      7  O   UNL     1     104.955 124.061 146.793  0.00  0.00    +0.000 OA
ATOM      8  C   UNL     1     105.125 124.671 147.320  0.00  0.00    +0.000 A 
ATOM      9  C   UNL     1     104.517 125.157 147.599  0.00  0.00    +0.000 A 
ATOM     10  C   UNL     1     103.742 125.029 147.350  0.00  0.00    +0.000 A 
ATOM     11  O   UNL     1     103.135 125.514 147.629  0.00  0.00    +0.000 OA
ENDROOT
BRANCH   8  12
ATOM     12  C   UNL     1     105.901 124.799 147.569  0.00  0.00    +0.000 A 
ATOM     13  C   UNL     1     106.135 124.564 148.324  0.00  0.00    +0.000 A 
ATOM     14  C   UNL     1     106.911 124.691 148.575  0.00  0.00    +0.000 A 
ATOM     15  C   UNL     1     107.453 125.054 148.069  0.00  0.00    +0.000 A 
ATOM     16  C   UNL     1     107.219 125.289 147.313  0.00  0.00    +0.000 A 
ATOM     17  C   UNL     1     106.443 125.161 147.064  0.00  0.00    +0.000 A 
BRANCH  14  18
ATOM     18  O   UNL     1     107.145 124.456 149.329  0.00  0.00    +0.000 OA
ATOM     19  C   UNL     1     107.943 124.335 149.495  0.00  0.00    +0.000 C 
ENDBRANCH  14  18
ENDBRANCH   8  12
BRANCH   1  21
ATOM     20  C   UNL     1     101.619 122.807 145.534  0.00  0.00    +0.000 C 
ATOM     21  O   UNL     1     101.850 123.552 145.798  0.00  0.00    +0.000 OA
ENDBRANCH   1  21
TORSDOF 3
ENDMDL
MODEL 4
REMARK VINA RESULT:      -7.5      9.056     11.613
REMARK  Name = null
REMARK  3 active torsions:
REMARK  status: ('A' for Active; 'I' for Inactive)
REMARK    1  A    between atoms: O_2  and  C_3
REMARK    2  A    between atoms: C_10  and  C_14
REMARK    3  A    between atoms: C_16  and  O_20
REMARK                            x       y       z     vdW  Elec       q    Type
REMARK                         _______ _______ _______ _____ _____    ______ ____
ROOT
ATOM      1  C   UNL     1     113.976 124.951 136.959  0.00  0.00    +0.000 A 
ATOM      2  C   UNL     1     113.307 124.481 136.845  0.00  0.00    +0.000 A 
ATOM      3  C   UNL     1     112.611 124.815 136.554  0.00  0.00    +0.000 A 
ATOM      4  C   UNL     1     112.584 125.621 136.375  0.00  0.00    +0.000 A 
ATOM      5  C   UNL     1     113.252 126.091 136.488  0.00  0.00    +0.000 A 
ATOM      6  C   UNL     1     113.949 125.757 136.780  0.00  0.00    +0.000 A 
ATOM      7  O   UNL     1     111.889 125.955 136.084  0.00  0.00    +0.000 OA
ATOM      8  C   UNL     1     111.221 125.485 135.971  0.00  0.00    +0.000 A 
ATOM      9  C   UNL     1     111.248 124.679 136.150  0.00  0.00    +0.000 A 
ATOM     10  C   UNL     1     111.943 124.345 136.441  0.00  0.00    +0.000 A 
ATOM     11  O   UNL     1     111.971 123.540 136.620  0.00  0.00    +0.000 OA
ENDROOT
BRANCH   8  12
ATOM     12  C   UNL     1     110.525 125.819 135.679  0.00  0.00    +0.000 A 
ATOM     13  C   UNL     1     110.065 126.302 136.165  0.00  0.00    +0.000 A 
ATOM     14  C   UNL     1     109.369 126.636 135.875  0.00  0.00    +0.000 A 
ATOM     15  C   UNL     1     109.133 126.487 135.098  0.00  0.00    +0.000 A 
ATOM     16  C   UNL     1     109.593 126.004 134.612  0.00  0.00    +0.000 A 
ATOM     17  C   UNL     1     110.289 125.670 134.904  0.00  0.00    +0.000 A 
BRANCH  14  18
ATOM     18  O   UNL     1     108.909 127.118 136.360  0.00  0.00    +0.000 OA
ATOM     19  C   UNL     1     108.621 127.836 136.075  0.00  0.00    +0.000 C 
ENDBRANCH  14  18
ENDBRANCH   8  12
BRANCH   1  21
ATOM     20  C   UNL     1     114.975 124.864 137.975  0.00  0.00    +0.000 C 
ATOM     21  O   UNL     1     114.671 124.617 137.250  0.00  0.00    +0.000 OA
ENDBRANCH   1  21
TORSDOF 3
ENDMDL
MODEL 5
REMARK VINA RESULT:      -7.4     11.609     13.063
REMARK  Name = null
REMARK  3 active torsions:
REMARK  status: ('A' for Active; 'I' for Inactive)
REMARK    1  A    between atoms: O_2  and  C_3
REMARK    2  A    between atoms: C_10  and  C_14
REMARK    3  A    between atoms: C_16  and  O_20
REMARK                            x       y       z     vdW  Elec       q    Type
REMARK                         _______ _______ _______ _____ _____    ______ ____
ROOT
ATOM      1  C   UNL     1     113.830 129.621 136.069  0.00  0.00    +0.000 A 
ATOM      2  C   UNL     1     113.473 129.222 136.697  0.00  0.00    +0.000 A 
ATOM      3  C   UNL     1     113.509 128.398 136.737  0.00  0.00    +0.000 A 
ATOM      4  C   UNL     1     113.903 127.973 136.149  0.00  0.00    +0.000 A 
ATOM      5  C   UNL     1     114.259 128.372 135.521  0.00  0.00    +0.000 A 
ATOM      6  C   UNL     1     114.223 129.196 135.480  0.00  0.00    +0.000 A 
ATOM      7  O   UNL     1     113.939 127.151 136.189  0.00  0.00    +0.000 OA
ATOM      8  C   UNL     1     113.583 126.752 136.816  0.00  0.00    +0.000 A 
ATOM      9  C   UNL     1     113.189 127.177 137.405  0.00  0.00    +0.000 A 
ATOM     10  C   UNL     1     113.153 128.000 137.365  0.00  0.00    +0.000 A 
ATOM     11  O   UNL     1     112.760 128.425 137.953  0.00  0.00    +0.000 OA
ENDROOT
BRANCH   8  12
ATOM     12  C   UNL     1     113.619 125.929 136.857  0.00  0.00    +0.000 A 
ATOM     13  C   UNL     1     112.984 125.475 136.589  0.00  0.00    +0.000 A 
ATOM     14  C   UNL     1     113.019 124.652 136.629  0.00  0.00    +0.000 A 
ATOM     15  C   UNL     1     113.690 124.282 136.938  0.00  0.00    +0.000 A 
ATOM     16  C   UNL     1     114.324 124.736 137.206  0.00  0.00    +0.000 A 
ATOM     17  C   UNL     1     114.288 125.559 137.165  0.00  0.00    +0.000 A 
BRANCH  14  18
ATOM     18  O   UNL     1     112.385 124.199 136.361  0.00  0.00    +0.000 OA
ATOM     19  C   UNL     1     112.067 123.609 136.842  0.00  0.00    +0.000 C 
ENDBRANCH  14  18
ENDBRANCH   8  12
BRANCH   1  21
ATOM     20  C   UNL     1     114.488 130.885 135.973  0.00  0.00    +0.000 C 
ATOM     21  O   UNL     1     113.794 130.444 136.028  0.00  0.00    +0.000 OA
ENDBRANCH   1  21
TORSDOF 3
ENDMDL
MODEL 6
REMARK VINA RESULT:      -7.3      7.831      8.692
REMARK  Name = null
REMARK  3 active torsions:
REMARK  status: ('A' for Active; 'I' for Inactive)
REMARK    1  A    between atoms: O_2  and  C_3
REMARK    2  A    between atoms: C_10  and  C_14
REMARK    3  A    between atoms: C_16  and  O_20
REMARK                            x       y       z     vdW  Elec       q    Type
REMARK                         _______ _______ _______ _____ _____    ______ ____
ROOT
ATOM      1  C   UNL     1     107.102 125.232 147.356  0.00  0.00    +0.000 A 
ATOM      2  C   UNL     1     106.717 125.233 146.626  0.00  0.00    +0.000 A 
ATOM      3  C   UNL     1     105.962 124.908 146.556  0.00  0.00    +0.000 A 
ATOM      4  C   UNL     1     105.592 124.580 147.217  0.00  0.00    +0.000 A 
ATOM      5  C   UNL     1     105.976 124.578 147.947  0.00  0.00    +0.000 A 
ATOM      6  C   UNL     1     106.731 124.904 148.017  0.00  0.00    +0.000 A 
ATOM      7  O   UNL     1     104.837 124.254 147.147  0.00  0.00    +0.000 OA
ATOM      8  C   UNL     1     104.453 124.256 146.418  0.00  0.00    +0.000 A 
ATOM      9  C   UNL     1     104.824 124.584 145.757  0.00  0.00    +0.000 A 
ATOM     10  C   UNL     1     105.578 124.909 145.827  0.00  0.00    +0.000 A 
ATOM     11  O   UNL     1     105.949 125.237 145.166  0.00  0.00    +0.000 OA
ENDROOT
BRANCH   8  12
ATOM     12  C   UNL     1     103.698 123.930 146.348  0.00  0.00    +0.000 A 
ATOM     13  C   UNL     1     103.044 124.341 146.636  0.00  0.00    +0.000 A 
ATOM     14  C   UNL     1     102.289 124.017 146.566  0.00  0.00    +0.000 A 
ATOM     15  C   UNL     1     102.188 123.280 146.207  0.00  0.00    +0.000 A 
ATOM     16  C   UNL     1     102.843 122.868 145.919  0.00  0.00    +0.000 A 
ATOM     17  C   UNL     1     103.598 123.194 145.989  0.00  0.00    +0.000 A 
BRANCH  14  18
ATOM     18  O   UNL     1     101.635 124.427 146.854  0.00  0.00    +0.000 OA
ATOM     19  C   UNL     1     101.078 124.040 147.324  0.00  0.00    +0.000 C 
ENDBRANCH  14  18
ENDBRANCH   8  12
BRANCH   1  21
ATOM     20  C   UNL     1     108.446 125.149 147.833  0.00  0.00    +0.000 C 
ATOM     21  O   UNL     1     107.856 125.557 147.426  0.00  0.00    +0.000 OA
ENDBRANCH   1  21
TORSDOF 3
ENDMDL
MODEL 7
REMARK VINA RESULT:      -7.2      1.006      4.550
REMARK  Name = null
REMARK  3 active torsions:
REMARK  status: ('A' for Active; 'I' for Inactive)
REMARK    1  A    between atoms: O_2  and  C_3
REMARK    2  A    between atoms: C_10  and  C_14
REMARK    3  A    between atoms: C_16  and  O_20
REMARK                            x       y       z     vdW  Elec       q    Type
REMARK                         _______ _______ _______ _____ _____    ______ ____
ROOT
ATOM      1  C   UNL     1     101.967 134.215 141.661  0.00  0.00    +0.000 A 
ATOM      2  C   UNL     1     101.549 133.557 141.932  0.00  0.00    +0.000 A 
ATOM      3  C   UNL     1     101.805 132.796 141.740  0.00  0.00    +0.000 A 
ATOM      4  C   UNL     1     102.481 132.693 141.277  0.00  0.00    +0.000 A 
ATOM      5  C   UNL     1     102.899 133.351 141.006  0.00  0.00    +0.000 A 
ATOM      6  C   UNL     1     102.643 134.112 141.197  0.00  0.00    +0.000 A 
ATOM      7  O   UNL     1     102.736 131.933 141.085  0.00  0.00    +0.000 OA
ATOM      8  C   UNL     1     102.318 131.276 141.356  0.00  0.00    +0.000 A 
ATOM      9  C   UNL     1     101.643 131.380 141.820  0.00  0.00    +0.000 A 
ATOM     10  C   UNL     1     101.387 132.140 142.011  0.00  0.00    +0.000 A 
ATOM     11  O   UNL     1     100.712 132.243 142.474  0.00  0.00    +0.000 OA
ENDROOT
BRANCH   8  12
ATOM     12  C   UNL     1     102.574 130.516 141.164  0.00  0.00    +0.000 A 
ATOM     13  C   UNL     1     103.121 130.131 141.647  0.00  0.00    +0.000 A 
ATOM     14  C   UNL     1     103.378 129.371 141.457  0.00  0.00    +0.000 A 
ATOM     15  C   UNL     1     103.087 128.994 140.782  0.00  0.00    +0.000 A 
ATOM     16  C   UNL     1     102.540 129.379 140.299  0.00  0.00    +0.000 A 
ATOM     17  C   UNL     1     102.284 130.140 140.491  0.00  0.00    +0.000 A 
BRANCH  14  18
ATOM     18  O   UNL     1     103.924 128.987 141.940  0.00  0.00    +0.000 OA
ATOM     19  C   UNL     1     104.492 128.490 141.607  0.00  0.00    +0.000 C 
ENDBRANCH  14  18
ENDBRANCH   8  12
BRANCH   1  21
ATOM     20  C   UNL     1     102.163 135.448 142.354  0.00  0.00    +0.000 C 
ATOM     21  O   UNL     1     101.711 134.975 141.853  0.00  0.00    +0.000 OA
ENDBRANCH   1  21
TORSDOF 3
ENDMDL
MODEL 8
REMARK VINA RESULT:      -7.2     10.444     12.328
REMARK  Name = null
REMARK  3 active torsions:
REMARK  status: ('A' for Active; 'I' for Inactive)
REMARK    1  A    between atoms: O_2  and  C_3
REMARK    2  A    between atoms: C_10  and  C_14
REMARK    3  A    between atoms: C_16  and  O_20
REMARK                            x       y       z     vdW  Elec       q    Type
REMARK                         _______ _______ _______ _____ _____    ______ ____
ROOT
ATOM      1  C   UNL     1     113.357 128.257 140.604  0.00  0.00    +0.000 A 
ATOM      2  C   UNL     1     113.245 128.319 139.788  0.00  0.00    +0.000 A 
ATOM      3  C   UNL     1     113.323 127.653 139.308  0.00  0.00    +0.000 A 
ATOM      4  C   UNL     1     113.514 126.923 139.643  0.00  0.00    +0.000 A 
ATOM      5  C   UNL     1     113.626 126.860 140.458  0.00  0.00    +0.000 A 
ATOM      6  C   UNL     1     113.547 127.527 140.939  0.00  0.00    +0.000 A 
ATOM      7  O   UNL     1     113.592 126.257 139.163  0.00  0.00    +0.000 OA
ATOM      8  C   UNL     1     113.480 126.320 138.349  0.00  0.00    +0.000 A 
ATOM      9  C   UNL     1     113.290 127.050 138.014  0.00  0.00    +0.000 A 
ATOM     10  C   UNL     1     113.211 127.716 138.493  0.00  0.00    +0.000 A 
ATOM     11  O   UNL     1     113.021 128.445 138.158  0.00  0.00    +0.000 OA
ENDROOT
BRANCH   8  12
ATOM     12  C   UNL     1     113.559 125.654 137.868  0.00  0.00    +0.000 A 
ATOM     13  C   UNL     1     112.887 125.274 137.578  0.00  0.00    +0.000 A 
ATOM     14  C   UNL     1     112.963 124.608 137.097  0.00  0.00    +0.000 A 
ATOM     15  C   UNL     1     113.714 124.321 136.907  0.00  0.00    +0.000 A 
ATOM     16  C   UNL     1     114.387 124.701 137.198  0.00  0.00    +0.000 A 
ATOM     17  C   UNL     1     114.308 125.367 137.679  0.00  0.00    +0.000 A 
BRANCH  14  18
ATOM     18  O   UNL     1     112.292 124.229 136.807  0.00  0.00    +0.000 OA
ATOM     19  C   UNL     1     112.159 123.434 136.981  0.00  0.00    +0.000 C 
ENDBRANCH  14  18
ENDBRANCH   8  12
BRANCH   1  21
ATOM     20  C   UNL     1     112.712 128.935 141.682  0.00  0.00    +0.000 C 
ATOM     21  O   UNL     1     113.278 128.923 141.083  0.00  0.00    +0.000 OA
ENDBRANCH   1  21
TORSDOF 3
ENDMDL
MODEL 9
REMARK VINA RESULT:      -7.1     11.533     12.329
REMARK  Name = null
REMARK  3 active torsions:
REMARK  status: ('A' for Active; 'I' for Inactive)
REMARK    1  A    between atoms: O_2  and  C_3
REMARK    2  A    between atoms: C_10  and  C_14
REMARK    3  A    between atoms: C_16  and  O_20
REMARK                            x       y       z     vdW  Elec       q    Type
REMARK                         _______ _______ _______ _____ _____    ______ ____
ROOT
ATOM      1  C   UNL     1     112.472 124.297 136.573  0.00  0.00    +0.000 A 
ATOM      2  C   UNL     1     113.212 124.648 136.671  0.00  0.00    +0.000 A 
ATOM      3  C   UNL     1     113.295 125.466 136.607  0.00  0.00    +0.000 A 
ATOM      4  C   UNL     1     112.635 125.936 136.444  0.00  0.00    +0.000 A 
ATOM      5  C   UNL     1     111.894 125.585 136.346  0.00  0.00    +0.000 A 
ATOM      6  C   UNL     1     111.812 124.767 136.410  0.00  0.00    +0.000 A 
ATOM      7  O   UNL     1     112.716 126.753 136.380  0.00  0.00    +0.000 OA
ATOM      8  C   UNL     1     113.456 127.103 136.478  0.00  0.00    +0.000 A 
ATOM      9  C   UNL     1     114.116 126.634 136.641  0.00  0.00    +0.000 A 
ATOM     10  C   UNL     1     114.035 125.816 136.705  0.00  0.00    +0.000 A 
ATOM     11  O   UNL     1     114.694 125.347 136.867  0.00  0.00    +0.000 OA
ENDROOT
BRANCH   8  12
ATOM     12  C   UNL     1     113.538 127.922 136.414  0.00  0.00    +0.000 A 
ATOM     13  C   UNL     1     113.311 128.409 137.040  0.00  0.00    +0.000 A 
ATOM     14  C   UNL     1     113.393 129.227 136.978  0.00  0.00    +0.000 A 
ATOM     15  C   UNL     1     113.702 129.559 136.288  0.00  0.00    +0.000 A 
ATOM     16  C   UNL     1     113.929 129.072 135.662  0.00  0.00    +0.000 A 
ATOM     17  C   UNL     1     113.847 128.253 135.726  0.00  0.00    +0.000 A 
BRANCH  14  18
ATOM     18  O   UNL     1     113.166 129.713 137.603  0.00  0.00    +0.000 OA
ATOM     19  C   UNL     1     113.648 130.342 137.833  0.00  0.00    +0.000 C 
ENDBRANCH  14  18
ENDBRANCH   8  12
BRANCH   1  21
ATOM     20  C   UNL     1     111.891 123.158 137.209  0.00  0.00    +0.000 C 
ATOM     21  O   UNL     1     112.390 123.479 136.637  0.00  0.00    +0.000 OA
ENDBRANCH   1  21
TORSDOF 3
ENDMDL
MODEL 10
REMARK VINA RESULT:      -7.1     11.481     12.289
REMARK  Name = null
REMARK  3 active torsions:
REMARK  status: ('A' for Active; 'I' for Inactive)
REMARK    1  A    between atoms: O_2  and  C_3
REMARK    2  A    between atoms: C_10  and  C_14
REMARK    3  A    between atoms: C_16  and  O_20
REMARK                            x       y       z     vdW  Elec       q    Type
REMARK                         _______ _______ _______ _____ _____    ______ ____
ROOT
ATOM      1  C   UNL     1     112.351 124.343 136.563  0.00  0.00    +0.000 A 
ATOM      2  C   UNL     1     111.915 125.003 136.328  0.00  0.00    +0.000 A 
ATOM      3  C   UNL     1     112.264 125.751 136.327  0.00  0.00    +0.000 A 
ATOM      4  C   UNL     1     113.051 125.839 136.561  0.00  0.00    +0.000 A 
ATOM      5  C   UNL     1     113.488 125.179 136.796  0.00  0.00    +0.000 A 
ATOM      6  C   UNL     1     113.139 124.432 136.798  0.00  0.00    +0.000 A 
ATOM      7  O   UNL     1     113.400 126.586 136.560  0.00  0.00    +0.000 OA
ATOM      8  C   UNL     1     112.964 127.245 136.325  0.00  0.00    +0.000 A 
ATOM      9  C   UNL     1     112.177 127.156 136.090  0.00  0.00    +0.000 A 
ATOM     10  C   UNL     1     111.828 126.410 136.092  0.00  0.00    +0.000 A 
ATOM     11  O   UNL     1     111.042 126.321 135.857  0.00  0.00    +0.000 OA
ENDROOT
BRANCH   8  12
ATOM     12  C   UNL     1     113.313 127.992 136.323  0.00  0.00    +0.000 A 
ATOM     13  C   UNL     1     113.833 128.203 135.718  0.00  0.00    +0.000 A 
ATOM     14  C   UNL     1     114.182 128.950 135.715  0.00  0.00    +0.000 A 
ATOM     15  C   UNL     1     114.011 129.487 136.319  0.00  0.00    +0.000 A 
ATOM     16  C   UNL     1     113.492 129.277 136.924  0.00  0.00    +0.000 A 
ATOM     17  C   UNL     1     113.143 128.529 136.925  0.00  0.00    +0.000 A 
BRANCH  14  18
ATOM     18  O   UNL     1     114.702 129.161 135.111  0.00  0.00    +0.000 OA
ATOM     19  C   UNL     1     114.640 129.901 134.752  0.00  0.00    +0.000 C 
ENDBRANCH  14  18
ENDBRANCH   8  12
BRANCH   1  21
ATOM     20  C   UNL     1     111.999 123.144 137.254  0.00  0.00    +0.000 C 
ATOM     21  O   UNL     1     112.002 123.596 136.565  0.00  0.00    +0.000 OA
ENDBRANCH   1  21
TORSDOF 3
ENDMDL
