MODEL 1
REMARK VINA RESULT:      -8.3      0.000      0.000
REMARK  Name = 471722
REMARK  3 active torsions:
REMARK  status: ('A' for Active; 'I' for Inactive)
REMARK    1  A    between atoms: O_2  and  C_12
REMARK    2  A    between atoms: O_3  and  C_13
REMARK    3  A    between atoms: C_9  and  C_15
REMARK                            x       y       z     vdW  Elec       q    Type
REMARK                         _______ _______ _______ _____ _____    ______ ____
ROOT
ATOM      1  O   UNL     1     105.446 124.274 147.200  0.00  0.00    +0.000 OA
ATOM      2  O   UNL     1     102.736 125.235 147.529  0.00  0.00    +0.000 OA
ATOM      3  O   UNL     1     103.768 125.741 148.401  0.00  0.00    +0.000 OA
ATOM      4  C   UNL     1     104.074 124.759 147.365  0.00  0.00    +0.000 A 
ATOM      5  C   UNL     1     104.618 124.280 146.972  0.00  0.00    +0.000 A 
ATOM      6  C   UNL     1     103.280 124.756 147.136  0.00  0.00    +0.000 A 
ATOM      7  C   UNL     1     105.711 124.775 147.847  0.00  0.00    +0.000 A 
ATOM      8  C   UNL     1     104.319 125.265 148.013  0.00  0.00    +0.000 A 
ATOM      9  C   UNL     1     104.369 123.798 146.350  0.00  0.00    +0.000 A 
ATOM     10  C   UNL     1     103.033 124.274 146.514  0.00  0.00    +0.000 A 
ATOM     11  C   UNL     1     103.577 123.794 146.121  0.00  0.00    +0.000 A 
ATOM     12  C   UNL     1     105.144 125.273 148.256  0.00  0.00    +0.000 A 
ENDROOT
BRANCH   7  13
ATOM     13  C   UNL     1     106.504 124.776 148.074  0.00  0.00    +0.000 A 
ATOM     14  C   UNL     1     107.067 125.152 147.602  0.00  0.00    +0.000 A 
ATOM     15  C   UNL     1     106.735 124.401 148.772  0.00  0.00    +0.000 A 
ATOM     16  C   UNL     1     107.860 125.153 147.828  0.00  0.00    +0.000 A 
ATOM     17  C   UNL     1     107.529 124.403 148.998  0.00  0.00    +0.000 A 
ATOM     18  C   UNL     1     108.092 124.779 148.526  0.00  0.00    +0.000 A 
ENDBRANCH   7  13
BRANCH  10  19
ATOM     19  O   UNL     1     102.239 124.270 146.286  0.00  0.00    +0.000 OA
ATOM     20  C   UNL     1     101.689 123.831 146.715  0.00  0.00    +0.000 C 
ENDBRANCH  10  19
BRANCH  11  21
ATOM     21  O   UNL     1     103.329 123.312 145.500  0.00  0.00    +0.000 OA
ATOM     22  C   UNL     1     103.878 122.857 145.086  0.00  0.00    +0.000 C 
ENDBRANCH  11  21
TORSDOF 3
ENDMDL
MODEL 2
REMARK VINA RESULT:      -8.0      2.197      2.932
REMARK  Name = 471722
REMARK  3 active torsions:
REMARK  status: ('A' for Active; 'I' for Inactive)
REMARK    1  A    between atoms: O_2  and  C_12
REMARK    2  A    between atoms: O_3  and  C_13
REMARK    3  A    between atoms: C_9  and  C_15
REMARK                            x       y       z     vdW  Elec       q    Type
REMARK                         _______ _______ _______ _____ _____    ______ ____
ROOT
ATOM      1  O   UNL     1     106.472 124.792 146.858  0.00  0.00    +0.000 OA
ATOM      2  O   UNL     1     106.476 126.977 144.959  0.00  0.00    +0.000 OA
ATOM      3  O   UNL     1     107.142 127.151 146.227  0.00  0.00    +0.000 OA
ATOM      4  C   UNL     1     106.473 125.897 145.895  0.00  0.00    +0.000 A 
ATOM      5  C   UNL     1     106.253 125.128 146.098  0.00  0.00    +0.000 A 
ATOM      6  C   UNL     1     106.256 126.208 145.162  0.00  0.00    +0.000 A 
ATOM      7  C   UNL     1     106.927 125.264 147.415  0.00  0.00    +0.000 A 
ATOM      8  C   UNL     1     106.927 126.383 146.438  0.00  0.00    +0.000 A 
ATOM      9  C   UNL     1     105.816 124.670 145.568  0.00  0.00    +0.000 A 
ATOM     10  C   UNL     1     105.820 125.750 144.633  0.00  0.00    +0.000 A 
ATOM     11  C   UNL     1     105.600 124.981 144.835  0.00  0.00    +0.000 A 
ATOM     12  C   UNL     1     107.155 126.065 147.203  0.00  0.00    +0.000 A 
ENDROOT
BRANCH   7  13
ATOM     13  C   UNL     1     107.142 124.950 148.147  0.00  0.00    +0.000 A 
ATOM     14  C   UNL     1     106.561 124.765 148.703  0.00  0.00    +0.000 A 
ATOM     15  C   UNL     1     107.937 124.821 148.323  0.00  0.00    +0.000 A 
ATOM     16  C   UNL     1     106.775 124.452 149.434  0.00  0.00    +0.000 A 
ATOM     17  C   UNL     1     108.152 124.507 149.055  0.00  0.00    +0.000 A 
ATOM     18  C   UNL     1     107.571 124.323 149.611  0.00  0.00    +0.000 A 
ENDBRANCH   7  13
BRANCH  10  19
ATOM     19  O   UNL     1     105.603 126.062 143.899  0.00  0.00    +0.000 OA
ATOM     20  C   UNL     1     106.147 126.071 143.279  0.00  0.00    +0.000 C 
ENDBRANCH  10  19
BRANCH  11  21
ATOM     21  O   UNL     1     105.164 124.524 144.305  0.00  0.00    +0.000 OA
ATOM     22  C   UNL     1     104.801 123.829 144.561  0.00  0.00    +0.000 C 
ENDBRANCH  11  21
TORSDOF 3
ENDMDL
MODEL 3
REMARK VINA RESULT:      -7.9     11.683     12.695
REMARK  Name = 471722
REMARK  3 active torsions:
REMARK  status: ('A' for Active; 'I' for Inactive)
REMARK    1  A    between atoms: O_2  and  C_12
REMARK    2  A    between atoms: O_3  and  C_13
REMARK    3  A    between atoms: C_9  and  C_15
REMARK                            x       y       z     vdW  Elec       q    Type
REMARK                         _______ _______ _______ _____ _____    ______ ____
ROOT
ATOM      1  O   UNL     1     111.130 125.907 136.919  0.00  0.00    +0.000 OA
ATOM      2  O   UNL     1     108.952 126.711 135.191  0.00  0.00    +0.000 OA
ATOM      3  O   UNL     1     109.789 125.604 134.793  0.00  0.00    +0.000 OA
ATOM      4  C   UNL     1     110.027 126.315 136.046  0.00  0.00    +0.000 A 
ATOM      5  C   UNL     1     110.462 126.416 136.739  0.00  0.00    +0.000 A 
ATOM      6  C   UNL     1     109.387 126.811 135.884  0.00  0.00    +0.000 A 
ATOM      7  C   UNL     1     111.348 125.284 136.368  0.00  0.00    +0.000 A 
ATOM      8  C   UNL     1     110.230 125.698 135.484  0.00  0.00    +0.000 A 
ATOM      9  C   UNL     1     110.258 127.013 137.271  0.00  0.00    +0.000 A 
ATOM     10  C   UNL     1     109.183 127.407 136.417  0.00  0.00    +0.000 A 
ATOM     11  C   UNL     1     109.619 127.508 137.110  0.00  0.00    +0.000 A 
ATOM     12  C   UNL     1     110.895 125.179 135.646  0.00  0.00    +0.000 A 
ENDROOT
BRANCH   7  13
ATOM     13  C   UNL     1     111.988 124.789 136.532  0.00  0.00    +0.000 A 
ATOM     14  C   UNL     1     112.758 125.053 136.395  0.00  0.00    +0.000 A 
ATOM     15  C   UNL     1     111.858 124.032 136.833  0.00  0.00    +0.000 A 
ATOM     16  C   UNL     1     113.398 124.559 136.559  0.00  0.00    +0.000 A 
ATOM     17  C   UNL     1     112.499 123.538 136.996  0.00  0.00    +0.000 A 
ATOM     18  C   UNL     1     113.269 123.802 136.859  0.00  0.00    +0.000 A 
ENDBRANCH   7  13
BRANCH  10  19
ATOM     19  O   UNL     1     108.543 127.903 136.255  0.00  0.00    +0.000 OA
ATOM     20  C   UNL     1     108.645 128.562 135.769  0.00  0.00    +0.000 C 
ENDBRANCH  10  19
BRANCH  11  21
ATOM     21  O   UNL     1     109.414 128.105 137.642  0.00  0.00    +0.000 OA
ATOM     22  C   UNL     1     109.826 128.182 138.353  0.00  0.00    +0.000 C 
ENDBRANCH  11  21
TORSDOF 3
ENDMDL
MODEL 4
REMARK VINA RESULT:      -7.7      7.602      8.714
REMARK  Name = 471722
REMARK  3 active torsions:
REMARK  status: ('A' for Active; 'I' for Inactive)
REMARK    1  A    between atoms: O_2  and  C_12
REMARK    2  A    between atoms: O_3  and  C_13
REMARK    3  A    between atoms: C_9  and  C_15
REMARK                            x       y       z     vdW  Elec       q    Type
REMARK                         _______ _______ _______ _____ _____    ______ ____
ROOT
ATOM      1  O   UNL     1     103.027 130.502 142.319  0.00  0.00    +0.000 OA
ATOM      2  O   UNL     1     103.922 128.234 140.759  0.00  0.00    +0.000 OA
ATOM      3  O   UNL     1     102.980 129.158 140.174  0.00  0.00    +0.000 OA
ATOM      4  C   UNL     1     103.481 129.354 141.532  0.00  0.00    +0.000 A 
ATOM      5  C   UNL     1     103.498 129.790 142.232  0.00  0.00    +0.000 A 
ATOM      6  C   UNL     1     103.939 128.670 141.459  0.00  0.00    +0.000 A 
ATOM      7  C   UNL     1     102.530 130.765 141.668  0.00  0.00    +0.000 A 
ATOM      8  C   UNL     1     102.991 129.600 140.870  0.00  0.00    +0.000 A 
ATOM      9  C   UNL     1     103.973 129.542 142.860  0.00  0.00    +0.000 A 
ATOM     10  C   UNL     1     104.413 128.424 142.088  0.00  0.00    +0.000 A 
ATOM     11  C   UNL     1     104.430 128.860 142.788  0.00  0.00    +0.000 A 
ATOM     12  C   UNL     1     102.512 130.311 140.939  0.00  0.00    +0.000 A 
ENDROOT
BRANCH   7  13
ATOM     13  C   UNL     1     102.074 131.448 141.743  0.00  0.00    +0.000 A 
ATOM     14  C   UNL     1     102.393 132.181 141.541  0.00  0.00    +0.000 A 
ATOM     15  C   UNL     1     101.298 131.398 142.020  0.00  0.00    +0.000 A 
ATOM     16  C   UNL     1     101.938 132.864 141.615  0.00  0.00    +0.000 A 
ATOM     17  C   UNL     1     100.842 132.082 142.094  0.00  0.00    +0.000 A 
ATOM     18  C   UNL     1     101.162 132.815 141.892  0.00  0.00    +0.000 A 
ENDBRANCH   7  13
BRANCH  10  19
ATOM     19  O   UNL     1     104.871 127.740 142.016  0.00  0.00    +0.000 OA
ATOM     20  C   UNL     1     105.633 127.787 141.705  0.00  0.00    +0.000 C 
ENDBRANCH  10  19
BRANCH  11  21
ATOM     21  O   UNL     1     104.905 128.613 143.416  0.00  0.00    +0.000 OA
ATOM     22  C   UNL     1     104.857 128.996 144.145  0.00  0.00    +0.000 C 
ENDBRANCH  11  21
TORSDOF 3
ENDMDL
MODEL 5
REMARK VINA RESULT:      -7.6      1.237      4.342
REMARK  Name = 471722
REMARK  3 active torsions:
REMARK  status: ('A' for Active; 'I' for Inactive)
REMARK    1  A    between atoms: O_2  and  C_12
REMARK    2  A    between atoms: O_3  and  C_13
REMARK    3  A    between atoms: C_9  and  C_15
REMARK                            x       y       z     vdW  Elec       q    Type
REMARK                         _______ _______ _______ _____ _____    ______ ____
ROOT
ATOM      1  O   UNL     1     104.515 124.309 147.256  0.00  0.00    +0.000 OA
ATOM      2  O   UNL     1     107.060 125.185 146.192  0.00  0.00    +0.000 OA
ATOM      3  O   UNL     1     106.061 124.674 145.285  0.00  0.00    +0.000 OA
ATOM      4  C   UNL     1     105.804 124.753 146.720  0.00  0.00    +0.000 A 
ATOM      5  C   UNL     1     105.302 124.635 147.364  0.00  0.00    +0.000 A 
ATOM      6  C   UNL     1     106.558 125.067 146.836  0.00  0.00    +0.000 A 
ATOM      7  C   UNL     1     104.246 124.103 146.466  0.00  0.00    +0.000 A 
ATOM      8  C   UNL     1     105.553 124.553 145.923  0.00  0.00    +0.000 A 
ATOM      9  C   UNL     1     105.555 124.831 148.125  0.00  0.00    +0.000 A 
ATOM     10  C   UNL     1     106.810 125.263 147.597  0.00  0.00    +0.000 A 
ATOM     11  C   UNL     1     106.308 125.145 148.241  0.00  0.00    +0.000 A 
ATOM     12  C   UNL     1     104.769 124.225 145.795  0.00  0.00    +0.000 A 
ENDROOT
BRANCH   7  13
ATOM     13  C   UNL     1     103.492 123.789 146.352  0.00  0.00    +0.000 A 
ATOM     14  C   UNL     1     103.401 123.053 145.990  0.00  0.00    +0.000 A 
ATOM     15  C   UNL     1     102.828 124.211 146.600  0.00  0.00    +0.000 A 
ATOM     16  C   UNL     1     102.648 122.739 145.876  0.00  0.00    +0.000 A 
ATOM     17  C   UNL     1     102.073 123.896 146.486  0.00  0.00    +0.000 A 
ATOM     18  C   UNL     1     101.983 123.160 146.124  0.00  0.00    +0.000 A 
ENDBRANCH   7  13
BRANCH  10  19
ATOM     19  O   UNL     1     107.565 125.577 147.714  0.00  0.00    +0.000 OA
ATOM     20  C   UNL     1     108.213 125.073 147.790  0.00  0.00    +0.000 C 
ENDBRANCH  10  19
BRANCH  11  21
ATOM     21  O   UNL     1     106.561 125.341 149.002  0.00  0.00    +0.000 OA
ATOM     22  C   UNL     1     106.008 125.445 149.606  0.00  0.00    +0.000 C 
ENDBRANCH  11  21
TORSDOF 3
ENDMDL
MODEL 6
REMARK VINA RESULT:      -7.6     13.260     13.816
REMARK  Name = 471722
REMARK  3 active torsions:
REMARK  status: ('A' for Active; 'I' for Inactive)
REMARK    1  A    between atoms: O_2  and  C_12
REMARK    2  A    between atoms: O_3  and  C_13
REMARK    3  A    between atoms: C_9  and  C_15
REMARK                            x       y       z     vdW  Elec       q    Type
REMARK                         _______ _______ _______ _____ _____    ______ ____
ROOT
ATOM      1  O   UNL     1     112.330 126.215 136.181  0.00  0.00    +0.000 OA
ATOM      2  O   UNL     1     111.555 128.857 135.285  0.00  0.00    +0.000 OA
ATOM      3  O   UNL     1     112.817 128.691 135.966  0.00  0.00    +0.000 OA
ATOM      4  C   UNL     1     111.936 127.551 135.727  0.00  0.00    +0.000 A 
ATOM      5  C   UNL     1     111.774 126.745 135.796  0.00  0.00    +0.000 A 
ATOM      6  C   UNL     1     111.394 128.051 135.354  0.00  0.00    +0.000 A 
ATOM      7  C   UNL     1     113.064 126.529 136.500  0.00  0.00    +0.000 A 
ATOM      8  C   UNL     1     112.664 127.883 136.039  0.00  0.00    +0.000 A 
ATOM      9  C   UNL     1     111.071 126.438 135.492  0.00  0.00    +0.000 A 
ATOM     10  C   UNL     1     110.692 127.743 135.051  0.00  0.00    +0.000 A 
ATOM     11  C   UNL     1     110.530 126.937 135.119  0.00  0.00    +0.000 A 
ATOM     12  C   UNL     1     113.232 127.369 136.429  0.00  0.00    +0.000 A 
ENDROOT
BRANCH   7  13
ATOM     13  C   UNL     1     113.603 126.028 136.872  0.00  0.00    +0.000 A 
ATOM     14  C   UNL     1     114.126 125.578 136.421  0.00  0.00    +0.000 A 
ATOM     15  C   UNL     1     113.620 125.978 137.696  0.00  0.00    +0.000 A 
ATOM     16  C   UNL     1     114.666 125.077 136.792  0.00  0.00    +0.000 A 
ATOM     17  C   UNL     1     114.160 125.477 138.067  0.00  0.00    +0.000 A 
ATOM     18  C   UNL     1     114.683 125.026 137.616  0.00  0.00    +0.000 A 
ENDBRANCH   7  13
BRANCH  10  19
ATOM     19  O   UNL     1     110.150 128.242 134.678  0.00  0.00    +0.000 OA
ATOM     20  C   UNL     1     109.631 128.697 135.129  0.00  0.00    +0.000 C 
ENDBRANCH  10  19
BRANCH  11  21
ATOM     21  O   UNL     1     109.827 126.630 134.815  0.00  0.00    +0.000 OA
ATOM     22  C   UNL     1     109.728 125.813 134.750  0.00  0.00    +0.000 C 
ENDBRANCH  11  21
TORSDOF 3
ENDMDL
MODEL 7
REMARK VINA RESULT:      -7.6      0.846      1.999
REMARK  Name = 471722
REMARK  3 active torsions:
REMARK  status: ('A' for Active; 'I' for Inactive)
REMARK    1  A    between atoms: O_2  and  C_12
REMARK    2  A    between atoms: O_3  and  C_13
REMARK    3  A    between atoms: C_9  and  C_15
REMARK                            x       y       z     vdW  Elec       q    Type
REMARK                         _______ _______ _______ _____ _____    ______ ____
ROOT
ATOM      1  O   UNL     1     104.743 124.952 147.931  0.00  0.00    +0.000 OA
ATOM      2  O   UNL     1     102.953 123.841 145.945  0.00  0.00    +0.000 OA
ATOM      3  O   UNL     1     104.372 123.620 145.809  0.00  0.00    +0.000 OA
ATOM      4  C   UNL     1     103.835 124.391 146.927  0.00  0.00    +0.000 A 
ATOM      5  C   UNL     1     103.953 124.825 147.619  0.00  0.00    +0.000 A 
ATOM      6  C   UNL     1     103.070 124.275 146.637  0.00  0.00    +0.000 A 
ATOM      7  C   UNL     1     105.420 124.621 147.517  0.00  0.00    +0.000 A 
ATOM      8  C   UNL     1     104.499 124.053 146.500  0.00  0.00    +0.000 A 
ATOM      9  C   UNL     1     103.306 125.144 148.020  0.00  0.00    +0.000 A 
ATOM     10  C   UNL     1     102.425 124.595 147.039  0.00  0.00    +0.000 A 
ATOM     11  C   UNL     1     102.543 125.029 147.731  0.00  0.00    +0.000 A 
ATOM     12  C   UNL     1     105.298 124.169 146.797  0.00  0.00    +0.000 A 
ENDROOT
BRANCH   7  13
ATOM     13  C   UNL     1     106.183 124.738 147.809  0.00  0.00    +0.000 A 
ATOM     14  C   UNL     1     106.398 124.419 148.539  0.00  0.00    +0.000 A 
ATOM     15  C   UNL     1     106.730 125.173 147.371  0.00  0.00    +0.000 A 
ATOM     16  C   UNL     1     107.160 124.535 148.831  0.00  0.00    +0.000 A 
ATOM     17  C   UNL     1     107.493 125.289 147.664  0.00  0.00    +0.000 A 
ATOM     18  C   UNL     1     107.709 124.971 148.394  0.00  0.00    +0.000 A 
ENDBRANCH   7  13
BRANCH  10  19
ATOM     19  O   UNL     1     101.661 124.480 146.749  0.00  0.00    +0.000 OA
ATOM     20  C   UNL     1     101.263 123.774 146.906  0.00  0.00    +0.000 C 
ENDBRANCH  10  19
BRANCH  11  21
ATOM     21  O   UNL     1     101.896 125.348 148.132  0.00  0.00    +0.000 OA
ATOM     22  C   UNL     1     102.011 125.947 148.688  0.00  0.00    +0.000 C 
ENDBRANCH  11  21
TORSDOF 3
ENDMDL
MODEL 8
REMARK VINA RESULT:      -7.5     13.160     14.436
REMARK  Name = 471722
REMARK  3 active torsions:
REMARK  status: ('A' for Active; 'I' for Inactive)
REMARK    1  A    between atoms: O_2  and  C_12
REMARK    2  A    between atoms: O_3  and  C_13
REMARK    3  A    between atoms: C_9  and  C_15
REMARK                            x       y       z     vdW  Elec       q    Type
REMARK                         _______ _______ _______ _____ _____    ______ ____
ROOT
ATOM      1  O   UNL     1     113.778 127.196 136.363  0.00  0.00    +0.000 OA
ATOM      2  O   UNL     1     112.461 129.520 137.478  0.00  0.00    +0.000 OA
ATOM      3  O   UNL     1     112.227 128.229 138.078  0.00  0.00    +0.000 OA
ATOM      4  C   UNL     1     113.112 128.374 136.925  0.00  0.00    +0.000 A 
ATOM      5  C   UNL     1     113.618 128.040 136.365  0.00  0.00    +0.000 A 
ATOM      6  C   UNL     1     112.966 129.187 136.918  0.00  0.00    +0.000 A 
ATOM      7  C   UNL     1     113.406 126.693 136.952  0.00  0.00    +0.000 A 
ATOM      8  C   UNL     1     112.731 127.887 137.521  0.00  0.00    +0.000 A 
ATOM      9  C   UNL     1     113.978 128.519 135.798  0.00  0.00    +0.000 A 
ATOM     10  C   UNL     1     113.326 129.664 136.350  0.00  0.00    +0.000 A 
ATOM     11  C   UNL     1     113.832 129.331 135.790  0.00  0.00    +0.000 A 
ATOM     12  C   UNL     1     112.879 127.040 137.535  0.00  0.00    +0.000 A 
ENDROOT
BRANCH   7  13
ATOM     13  C   UNL     1     113.553 125.881 136.957  0.00  0.00    +0.000 A 
ATOM     14  C   UNL     1     114.227 125.587 137.331  0.00  0.00    +0.000 A 
ATOM     15  C   UNL     1     113.027 125.363 136.588  0.00  0.00    +0.000 A 
ATOM     16  C   UNL     1     114.375 124.776 137.337  0.00  0.00    +0.000 A 
ATOM     17  C   UNL     1     113.175 124.551 136.594  0.00  0.00    +0.000 A 
ATOM     18  C   UNL     1     113.849 124.257 136.968  0.00  0.00    +0.000 A 
ENDBRANCH   7  13
BRANCH  10  19
ATOM     19  O   UNL     1     113.180 130.477 136.342  0.00  0.00    +0.000 OA
ATOM     20  C   UNL     1     113.595 130.975 136.853  0.00  0.00    +0.000 C 
ENDBRANCH  10  19
BRANCH  11  21
ATOM     21  O   UNL     1     114.192 129.810 135.222  0.00  0.00    +0.000 OA
ATOM     22  C   UNL     1     114.630 129.468 134.613  0.00  0.00    +0.000 C 
ENDBRANCH  11  21
TORSDOF 3
ENDMDL
MODEL 9
REMARK VINA RESULT:      -7.5      1.506      4.081
REMARK  Name = 471722
REMARK  3 active torsions:
REMARK  status: ('A' for Active; 'I' for Inactive)
REMARK    1  A    between atoms: O_2  and  C_12
REMARK    2  A    between atoms: O_3  and  C_13
REMARK    3  A    between atoms: C_9  and  C_15
REMARK                            x       y       z     vdW  Elec       q    Type
REMARK                         _______ _______ _______ _____ _____    ______ ____
ROOT
ATOM      1  O   UNL     1     103.970 124.393 145.872  0.00  0.00    +0.000 OA
ATOM      2  O   UNL     1     106.222 124.976 147.595  0.00  0.00    +0.000 OA
ATOM      3  O   UNL     1     105.015 124.441 148.178  0.00  0.00    +0.000 OA
ATOM      4  C   UNL     1     105.111 124.689 146.742  0.00  0.00    +0.000 A 
ATOM      5  C   UNL     1     104.773 124.675 145.990  0.00  0.00    +0.000 A 
ATOM      6  C   UNL     1     105.884 124.962 146.842  0.00  0.00    +0.000 A 
ATOM      7  C   UNL     1     103.512 124.123 146.548  0.00  0.00    +0.000 A 
ATOM      8  C   UNL     1     104.669 124.423 147.429  0.00  0.00    +0.000 A 
ATOM      9  C   UNL     1     105.208 124.933 145.338  0.00  0.00    +0.000 A 
ATOM     10  C   UNL     1     106.317 125.219 146.190  0.00  0.00    +0.000 A 
ATOM     11  C   UNL     1     105.979 125.205 145.437  0.00  0.00    +0.000 A 
ATOM     12  C   UNL     1     103.864 124.138 147.331  0.00  0.00    +0.000 A 
ENDROOT
BRANCH   7  13
ATOM     13  C   UNL     1     102.740 123.851 146.445  0.00  0.00    +0.000 A 
ATOM     14  C   UNL     1     102.103 124.324 146.669  0.00  0.00    +0.000 A 
ATOM     15  C   UNL     1     102.605 123.106 146.117  0.00  0.00    +0.000 A 
ATOM     16  C   UNL     1     101.331 124.053 146.567  0.00  0.00    +0.000 A 
ATOM     17  C   UNL     1     101.832 122.835 146.014  0.00  0.00    +0.000 A 
ATOM     18  C   UNL     1     101.195 123.308 146.239  0.00  0.00    +0.000 A 
ENDBRANCH   7  13
BRANCH  10  19
ATOM     19  O   UNL     1     107.090 125.492 146.290  0.00  0.00    +0.000 OA
ATOM     20  C   UNL     1     107.225 126.233 146.626  0.00  0.00    +0.000 C 
ENDBRANCH  10  19
BRANCH  11  21
ATOM     21  O   UNL     1     106.414 125.463 144.785  0.00  0.00    +0.000 OA
ATOM     22  C   UNL     1     106.085 125.427 144.030  0.00  0.00    +0.000 C 
ENDBRANCH  11  21
TORSDOF 3
ENDMDL
MODEL 10
REMARK VINA RESULT:      -7.4     13.190     14.376
REMARK  Name = 471722
REMARK  3 active torsions:
REMARK  status: ('A' for Active; 'I' for Inactive)
REMARK    1  A    between atoms: O_2  and  C_12
REMARK    2  A    between atoms: O_3  and  C_13
REMARK    3  A    between atoms: C_9  and  C_15
REMARK                            x       y       z     vdW  Elec       q    Type
REMARK                         _______ _______ _______ _____ _____    ______ ____
ROOT
ATOM      1  O   UNL     1     113.922 127.458 136.327  0.00  0.00    +0.000 OA
ATOM      2  O   UNL     1     111.428 125.996 136.479  0.00  0.00    +0.000 OA
ATOM      3  O   UNL     1     111.409 127.367 136.029  0.00  0.00    +0.000 OA
ATOM      4  C   UNL     1     112.661 126.716 136.405  0.00  0.00    +0.000 A 
ATOM      5  C   UNL     1     113.480 126.743 136.503  0.00  0.00    +0.000 A 
ATOM      6  C   UNL     1     112.247 126.023 136.577  0.00  0.00    +0.000 A 
ATOM      7  C   UNL     1     113.506 128.155 136.045  0.00  0.00    +0.000 A 
ATOM      8  C   UNL     1     112.228 127.403 136.124  0.00  0.00    +0.000 A 
ATOM      9  C   UNL     1     113.884 126.076 136.773  0.00  0.00    +0.000 A 
ATOM     10  C   UNL     1     112.652 125.357 136.847  0.00  0.00    +0.000 A 
ATOM     11  C   UNL     1     113.471 125.384 136.945  0.00  0.00    +0.000 A 
ATOM     12  C   UNL     1     112.653 128.127 135.943  0.00  0.00    +0.000 A 
ENDROOT
BRANCH   7  13
ATOM     13  C   UNL     1     113.922 128.847 135.873  0.00  0.00    +0.000 A 
ATOM     14  C   UNL     1     113.918 129.474 136.409  0.00  0.00    +0.000 A 
ATOM     15  C   UNL     1     114.342 128.910 135.166  0.00  0.00    +0.000 A 
ATOM     16  C   UNL     1     114.333 130.165 136.238  0.00  0.00    +0.000 A 
ATOM     17  C   UNL     1     114.758 129.603 134.995  0.00  0.00    +0.000 A 
ATOM     18  C   UNL     1     114.754 130.230 135.531  0.00  0.00    +0.000 A 
ENDBRANCH   7  13
BRANCH  10  19
ATOM     19  O   UNL     1     112.238 124.664 137.020  0.00  0.00    +0.000 OA
ATOM     20  C   UNL     1     112.015 124.155 136.410  0.00  0.00    +0.000 C 
ENDBRANCH  10  19
BRANCH  11  21
ATOM     21  O   UNL     1     113.876 124.718 137.216  0.00  0.00    +0.000 OA
ATOM     22  C   UNL     1     114.668 124.779 137.439  0.00  0.00    +0.000 C 
ENDBRANCH  11  21
TORSDOF 3
ENDMDL
