MODEL 1
REMARK VINA RESULT:     -10.1      0.000      0.000
REMARK  Name = 44258620
REMARK  4 active torsions:
REMARK  status: ('A' for Active; 'I' for Inactive)
REMARK    1  A    between atoms: O_2  and  C_18
REMARK    2  A    between atoms: O_2  and  C_21
REMARK    3  A    between atoms: C_19  and  C_20
REMARK    4  A    between atoms: C_28  and  C_30
REMARK                            x       y       z     vdW  Elec       q    Type
REMARK                         _______ _______ _______ _____ _____    ______ ____
ROOT
ATOM      1  O   UNL     1     113.292 128.658 139.611  0.00  0.00    +0.000 OA
ATOM      2  O   UNL     1     112.978 128.336 138.018  0.00  0.00    +0.000 OA
ATOM      3  O   UNL     1     112.157 126.081 140.284  0.00  0.00    +0.000 OA
ATOM      4  O   UNL     1     112.659 126.922 141.343  0.00  0.00    +0.000 OA
ATOM      5  C   UNL     1     112.418 127.064 138.353  0.00  0.00    +0.000 A 
ATOM      6  C   UNL     1     112.773 127.772 138.584  0.00  0.00    +0.000 A 
ATOM      7  C   UNL     1     112.213 126.501 138.919  0.00  0.00    +0.000 A 
ATOM      8  C   UNL     1     112.922 127.917 139.383  0.00  0.00    +0.000 A 
ATOM      9  C   UNL     1     112.717 127.353 139.950  0.00  0.00    +0.000 A 
ATOM     10  C   UNL     1     112.363 126.645 139.717  0.00  0.00    +0.000 A 
ATOM     11  C   UNL     1     112.867 127.492 140.784  0.00  0.00    +0.000 A 
ATOM     12  C   UNL     1     113.450 128.814 140.442  0.00  0.00    +0.000 A 
ATOM     13  C   UNL     1     113.237 128.227 141.032  0.00  0.00    +0.000 A 
ENDROOT
BRANCH  12  17
ATOM     14  O   UNL     1     113.327 131.308 141.832  0.00  0.00    +0.000 OA
ATOM     15  O   UNL     1     115.703 130.573 140.425  0.00  0.00    +0.000 OA
ATOM     16  O   UNL     1     114.869 131.649 141.358  0.00  0.00    +0.000 OA
ATOM     17  C   UNL     1     113.805 129.523 140.671  0.00  0.00    +0.000 A 
ATOM     18  C   UNL     1     114.577 129.693 140.433  0.00  0.00    +0.000 A 
ATOM     19  C   UNL     1     113.388 130.061 141.137  0.00  0.00    +0.000 A 
ATOM     20  C   UNL     1     113.743 130.769 141.366  0.00  0.00    +0.000 A 
ATOM     21  C   UNL     1     114.931 130.402 140.663  0.00  0.00    +0.000 A 
ATOM     22  C   UNL     1     114.514 130.940 141.129  0.00  0.00    +0.000 A 
ENDBRANCH  12  17
BRANCH   5  23
ATOM     23  O   UNL     1     112.269 126.920 137.555  0.00  0.00    +0.000 OA
BRANCH  23  31
ATOM     24  O   UNL     1     113.349 126.035 137.251  0.00  0.00    +0.000 OA
ATOM     25  O   UNL     1     111.788 124.545 136.038  0.00  0.00    +0.000 OA
ATOM     26  O   UNL     1     111.228 125.927 136.746  0.00  0.00    +0.000 OA
ATOM     27  O   UNL     1     113.388 124.157 136.139  0.00  0.00    +0.000 OA
ATOM     28  C   UNL     1     112.308 125.042 136.442  0.00  0.00    +0.000 C 
ATOM     29  C   UNL     1     112.028 125.733 136.796  0.00  0.00    +0.000 C 
ATOM     30  C   UNL     1     113.108 124.847 136.493  0.00  0.00    +0.000 C 
ATOM     31  C   UNL     1     112.548 126.229 137.200  0.00  0.00    +0.000 C 
ATOM     32  C   UNL     1     113.628 125.344 136.897  0.00  0.00    +0.000 C 
BRANCH  32  35
ATOM     33  O   UNL     1     114.963 125.463 136.402  0.00  0.00    +0.000 OA
ATOM     34  O   UNL     1     114.694 124.645 137.543  0.00  0.00    +0.000 OA
ATOM     35  C   UNL     1     114.428 125.150 136.948  0.00  0.00    +0.000 C 
ENDBRANCH  32  35
ENDBRANCH  23  31
ENDBRANCH   5  23
TORSDOF 4
ENDMDL
MODEL 2
REMARK VINA RESULT:     -10.0      6.840      9.561
REMARK  Name = 44258620
REMARK  4 active torsions:
REMARK  status: ('A' for Active; 'I' for Inactive)
REMARK    1  A    between atoms: O_2  and  C_18
REMARK    2  A    between atoms: O_2  and  C_21
REMARK    3  A    between atoms: C_19  and  C_20
REMARK    4  A    between atoms: C_28  and  C_30
REMARK                            x       y       z     vdW  Elec       q    Type
REMARK                         _______ _______ _______ _____ _____    ______ ____
ROOT
ATOM      1  O   UNL     1     104.879 124.686 139.864  0.00  0.00    +0.000 OA
ATOM      2  O   UNL     1     105.075 126.194 140.517  0.00  0.00    +0.000 OA
ATOM      3  O   UNL     1     106.998 123.738 141.594  0.00  0.00    +0.000 OA
ATOM      4  O   UNL     1     106.359 122.807 140.696  0.00  0.00    +0.000 OA
ATOM      5  C   UNL     1     106.121 125.724 141.370  0.00  0.00    +0.000 A 
ATOM      6  C   UNL     1     105.556 125.581 140.786  0.00  0.00    +0.000 A 
ATOM      7  C   UNL     1     106.601 125.111 141.639  0.00  0.00    +0.000 A 
ATOM      8  C   UNL     1     105.472 124.823 140.472  0.00  0.00    +0.000 A 
ATOM      9  C   UNL     1     105.953 124.208 140.741  0.00  0.00    +0.000 A 
ATOM     10  C   UNL     1     106.517 124.353 141.325  0.00  0.00    +0.000 A 
ATOM     11  C   UNL     1     105.874 123.415 140.421  0.00  0.00    +0.000 A 
ATOM     12  C   UNL     1     104.787 123.898 139.532  0.00  0.00    +0.000 A 
ATOM     13  C   UNL     1     105.288 123.258 139.812  0.00  0.00    +0.000 A 
ENDROOT
BRANCH  12  17
ATOM     14  O   UNL     1     104.121 123.419 136.795  0.00  0.00    +0.000 OA
ATOM     15  O   UNL     1     102.058 123.529 138.768  0.00  0.00    +0.000 OA
ATOM     16  O   UNL     1     102.524 123.333 137.198  0.00  0.00    +0.000 OA
ATOM     17  C   UNL     1     104.222 123.757 138.948  0.00  0.00    +0.000 A 
ATOM     18  C   UNL     1     103.423 123.714 139.151  0.00  0.00    +0.000 A 
ATOM     19  C   UNL     1     104.455 123.659 138.163  0.00  0.00    +0.000 A 
ATOM     20  C   UNL     1     103.889 123.518 137.580  0.00  0.00    +0.000 A 
ATOM     21  C   UNL     1     102.857 123.572 138.567  0.00  0.00    +0.000 A 
ATOM     22  C   UNL     1     103.090 123.474 137.782  0.00  0.00    +0.000 A 
ENDBRANCH  12  17
BRANCH   5  23
ATOM     23  O   UNL     1     106.205 126.482 141.685  0.00  0.00    +0.000 OA
BRANCH  23  31
ATOM     24  O   UNL     1     107.523 126.776 141.218  0.00  0.00    +0.000 OA
ATOM     25  O   UNL     1     108.085 127.754 143.422  0.00  0.00    +0.000 OA
ATOM     26  O   UNL     1     106.579 127.134 143.154  0.00  0.00    +0.000 OA
ATOM     27  O   UNL     1     109.215 127.722 142.221  0.00  0.00    +0.000 OA
ATOM     28  C   UNL     1     107.898 127.428 142.687  0.00  0.00    +0.000 C 
ATOM     29  C   UNL     1     107.144 127.118 142.554  0.00  0.00    +0.000 C 
ATOM     30  C   UNL     1     108.463 127.412 142.087  0.00  0.00    +0.000 C 
ATOM     31  C   UNL     1     106.957 126.792 141.819  0.00  0.00    +0.000 C 
ATOM     32  C   UNL     1     108.275 127.087 141.353  0.00  0.00    +0.000 C 
BRANCH  32  35
ATOM     33  O   UNL     1     108.839 127.656 140.170  0.00  0.00    +0.000 OA
ATOM     34  O   UNL     1     109.406 126.471 140.733  0.00  0.00    +0.000 OA
ATOM     35  C   UNL     1     108.840 127.071 140.752  0.00  0.00    +0.000 C 
ENDBRANCH  32  35
ENDBRANCH  23  31
ENDBRANCH   5  23
TORSDOF 4
ENDMDL
MODEL 3
REMARK VINA RESULT:      -9.9      8.994     10.259
REMARK  Name = 44258620
REMARK  4 active torsions:
REMARK  status: ('A' for Active; 'I' for Inactive)
REMARK    1  A    between atoms: O_2  and  C_18
REMARK    2  A    between atoms: O_2  and  C_21
REMARK    3  A    between atoms: C_19  and  C_20
REMARK    4  A    between atoms: C_28  and  C_30
REMARK                            x       y       z     vdW  Elec       q    Type
REMARK                         _______ _______ _______ _____ _____    ______ ____
ROOT
ATOM      1  O   UNL     1     103.409 130.281 142.175  0.00  0.00    +0.000 OA
ATOM      2  O   UNL     1     104.370 129.677 143.379  0.00  0.00    +0.000 OA
ATOM      3  O   UNL     1     103.967 127.898 140.629  0.00  0.00    +0.000 OA
ATOM      4  O   UNL     1     103.105 128.910 140.068  0.00  0.00    +0.000 OA
ATOM      5  C   UNL     1     104.644 128.501 142.614  0.00  0.00    +0.000 A 
ATOM      6  C   UNL     1     104.270 129.232 142.692  0.00  0.00    +0.000 A 
ATOM      7  C   UNL     1     104.544 128.057 141.927  0.00  0.00    +0.000 A 
ATOM      8  C   UNL     1     103.794 129.519 142.082  0.00  0.00    +0.000 A 
ATOM      9  C   UNL     1     103.693 129.074 141.394  0.00  0.00    +0.000 A 
ATOM     10  C   UNL     1     104.068 128.343 141.317  0.00  0.00    +0.000 A 
ATOM     11  C   UNL     1     103.200 129.361 140.751  0.00  0.00    +0.000 A 
ATOM     12  C   UNL     1     102.912 130.585 141.542  0.00  0.00    +0.000 A 
ATOM     13  C   UNL     1     102.807 130.122 140.826  0.00  0.00    +0.000 A 
ENDROOT
BRANCH  12  17
ATOM     14  O   UNL     1     102.869 133.406 141.089  0.00  0.00    +0.000 OA
ATOM     15  O   UNL     1     100.710 132.149 142.476  0.00  0.00    +0.000 OA
ATOM     16  O   UNL     1     101.416 133.508 141.862  0.00  0.00    +0.000 OA
ATOM     17  C   UNL     1     102.538 131.316 141.622  0.00  0.00    +0.000 A 
ATOM     18  C   UNL     1     101.811 131.366 142.009  0.00  0.00    +0.000 A 
ATOM     19  C   UNL     1     102.891 131.995 141.315  0.00  0.00    +0.000 A 
ATOM     20  C   UNL     1     102.517 132.726 141.395  0.00  0.00    +0.000 A 
ATOM     21  C   UNL     1     101.437 132.098 142.089  0.00  0.00    +0.000 A 
ATOM     22  C   UNL     1     101.790 132.777 141.782  0.00  0.00    +0.000 A 
ENDBRANCH  12  17
BRANCH   5  23
ATOM     23  O   UNL     1     105.120 128.215 143.225  0.00  0.00    +0.000 OA
BRANCH  23  31
ATOM     24  O   UNL     1     106.409 128.361 142.625  0.00  0.00    +0.000 OA
ATOM     25  O   UNL     1     107.033 126.101 143.417  0.00  0.00    +0.000 OA
ATOM     26  O   UNL     1     105.536 126.708 143.752  0.00  0.00    +0.000 OA
ATOM     27  O   UNL     1     108.113 127.000 142.554  0.00  0.00    +0.000 OA
ATOM     28  C   UNL     1     106.825 126.854 143.153  0.00  0.00    +0.000 C 
ATOM     29  C   UNL     1     106.076 127.157 143.321  0.00  0.00    +0.000 C 
ATOM     30  C   UNL     1     107.365 127.303 142.721  0.00  0.00    +0.000 C 
ATOM     31  C   UNL     1     105.868 127.911 143.057  0.00  0.00    +0.000 C 
ATOM     32  C   UNL     1     107.157 128.057 142.458  0.00  0.00    +0.000 C 
BRANCH  32  35
ATOM     33  O   UNL     1     108.159 129.074 142.408  0.00  0.00    +0.000 OA
ATOM     34  O   UNL     1     107.775 128.391 141.213  0.00  0.00    +0.000 OA
ATOM     35  C   UNL     1     107.697 128.507 142.026  0.00  0.00    +0.000 C 
ENDBRANCH  32  35
ENDBRANCH  23  31
ENDBRANCH   5  23
TORSDOF 4
ENDMDL
MODEL 4
REMARK VINA RESULT:      -9.9      7.709      9.291
REMARK  Name = 44258620
REMARK  4 active torsions:
REMARK  status: ('A' for Active; 'I' for Inactive)
REMARK    1  A    between atoms: O_2  and  C_18
REMARK    2  A    between atoms: O_2  and  C_21
REMARK    3  A    between atoms: C_19  and  C_20
REMARK    4  A    between atoms: C_28  and  C_30
REMARK                            x       y       z     vdW  Elec       q    Type
REMARK                         _______ _______ _______ _____ _____    ______ ____
ROOT
ATOM      1  O   UNL     1     106.440 125.165 145.671  0.00  0.00    +0.000 OA
ATOM      2  O   UNL     1     106.098 124.215 144.359  0.00  0.00    +0.000 OA
ATOM      3  O   UNL     1     106.018 127.496 144.007  0.00  0.00    +0.000 OA
ATOM      4  O   UNL     1     106.377 127.681 145.391  0.00  0.00    +0.000 OA
ATOM      5  C   UNL     1     105.890 125.367 143.539  0.00  0.00    +0.000 A 
ATOM      6  C   UNL     1     106.078 125.035 144.271  0.00  0.00    +0.000 A 
ATOM      7  C   UNL     1     105.870 126.187 143.451  0.00  0.00    +0.000 A 
ATOM      8  C   UNL     1     106.246 125.523 144.914  0.00  0.00    +0.000 A 
ATOM      9  C   UNL     1     106.226 126.344 144.826  0.00  0.00    +0.000 A 
ATOM     10  C   UNL     1     106.038 126.675 144.095  0.00  0.00    +0.000 A 
ATOM     11  C   UNL     1     106.399 126.862 145.489  0.00  0.00    +0.000 A 
ATOM     12  C   UNL     1     106.616 125.669 146.345  0.00  0.00    +0.000 A 
ATOM     13  C   UNL     1     106.596 126.523 146.254  0.00  0.00    +0.000 A 
ENDROOT
BRANCH  12  17
ATOM     14  O   UNL     1     108.569 124.845 148.263  0.00  0.00    +0.000 OA
ATOM     15  O   UNL     1     105.788 124.486 148.811  0.00  0.00    +0.000 OA
ATOM     16  O   UNL     1     107.366 124.331 149.267  0.00  0.00    +0.000 OA
ATOM     17  C   UNL     1     106.804 125.334 147.076  0.00  0.00    +0.000 A 
ATOM     18  C   UNL     1     106.202 125.077 147.578  0.00  0.00    +0.000 A 
ATOM     19  C   UNL     1     107.593 125.257 147.304  0.00  0.00    +0.000 A 
ATOM     20  C   UNL     1     107.780 124.923 148.034  0.00  0.00    +0.000 A 
ATOM     21  C   UNL     1     106.389 124.743 148.309  0.00  0.00    +0.000 A 
ATOM     22  C   UNL     1     107.178 124.665 148.536  0.00  0.00    +0.000 A 
ENDBRANCH  12  17
BRANCH   5  23
ATOM     23  O   UNL     1     105.722 124.879 142.896  0.00  0.00    +0.000 OA
BRANCH  23  31
ATOM     24  O   UNL     1     106.927 125.020 142.141  0.00  0.00    +0.000 OA
ATOM     25  O   UNL     1     105.598 125.332 140.077  0.00  0.00    +0.000 OA
ATOM     26  O   UNL     1     104.836 125.087 141.520  0.00  0.00    +0.000 OA
ATOM     27  O   UNL     1     107.245 125.369 140.010  0.00  0.00    +0.000 OA
ATOM     28  C   UNL     1     106.041 125.228 140.765  0.00  0.00    +0.000 C 
ATOM     29  C   UNL     1     105.659 125.105 141.486  0.00  0.00    +0.000 C 
ATOM     30  C   UNL     1     106.864 125.246 140.731  0.00  0.00    +0.000 C 
ATOM     31  C   UNL     1     106.102 125.002 142.174  0.00  0.00    +0.000 C 
ATOM     32  C   UNL     1     107.308 125.142 141.419  0.00  0.00    +0.000 C 
BRANCH  32  35
ATOM     33  O   UNL     1     108.557 124.456 141.320  0.00  0.00    +0.000 OA
ATOM     34  O   UNL     1     108.530 125.882 141.420  0.00  0.00    +0.000 OA
ATOM     35  C   UNL     1     108.132 125.161 141.386  0.00  0.00    +0.000 C 
ENDBRANCH  32  35
ENDBRANCH  23  31
ENDBRANCH   5  23
TORSDOF 4
ENDMDL
MODEL 5
REMARK VINA RESULT:      -9.9      3.909      4.843
REMARK  Name = 44258620
REMARK  4 active torsions:
REMARK  status: ('A' for Active; 'I' for Inactive)
REMARK    1  A    between atoms: O_2  and  C_18
REMARK    2  A    between atoms: O_2  and  C_21
REMARK    3  A    between atoms: C_19  and  C_20
REMARK    4  A    between atoms: C_28  and  C_30
REMARK                            x       y       z     vdW  Elec       q    Type
REMARK                         _______ _______ _______ _____ _____    ______ ____
ROOT
ATOM      1  O   UNL     1     110.187 130.314 136.560  0.00  0.00    +0.000 OA
ATOM      2  O   UNL     1     111.323 129.164 136.201  0.00  0.00    +0.000 OA
ATOM      3  O   UNL     1     108.139 128.460 135.691  0.00  0.00    +0.000 OA
ATOM      4  O   UNL     1     107.746 129.765 136.166  0.00  0.00    +0.000 OA
ATOM      5  C   UNL     1     110.311 128.251 135.773  0.00  0.00    +0.000 A 
ATOM      6  C   UNL     1     110.528 128.988 136.074  0.00  0.00    +0.000 A 
ATOM      7  C   UNL     1     109.515 128.075 135.645  0.00  0.00    +0.000 A 
ATOM      8  C   UNL     1     109.948 129.549 136.247  0.00  0.00    +0.000 A 
ATOM      9  C   UNL     1     109.152 129.373 136.120  0.00  0.00    +0.000 A 
ATOM     10  C   UNL     1     108.936 128.636 135.819  0.00  0.00    +0.000 A 
ATOM     11  C   UNL     1     108.539 129.949 136.296  0.00  0.00    +0.000 A 
ATOM     12  C   UNL     1     109.587 130.902 136.743  0.00  0.00    +0.000 A 
ATOM     13  C   UNL     1     108.758 130.719 136.610  0.00  0.00    +0.000 A 
ENDROOT
BRANCH  12  17
ATOM     14  O   UNL     1     110.398 133.609 136.316  0.00  0.00    +0.000 OA
ATOM     15  O   UNL     1     110.091 132.613 138.976  0.00  0.00    +0.000 OA
ATOM     16  O   UNL     1     110.464 133.847 137.946  0.00  0.00    +0.000 OA
ATOM     17  C   UNL     1     109.806 131.639 137.043  0.00  0.00    +0.000 A 
ATOM     18  C   UNL     1     109.839 131.757 137.860  0.00  0.00    +0.000 A 
ATOM     19  C   UNL     1     109.993 132.256 136.528  0.00  0.00    +0.000 A 
ATOM     20  C   UNL     1     110.212 132.991 136.830  0.00  0.00    +0.000 A 
ATOM     21  C   UNL     1     110.058 132.494 138.160  0.00  0.00    +0.000 A 
ATOM     22  C   UNL     1     110.244 133.111 137.645  0.00  0.00    +0.000 A 
ENDBRANCH  12  17
BRANCH   5  23
ATOM     23  O   UNL     1     110.890 127.690 135.599  0.00  0.00    +0.000 OA
BRANCH  23  31
ATOM     24  O   UNL     1     110.845 126.935 136.812  0.00  0.00    +0.000 OA
ATOM     25  O   UNL     1     110.978 124.835 135.509  0.00  0.00    +0.000 OA
ATOM     26  O   UNL     1     110.978 126.290 134.731  0.00  0.00    +0.000 OA
ATOM     27  O   UNL     1     110.889 124.781 137.155  0.00  0.00    +0.000 OA
ATOM     28  C   UNL     1     110.933 125.535 135.944  0.00  0.00    +0.000 C 
ATOM     29  C   UNL     1     110.934 126.262 135.554  0.00  0.00    +0.000 C 
ATOM     30  C   UNL     1     110.889 125.508 136.766  0.00  0.00    +0.000 C 
ATOM     31  C   UNL     1     110.890 126.963 135.988  0.00  0.00    +0.000 C 
ATOM     32  C   UNL     1     110.845 126.208 137.200  0.00  0.00    +0.000 C 
BRANCH  32  35
ATOM     33  O   UNL     1     111.488 126.248 138.476  0.00  0.00    +0.000 OA
ATOM     34  O   UNL     1     110.070 126.088 138.395  0.00  0.00    +0.000 OA
ATOM     35  C   UNL     1     110.800 126.181 138.024  0.00  0.00    +0.000 C 
ENDBRANCH  32  35
ENDBRANCH  23  31
ENDBRANCH   5  23
TORSDOF 4
ENDMDL
MODEL 6
REMARK VINA RESULT:      -9.8      3.151      5.768
REMARK  Name = 44258620
REMARK  4 active torsions:
REMARK  status: ('A' for Active; 'I' for Inactive)
REMARK    1  A    between atoms: O_2  and  C_18
REMARK    2  A    between atoms: O_2  and  C_21
REMARK    3  A    between atoms: C_19  and  C_20
REMARK    4  A    between atoms: C_28  and  C_30
REMARK                            x       y       z     vdW  Elec       q    Type
REMARK                         _______ _______ _______ _____ _____    ______ ____
ROOT
ATOM      1  O   UNL     1     112.438 127.273 137.268  0.00  0.00    +0.000 OA
ATOM      2  O   UNL     1     111.089 127.823 138.054  0.00  0.00    +0.000 OA
ATOM      3  O   UNL     1     112.659 129.859 135.985  0.00  0.00    +0.000 OA
ATOM      4  O   UNL     1     113.636 128.842 135.682  0.00  0.00    +0.000 OA
ATOM      5  C   UNL     1     111.200 129.099 137.420  0.00  0.00    +0.000 A 
ATOM      6  C   UNL     1     111.481 128.332 137.537  0.00  0.00    +0.000 A 
ATOM      7  C   UNL     1     111.592 129.607 136.903  0.00  0.00    +0.000 A 
ATOM      8  C   UNL     1     112.155 128.074 137.137  0.00  0.00    +0.000 A 
ATOM      9  C   UNL     1     112.548 128.583 136.620  0.00  0.00    +0.000 A 
ATOM     10  C   UNL     1     112.266 129.350 136.503  0.00  0.00    +0.000 A 
ATOM     11  C   UNL     1     113.250 128.327 136.197  0.00  0.00    +0.000 A 
ATOM     12  C   UNL     1     113.140 126.999 136.853  0.00  0.00    +0.000 A 
ATOM     13  C   UNL     1     113.549 127.529 136.314  0.00  0.00    +0.000 A 
ENDROOT
BRANCH  12  17
ATOM     14  O   UNL     1     114.933 125.190 138.149  0.00  0.00    +0.000 OA
ATOM     15  O   UNL     1     113.020 124.204 136.269  0.00  0.00    +0.000 OA
ATOM     16  O   UNL     1     114.256 123.930 137.328  0.00  0.00    +0.000 OA
ATOM     17  C   UNL     1     113.419 126.232 136.972  0.00  0.00    +0.000 A 
ATOM     18  C   UNL     1     113.080 125.601 136.561  0.00  0.00    +0.000 A 
ATOM     19  C   UNL     1     114.037 126.095 137.502  0.00  0.00    +0.000 A 
ATOM     20  C   UNL     1     114.315 125.328 137.620  0.00  0.00    +0.000 A 
ATOM     21  C   UNL     1     113.359 124.834 136.680  0.00  0.00    +0.000 A 
ATOM     22  C   UNL     1     113.977 124.697 137.209  0.00  0.00    +0.000 A 
ENDBRANCH  12  17
BRANCH   5  23
ATOM     23  O   UNL     1     110.526 129.356 137.820  0.00  0.00    +0.000 OA
BRANCH  23  31
ATOM     24  O   UNL     1     109.595 129.201 136.747  0.00  0.00    +0.000 OA
ATOM     25  O   UNL     1     108.469 131.299 137.421  0.00  0.00    +0.000 OA
ATOM     26  O   UNL     1     109.775 130.755 138.269  0.00  0.00    +0.000 OA
ATOM     27  O   UNL     1     107.914 130.445 136.124  0.00  0.00    +0.000 OA
ATOM     28  C   UNL     1     108.844 130.600 137.196  0.00  0.00    +0.000 C 
ATOM     29  C   UNL     1     109.498 130.328 137.621  0.00  0.00    +0.000 C 
ATOM     30  C   UNL     1     108.567 130.173 136.548  0.00  0.00    +0.000 C 
ATOM     31  C   UNL     1     109.873 129.629 137.396  0.00  0.00    +0.000 C 
ATOM     32  C   UNL     1     108.942 129.474 136.323  0.00  0.00    +0.000 C 
BRANCH  32  35
ATOM     33  O   UNL     1     108.922 129.239 134.914  0.00  0.00    +0.000 OA
ATOM     34  O   UNL     1     108.132 128.426 135.786  0.00  0.00    +0.000 OA
ATOM     35  C   UNL     1     108.665 129.046 135.675  0.00  0.00    +0.000 C 
ENDBRANCH  32  35
ENDBRANCH  23  31
ENDBRANCH   5  23
TORSDOF 4
ENDMDL
MODEL 7
REMARK VINA RESULT:      -9.6      3.844      6.683
REMARK  Name = 44258620
REMARK  4 active torsions:
REMARK  status: ('A' for Active; 'I' for Inactive)
REMARK    1  A    between atoms: O_2  and  C_18
REMARK    2  A    between atoms: O_2  and  C_21
REMARK    3  A    between atoms: C_19  and  C_20
REMARK    4  A    between atoms: C_28  and  C_30
REMARK                            x       y       z     vdW  Elec       q    Type
REMARK                         _______ _______ _______ _____ _____    ______ ____
ROOT
ATOM      1  O   UNL     1     110.500 127.121 136.363  0.00  0.00    +0.000 OA
ATOM      2  O   UNL     1     109.017 127.855 136.351  0.00  0.00    +0.000 OA
ATOM      3  O   UNL     1     111.634 129.550 135.270  0.00  0.00    +0.000 OA
ATOM      4  O   UNL     1     112.503 128.429 135.532  0.00  0.00    +0.000 OA
ATOM      5  C   UNL     1     109.579 129.053 135.811  0.00  0.00    +0.000 A 
ATOM      6  C   UNL     1     109.670 128.279 136.081  0.00  0.00    +0.000 A 
ATOM      7  C   UNL     1     110.232 129.477 135.541  0.00  0.00    +0.000 A 
ATOM      8  C   UNL     1     110.417 127.928 136.080  0.00  0.00    +0.000 A 
ATOM      9  C   UNL     1     111.072 128.352 135.809  0.00  0.00    +0.000 A 
ATOM     10  C   UNL     1     110.979 129.126 135.540  0.00  0.00    +0.000 A 
ATOM     11  C   UNL     1     111.855 127.998 135.803  0.00  0.00    +0.000 A 
ATOM     12  C   UNL     1     111.276 126.750 136.364  0.00  0.00    +0.000 A 
ATOM     13  C   UNL     1     111.958 127.191 136.083  0.00  0.00    +0.000 A 
ENDROOT
BRANCH  12  17
ATOM     14  O   UNL     1     111.571 123.959 135.824  0.00  0.00    +0.000 OA
ATOM     15  O   UNL     1     111.518 124.894 138.524  0.00  0.00    +0.000 OA
ATOM     16  O   UNL     1     111.634 123.652 137.443  0.00  0.00    +0.000 OA
ATOM     17  C   UNL     1     111.366 125.975 136.634  0.00  0.00    +0.000 A 
ATOM     18  C   UNL     1     111.397 125.822 137.444  0.00  0.00    +0.000 A 
ATOM     19  C   UNL     1     111.424 125.355 136.093  0.00  0.00    +0.000 A 
ATOM     20  C   UNL     1     111.513 124.581 136.364  0.00  0.00    +0.000 A 
ATOM     21  C   UNL     1     111.487 125.048 137.714  0.00  0.00    +0.000 A 
ATOM     22  C   UNL     1     111.545 124.427 137.174  0.00  0.00    +0.000 A 
ENDBRANCH  12  17
BRANCH   5  23
ATOM     23  O   UNL     1     108.832 129.404 135.812  0.00  0.00    +0.000 OA
BRANCH  23  31
ATOM     24  O   UNL     1     108.929 130.119 137.046  0.00  0.00    +0.000 OA
ATOM     25  O   UNL     1     107.832 132.075 135.999  0.00  0.00    +0.000 OA
ATOM     26  O   UNL     1     108.100 130.708 135.114  0.00  0.00    +0.000 OA
ATOM     27  O   UNL     1     108.294 132.137 137.581  0.00  0.00    +0.000 OA
ATOM     28  C   UNL     1     108.197 131.423 136.348  0.00  0.00    +0.000 C 
ATOM     29  C   UNL     1     108.332 130.739 135.905  0.00  0.00    +0.000 C 
ATOM     30  C   UNL     1     108.428 131.454 137.139  0.00  0.00    +0.000 C 
ATOM     31  C   UNL     1     108.697 130.088 136.254  0.00  0.00    +0.000 C 
ATOM     32  C   UNL     1     108.794 130.802 137.488  0.00  0.00    +0.000 C 
BRANCH  32  35
ATOM     33  O   UNL     1     108.543 130.506 138.863  0.00  0.00    +0.000 OA
ATOM     34  O   UNL     1     109.740 131.191 138.486  0.00  0.00    +0.000 OA
ATOM     35  C   UNL     1     109.026 130.833 138.279  0.00  0.00    +0.000 C 
ENDBRANCH  32  35
ENDBRANCH  23  31
ENDBRANCH   5  23
TORSDOF 4
ENDMDL
MODEL 8
REMARK VINA RESULT:      -9.6      2.911      4.466
REMARK  Name = 44258620
REMARK  4 active torsions:
REMARK  status: ('A' for Active; 'I' for Inactive)
REMARK    1  A    between atoms: O_2  and  C_18
REMARK    2  A    between atoms: O_2  and  C_21
REMARK    3  A    between atoms: C_19  and  C_20
REMARK    4  A    between atoms: C_28  and  C_30
REMARK                            x       y       z     vdW  Elec       q    Type
REMARK                         _______ _______ _______ _____ _____    ______ ____
ROOT
ATOM      1  O   UNL     1     111.019 128.710 136.376  0.00  0.00    +0.000 OA
ATOM      2  O   UNL     1     111.979 127.648 135.545  0.00  0.00    +0.000 OA
ATOM      3  O   UNL     1     112.537 128.106 138.765  0.00  0.00    +0.000 OA
ATOM      4  O   UNL     1     111.454 129.055 138.846  0.00  0.00    +0.000 OA
ATOM      5  C   UNL     1     112.727 127.351 136.726  0.00  0.00    +0.000 A 
ATOM      6  C   UNL     1     112.119 127.762 136.349  0.00  0.00    +0.000 A 
ATOM      7  C   UNL     1     112.867 127.465 137.530  0.00  0.00    +0.000 A 
ATOM      8  C   UNL     1     111.650 128.288 136.779  0.00  0.00    +0.000 A 
ATOM      9  C   UNL     1     111.789 128.402 137.584  0.00  0.00    +0.000 A 
ATOM     10  C   UNL     1     112.398 127.991 137.959  0.00  0.00    +0.000 A 
ATOM     11  C   UNL     1     111.308 128.947 138.042  0.00  0.00    +0.000 A 
ATOM     12  C   UNL     1     110.527 129.259 136.818  0.00  0.00    +0.000 A 
ATOM     13  C   UNL     1     110.672 129.379 137.657  0.00  0.00    +0.000 A 
ENDROOT
BRANCH  12  17
ATOM     14  O   UNL     1     107.809 129.408 135.948  0.00  0.00    +0.000 OA
ATOM     15  O   UNL     1     109.598 131.571 135.418  0.00  0.00    +0.000 OA
ATOM     16  O   UNL     1     108.096 130.899 135.305  0.00  0.00    +0.000 OA
ATOM     17  C   UNL     1     109.919 129.669 136.440  0.00  0.00    +0.000 A 
ATOM     18  C   UNL     1     110.063 130.415 136.118  0.00  0.00    +0.000 A 
ATOM     19  C   UNL     1     109.167 129.333 136.383  0.00  0.00    +0.000 A 
ATOM     20  C   UNL     1     108.560 129.743 136.005  0.00  0.00    +0.000 A 
ATOM     21  C   UNL     1     109.455 130.825 135.740  0.00  0.00    +0.000 A 
ATOM     22  C   UNL     1     108.704 130.489 135.683  0.00  0.00    +0.000 A 
ENDBRANCH  12  17
BRANCH   5  23
ATOM     23  O   UNL     1     113.196 126.825 136.296  0.00  0.00    +0.000 OA
BRANCH  23  31
ATOM     24  O   UNL     1     112.570 125.595 136.665  0.00  0.00    +0.000 OA
ATOM     25  O   UNL     1     114.794 124.554 136.971  0.00  0.00    +0.000 OA
ATOM     26  O   UNL     1     114.679 126.131 136.501  0.00  0.00    +0.000 OA
ATOM     27  O   UNL     1     113.426 123.671 137.238  0.00  0.00    +0.000 OA
ATOM     28  C   UNL     1     114.053 124.901 136.869  0.00  0.00    +0.000 C 
ATOM     29  C   UNL     1     113.996 125.690 136.634  0.00  0.00    +0.000 C 
ATOM     30  C   UNL     1     113.369 124.459 137.002  0.00  0.00    +0.000 C 
ATOM     31  C   UNL     1     113.254 126.037 136.532  0.00  0.00    +0.000 C 
ATOM     32  C   UNL     1     112.628 124.806 136.900  0.00  0.00    +0.000 C 
BRANCH  32  35
ATOM     33  O   UNL     1     111.572 123.981 136.404  0.00  0.00    +0.000 OA
ATOM     34  O   UNL     1     111.630 124.308 137.794  0.00  0.00    +0.000 OA
ATOM     35  C   UNL     1     111.943 124.366 137.033  0.00  0.00    +0.000 C 
ENDBRANCH  32  35
ENDBRANCH  23  31
ENDBRANCH   5  23
TORSDOF 4
ENDMDL
MODEL 9
REMARK VINA RESULT:      -9.6      3.082      3.990
REMARK  Name = 44258620
REMARK  4 active torsions:
REMARK  status: ('A' for Active; 'I' for Inactive)
REMARK    1  A    between atoms: O_2  and  C_18
REMARK    2  A    between atoms: O_2  and  C_21
REMARK    3  A    between atoms: C_19  and  C_20
REMARK    4  A    between atoms: C_28  and  C_30
REMARK                            x       y       z     vdW  Elec       q    Type
REMARK                         _______ _______ _______ _____ _____    ______ ____
ROOT
ATOM      1  O   UNL     1     110.927 129.823 136.931  0.00  0.00    +0.000 OA
ATOM      2  O   UNL     1     110.035 128.451 136.681  0.00  0.00    +0.000 OA
ATOM      3  O   UNL     1     113.239 128.424 135.891  0.00  0.00    +0.000 OA
ATOM      4  O   UNL     1     113.385 129.794 136.322  0.00  0.00    +0.000 OA
ATOM      5  C   UNL     1     111.178 127.762 136.169  0.00  0.00    +0.000 A 
ATOM      6  C   UNL     1     110.835 128.444 136.484  0.00  0.00    +0.000 A 
ATOM      7  C   UNL     1     111.978 127.756 135.971  0.00  0.00    +0.000 A 
ATOM      8  C   UNL     1     111.295 129.119 136.602  0.00  0.00    +0.000 A 
ATOM      9  C   UNL     1     112.097 129.113 136.404  0.00  0.00    +0.000 A 
ATOM     10  C   UNL     1     112.438 128.431 136.089  0.00  0.00    +0.000 A 
ATOM     11  C   UNL     1     112.585 129.809 136.522  0.00  0.00    +0.000 A 
ATOM     12  C   UNL     1     111.401 130.529 137.056  0.00  0.00    +0.000 A 
ATOM     13  C   UNL     1     112.236 130.523 136.850  0.00  0.00    +0.000 A 
ENDROOT
BRANCH  12  17
ATOM     14  O   UNL     1     110.303 133.143 136.696  0.00  0.00    +0.000 OA
ATOM     15  O   UNL     1     110.435 131.996 139.310  0.00  0.00    +0.000 OA
ATOM     16  O   UNL     1     110.025 133.249 138.318  0.00  0.00    +0.000 OA
ATOM     17  C   UNL     1     111.057 131.209 137.371  0.00  0.00    +0.000 A 
ATOM     18  C   UNL     1     110.918 131.262 138.183  0.00  0.00    +0.000 A 
ATOM     19  C   UNL     1     110.852 131.836 136.876  0.00  0.00    +0.000 A 
ATOM     20  C   UNL     1     110.508 132.516 137.192  0.00  0.00    +0.000 A 
ATOM     21  C   UNL     1     110.574 131.943 138.499  0.00  0.00    +0.000 A 
ATOM     22  C   UNL     1     110.369 132.569 138.003  0.00  0.00    +0.000 A 
ENDBRANCH  12  17
BRANCH   5  23
ATOM     23  O   UNL     1     110.718 127.087 136.051  0.00  0.00    +0.000 OA
BRANCH  23  31
ATOM     24  O   UNL     1     111.111 126.339 137.203  0.00  0.00    +0.000 OA
ATOM     25  O   UNL     1     111.261 124.291 135.823  0.00  0.00    +0.000 OA
ATOM     26  O   UNL     1     110.819 125.722 135.130  0.00  0.00    +0.000 OA
ATOM     27  O   UNL     1     111.603 124.226 137.435  0.00  0.00    +0.000 OA
ATOM     28  C   UNL     1     111.211 124.974 136.283  0.00  0.00    +0.000 C 
ATOM     29  C   UNL     1     110.990 125.689 135.936  0.00  0.00    +0.000 C 
ATOM     30  C   UNL     1     111.382 124.941 137.089  0.00  0.00    +0.000 C 
ATOM     31  C   UNL     1     110.940 126.372 136.396  0.00  0.00    +0.000 C 
ATOM     32  C   UNL     1     111.332 125.624 137.549  0.00  0.00    +0.000 C 
BRANCH  32  35
ATOM     33  O   UNL     1     110.902 125.432 138.898  0.00  0.00    +0.000 OA
ATOM     34  O   UNL     1     112.274 125.720 138.619  0.00  0.00    +0.000 OA
ATOM     35  C   UNL     1     111.503 125.592 138.355  0.00  0.00    +0.000 C 
ENDBRANCH  32  35
ENDBRANCH  23  31
ENDBRANCH   5  23
TORSDOF 4
ENDMDL
MODEL 10
REMARK VINA RESULT:      -9.6      3.652      6.753
REMARK  Name = 44258620
REMARK  4 active torsions:
REMARK  status: ('A' for Active; 'I' for Inactive)
REMARK    1  A    between atoms: O_2  and  C_18
REMARK    2  A    between atoms: O_2  and  C_21
REMARK    3  A    between atoms: C_19  and  C_20
REMARK    4  A    between atoms: C_28  and  C_30
REMARK                            x       y       z     vdW  Elec       q    Type
REMARK                         _______ _______ _______ _____ _____    ______ ____
ROOT
ATOM      1  O   UNL     1     110.660 127.845 136.767  0.00  0.00    +0.000 OA
ATOM      2  O   UNL     1     111.552 129.234 136.897  0.00  0.00    +0.000 OA
ATOM      3  O   UNL     1     108.401 129.457 135.941  0.00  0.00    +0.000 OA
ATOM      4  O   UNL     1     108.243 128.026 136.033  0.00  0.00    +0.000 OA
ATOM      5  C   UNL     1     110.436 130.027 136.489  0.00  0.00    +0.000 A 
ATOM      6  C   UNL     1     110.765 129.290 136.658  0.00  0.00    +0.000 A 
ATOM      7  C   UNL     1     109.649 130.083 136.250  0.00  0.00    +0.000 A 
ATOM      8  C   UNL     1     110.306 128.608 136.588  0.00  0.00    +0.000 A 
ATOM      9  C   UNL     1     109.518 128.663 136.349  0.00  0.00    +0.000 A 
ATOM     10  C   UNL     1     109.190 129.401 136.180  0.00  0.00    +0.000 A 
ATOM     11  C   UNL     1     109.029 127.961 136.272  0.00  0.00    +0.000 A 
ATOM     12  C   UNL     1     110.186 127.131 136.696  0.00  0.00    +0.000 A 
ATOM     13  C   UNL     1     109.365 127.189 136.447  0.00  0.00    +0.000 A 
ENDROOT
BRANCH  12  17
ATOM     14  O   UNL     1     111.353 124.678 135.809  0.00  0.00    +0.000 OA
ATOM     15  O   UNL     1     111.005 125.166 138.603  0.00  0.00    +0.000 OA
ATOM     16  O   UNL     1     111.510 124.186 137.375  0.00  0.00    +0.000 OA
ATOM     17  C   UNL     1     110.517 126.395 136.866  0.00  0.00    +0.000 A 
ATOM     18  C   UNL     1     110.595 126.149 137.650  0.00  0.00    +0.000 A 
ATOM     19  C   UNL     1     110.770 125.905 136.252  0.00  0.00    +0.000 A 
ATOM     20  C   UNL     1     111.100 125.169 136.422  0.00  0.00    +0.000 A 
ATOM     21  C   UNL     1     110.926 125.412 137.820  0.00  0.00    +0.000 A 
ATOM     22  C   UNL     1     111.179 124.922 137.206  0.00  0.00    +0.000 A 
ENDBRANCH  12  17
BRANCH   5  23
ATOM     23  O   UNL     1     110.895 130.709 136.559  0.00  0.00    +0.000 OA
BRANCH  23  31
ATOM     24  O   UNL     1     110.458 131.140 137.850  0.00  0.00    +0.000 OA
ATOM     25  O   UNL     1     110.363 133.476 137.039  0.00  0.00    +0.000 OA
ATOM     26  O   UNL     1     110.831 132.267 136.018  0.00  0.00    +0.000 OA
ATOM     27  O   UNL     1     109.958 133.127 138.599  0.00  0.00    +0.000 OA
ATOM     28  C   UNL     1     110.395 132.697 137.309  0.00  0.00    +0.000 C 
ATOM     29  C   UNL     1     110.629 132.093 136.798  0.00  0.00    +0.000 C 
ATOM     30  C   UNL     1     110.192 132.523 138.089  0.00  0.00    +0.000 C 
ATOM     31  C   UNL     1     110.661 131.314 137.069  0.00  0.00    +0.000 C 
ATOM     32  C   UNL     1     110.224 131.744 138.360  0.00  0.00    +0.000 C 
BRANCH  32  35
ATOM     33  O   UNL     1     109.229 131.469 139.348  0.00  0.00    +0.000 OA
ATOM     34  O   UNL     1     110.611 131.496 139.713  0.00  0.00    +0.000 OA
ATOM     35  C   UNL     1     110.022 131.570 139.140  0.00  0.00    +0.000 C 
ENDBRANCH  32  35
ENDBRANCH  23  31
ENDBRANCH   5  23
TORSDOF 4
ENDMDL
