MODEL 1
REMARK VINA RESULT:      -9.1      0.000      0.000
REMARK  Name = 44258271
REMARK  6 active torsions:
REMARK  status: ('A' for Active; 'I' for Inactive)
REMARK    1  A    between atoms: O_2  and  C_18
REMARK    2  A    between atoms: O_2  and  C_20
REMARK    3  A    between atoms: O_11  and  C_32
REMARK    4  A    between atoms: O_12  and  C_33
REMARK    5  A    between atoms: C_17  and  C_19
REMARK    6  A    between atoms: C_27  and  C_29
REMARK                            x       y       z     vdW  Elec       q    Type
REMARK                         _______ _______ _______ _____ _____    ______ ____
ROOT
ATOM      1  O   UNL     1     112.796 127.692 137.268  0.00  0.00    +0.000 OA
ATOM      2  O   UNL     1     114.013 130.102 136.240  0.00  0.00    +0.000 OA
ATOM      3  O   UNL     1     114.234 128.826 135.604  0.00  0.00    +0.000 OA
ATOM      4  C   UNL     1     112.664 129.800 138.001  0.00  0.00    +0.000 A 
ATOM      5  C   UNL     1     112.540 128.950 137.947  0.00  0.00    +0.000 A 
ATOM      6  C   UNL     1     113.163 130.193 137.423  0.00  0.00    +0.000 A 
ATOM      7  C   UNL     1     112.918 128.507 137.315  0.00  0.00    +0.000 A 
ATOM      8  C   UNL     1     113.397 128.885 136.761  0.00  0.00    +0.000 A 
ATOM      9  C   UNL     1     113.532 129.732 136.799  0.00  0.00    +0.000 A 
ATOM     10  C   UNL     1     113.755 128.448 136.159  0.00  0.00    +0.000 A 
ATOM     11  C   UNL     1     113.153 127.256 136.666  0.00  0.00    +0.000 A 
ATOM     12  C   UNL     1     113.632 127.634 136.112  0.00  0.00    +0.000 A 
ENDROOT
BRANCH  11  14
ATOM     13  O   UNL     1     112.665 123.997 136.478  0.00  0.00    +0.000 OA
ATOM     14  C   UNL     1     113.031 126.441 136.619  0.00  0.00    +0.000 A 
ATOM     15  C   UNL     1     113.638 125.921 136.824  0.00  0.00    +0.000 A 
ATOM     16  C   UNL     1     112.303 126.147 136.368  0.00  0.00    +0.000 A 
ATOM     17  C   UNL     1     112.181 125.333 136.321  0.00  0.00    +0.000 A 
ATOM     18  C   UNL     1     113.516 125.106 136.777  0.00  0.00    +0.000 A 
ATOM     19  C   UNL     1     112.788 124.812 136.525  0.00  0.00    +0.000 A 
BRANCH  17  20
ATOM     20  O   UNL     1     111.453 125.038 136.070  0.00  0.00    +0.000 OA
ATOM     21  C   UNL     1     110.975 125.489 135.571  0.00  0.00    +0.000 C 
ENDBRANCH  17  20
BRANCH  18  22
ATOM     22  O   UNL     1     114.123 124.586 136.981  0.00  0.00    +0.000 OA
ATOM     23  C   UNL     1     114.704 124.819 137.518  0.00  0.00    +0.000 C 
ENDBRANCH  18  22
ENDBRANCH  11  14
BRANCH   4  24
ATOM     24  O   UNL     1     112.305 130.234 138.604  0.00  0.00    +0.000 OA
BRANCH  24  33
ATOM     25  O   UNL     1     113.432 130.383 139.471  0.00  0.00    +0.000 OA
ATOM     26  O   UNL     1     111.989 129.911 141.426  0.00  0.00    +0.000 OA
ATOM     27  O   UNL     1     113.595 130.217 141.641  0.00  0.00    +0.000 OA
ATOM     28  O   UNL     1     111.344 129.920 139.908  0.00  0.00    +0.000 OA
ATOM     29  C   UNL     1     112.470 130.068 140.774  0.00  0.00    +0.000 C 
ATOM     30  C   UNL     1     113.273 130.221 140.881  0.00  0.00    +0.000 C 
ATOM     31  C   UNL     1     112.147 130.073 140.015  0.00  0.00    +0.000 C 
ATOM     32  C   UNL     1     113.754 130.378 140.230  0.00  0.00    +0.000 C 
ATOM     33  C   UNL     1     112.628 130.230 139.363  0.00  0.00    +0.000 C 
BRANCH  32  36
ATOM     34  O   UNL     1     114.827 131.309 140.384  0.00  0.00    +0.000 OA
ATOM     35  O   UNL     1     115.091 129.905 140.398  0.00  0.00    +0.000 OA
ATOM     36  C   UNL     1     114.557 130.531 140.337  0.00  0.00    +0.000 C 
ENDBRANCH  32  36
ENDBRANCH  24  33
ENDBRANCH   4  24
TORSDOF 6
ENDMDL
MODEL 2
REMARK VINA RESULT:      -9.0      3.086      6.411
REMARK  Name = 44258271
REMARK  6 active torsions:
REMARK  status: ('A' for Active; 'I' for Inactive)
REMARK    1  A    between atoms: O_2  and  C_18
REMARK    2  A    between atoms: O_2  and  C_20
REMARK    3  A    between atoms: O_11  and  C_32
REMARK    4  A    between atoms: O_12  and  C_33
REMARK    5  A    between atoms: C_17  and  C_19
REMARK    6  A    between atoms: C_27  and  C_29
REMARK                            x       y       z     vdW  Elec       q    Type
REMARK                         _______ _______ _______ _____ _____    ______ ____
ROOT
ATOM      1  O   UNL     1     110.093 130.039 136.843  0.00  0.00    +0.000 OA
ATOM      2  O   UNL     1     108.099 128.386 135.563  0.00  0.00    +0.000 OA
ATOM      3  O   UNL     1     107.749 129.658 136.145  0.00  0.00    +0.000 OA
ATOM      4  C   UNL     1     110.293 128.044 135.857  0.00  0.00    +0.000 A 
ATOM      5  C   UNL     1     110.499 128.767 136.274  0.00  0.00    +0.000 A 
ATOM      6  C   UNL     1     109.479 127.912 135.615  0.00  0.00    +0.000 A 
ATOM      7  C   UNL     1     109.889 129.347 136.443  0.00  0.00    +0.000 A 
ATOM      8  C   UNL     1     109.108 129.220 136.210  0.00  0.00    +0.000 A 
ATOM      9  C   UNL     1     108.883 128.504 135.792  0.00  0.00    +0.000 A 
ATOM     10  C   UNL     1     108.530 129.785 136.378  0.00  0.00    +0.000 A 
ATOM     11  C   UNL     1     109.515 130.604 137.011  0.00  0.00    +0.000 A 
ATOM     12  C   UNL     1     108.734 130.477 136.778  0.00  0.00    +0.000 A 
ENDROOT
BRANCH  11  14
ATOM     13  O   UNL     1     110.331 133.372 138.612  0.00  0.00    +0.000 OA
ATOM     14  C   UNL     1     109.719 131.296 137.412  0.00  0.00    +0.000 A 
ATOM     15  C   UNL     1     109.878 131.986 136.987  0.00  0.00    +0.000 A 
ATOM     16  C   UNL     1     109.764 131.298 138.234  0.00  0.00    +0.000 A 
ATOM     17  C   UNL     1     109.968 131.990 138.635  0.00  0.00    +0.000 A 
ATOM     18  C   UNL     1     110.082 132.678 137.388  0.00  0.00    +0.000 A 
ATOM     19  C   UNL     1     110.127 132.680 138.212  0.00  0.00    +0.000 A 
BRANCH  17  20
ATOM     20  O   UNL     1     110.013 131.993 139.459  0.00  0.00    +0.000 OA
ATOM     21  C   UNL     1     110.206 131.300 139.864  0.00  0.00    +0.000 C 
ENDBRANCH  17  20
BRANCH  18  22
ATOM     22  O   UNL     1     110.240 133.368 136.965  0.00  0.00    +0.000 OA
ATOM     23  C   UNL     1     110.770 133.352 136.332  0.00  0.00    +0.000 C 
ENDBRANCH  18  22
ENDBRANCH  11  14
BRANCH   4  24
ATOM     24  O   UNL     1     110.872 127.480 135.690  0.00  0.00    +0.000 OA
BRANCH  24  33
ATOM     25  O   UNL     1     110.903 126.852 136.973  0.00  0.00    +0.000 OA
ATOM     26  O   UNL     1     111.145 124.642 135.885  0.00  0.00    +0.000 OA
ATOM     27  O   UNL     1     111.095 124.750 137.530  0.00  0.00    +0.000 OA
ATOM     28  O   UNL     1     111.033 126.007 134.965  0.00  0.00    +0.000 OA
ATOM     29  C   UNL     1     111.064 125.379 136.248  0.00  0.00    +0.000 C 
ATOM     30  C   UNL     1     111.040 125.433 137.070  0.00  0.00    +0.000 C 
ATOM     31  C   UNL     1     111.008 126.062 135.787  0.00  0.00    +0.000 C 
ATOM     32  C   UNL     1     110.959 126.170 137.433  0.00  0.00    +0.000 C 
ATOM     33  C   UNL     1     110.928 126.798 136.150  0.00  0.00    +0.000 C 
BRANCH  32  36
ATOM     34  O   UNL     1     110.216 126.141 138.654  0.00  0.00    +0.000 OA
ATOM     35  O   UNL     1     111.628 126.360 138.681  0.00  0.00    +0.000 OA
ATOM     36  C   UNL     1     110.934 126.223 138.255  0.00  0.00    +0.000 C 
ENDBRANCH  32  36
ENDBRANCH  24  33
ENDBRANCH   4  24
TORSDOF 6
ENDMDL
MODEL 3
REMARK VINA RESULT:      -8.9      1.701      2.702
REMARK  Name = 44258271
REMARK  6 active torsions:
REMARK  status: ('A' for Active; 'I' for Inactive)
REMARK    1  A    between atoms: O_2  and  C_18
REMARK    2  A    between atoms: O_2  and  C_20
REMARK    3  A    between atoms: O_11  and  C_32
REMARK    4  A    between atoms: O_12  and  C_33
REMARK    5  A    between atoms: C_17  and  C_19
REMARK    6  A    between atoms: C_27  and  C_29
REMARK                            x       y       z     vdW  Elec       q    Type
REMARK                         _______ _______ _______ _____ _____    ______ ____
ROOT
ATOM      1  O   UNL     1     112.154 127.342 137.348  0.00  0.00    +0.000 OA
ATOM      2  O   UNL     1     113.586 129.751 136.646  0.00  0.00    +0.000 OA
ATOM      3  O   UNL     1     113.802 128.520 135.926  0.00  0.00    +0.000 OA
ATOM      4  C   UNL     1     112.060 129.387 138.244  0.00  0.00    +0.000 A 
ATOM      5  C   UNL     1     111.899 128.554 138.106  0.00  0.00    +0.000 A 
ATOM      6  C   UNL     1     112.632 129.795 137.750  0.00  0.00    +0.000 A 
ATOM      7  C   UNL     1     112.313 128.141 137.476  0.00  0.00    +0.000 A 
ATOM      8  C   UNL     1     112.862 128.534 137.002  0.00  0.00    +0.000 A 
ATOM      9  C   UNL     1     113.036 129.366 137.125  0.00  0.00    +0.000 A 
ATOM     10  C   UNL     1     113.253 128.127 136.400  0.00  0.00    +0.000 A 
ATOM     11  C   UNL     1     112.545 126.935 136.746  0.00  0.00    +0.000 A 
ATOM     12  C   UNL     1     113.094 127.328 136.272  0.00  0.00    +0.000 A 
ENDROOT
BRANCH  11  14
ATOM     13  O   UNL     1     111.912 123.737 136.235  0.00  0.00    +0.000 OA
ATOM     14  C   UNL     1     112.387 126.135 136.618  0.00  0.00    +0.000 A 
ATOM     15  C   UNL     1     112.901 125.561 136.912  0.00  0.00    +0.000 A 
ATOM     16  C   UNL     1     111.715 125.910 136.197  0.00  0.00    +0.000 A 
ATOM     17  C   UNL     1     111.557 125.111 136.069  0.00  0.00    +0.000 A 
ATOM     18  C   UNL     1     112.743 124.761 136.784  0.00  0.00    +0.000 A 
ATOM     19  C   UNL     1     112.071 124.536 136.363  0.00  0.00    +0.000 A 
BRANCH  17  20
ATOM     20  O   UNL     1     110.885 124.885 135.647  0.00  0.00    +0.000 OA
ATOM     21  C   UNL     1     110.414 125.457 135.284  0.00  0.00    +0.000 C 
ENDBRANCH  17  20
BRANCH  18  22
ATOM     22  O   UNL     1     113.257 124.187 137.078  0.00  0.00    +0.000 OA
ATOM     23  C   UNL     1     114.043 124.380 137.240  0.00  0.00    +0.000 C 
ENDBRANCH  18  22
ENDBRANCH  11  14
BRANCH   4  24
ATOM     24  O   UNL     1     111.668 129.791 138.847  0.00  0.00    +0.000 OA
BRANCH  24  33
ATOM     25  O   UNL     1     110.468 130.038 138.111  0.00  0.00    +0.000 OA
ATOM     26  O   UNL     1     110.225 132.226 139.241  0.00  0.00    +0.000 OA
ATOM     27  O   UNL     1     109.107 131.744 138.129  0.00  0.00    +0.000 OA
ATOM     28  O   UNL     1     111.505 131.250 139.601  0.00  0.00    +0.000 OA
ATOM     29  C   UNL     1     110.306 131.497 138.865  0.00  0.00    +0.000 C 
ATOM     30  C   UNL     1     109.747 131.255 138.308  0.00  0.00    +0.000 C 
ATOM     31  C   UNL     1     110.947 131.008 139.044  0.00  0.00    +0.000 C 
ATOM     32  C   UNL     1     109.828 130.526 137.931  0.00  0.00    +0.000 C 
ATOM     33  C   UNL     1     111.028 130.279 138.667  0.00  0.00    +0.000 C 
BRANCH  32  36
ATOM     34  O   UNL     1     109.350 130.507 136.585  0.00  0.00    +0.000 OA
ATOM     35  O   UNL     1     108.628 129.821 137.609  0.00  0.00    +0.000 OA
ATOM     36  C   UNL     1     109.269 130.285 137.375  0.00  0.00    +0.000 C 
ENDBRANCH  32  36
ENDBRANCH  24  33
ENDBRANCH   4  24
TORSDOF 6
ENDMDL
MODEL 4
REMARK VINA RESULT:      -8.9     10.308     12.334
REMARK  Name = 44258271
REMARK  6 active torsions:
REMARK  status: ('A' for Active; 'I' for Inactive)
REMARK    1  A    between atoms: O_2  and  C_18
REMARK    2  A    between atoms: O_2  and  C_20
REMARK    3  A    between atoms: O_11  and  C_32
REMARK    4  A    between atoms: O_12  and  C_33
REMARK    5  A    between atoms: C_17  and  C_19
REMARK    6  A    between atoms: C_27  and  C_29
REMARK                            x       y       z     vdW  Elec       q    Type
REMARK                         _______ _______ _______ _____ _____    ______ ____
ROOT
ATOM      1  O   UNL     1     104.165 125.260 146.167  0.00  0.00    +0.000 OA
ATOM      2  O   UNL     1     106.963 125.075 146.859  0.00  0.00    +0.000 OA
ATOM      3  O   UNL     1     105.985 124.212 147.475  0.00  0.00    +0.000 OA
ATOM      4  C   UNL     1     105.916 126.427 145.414  0.00  0.00    +0.000 A 
ATOM      5  C   UNL     1     105.107 126.153 145.517  0.00  0.00    +0.000 A 
ATOM      6  C   UNL     1     106.547 126.063 145.868  0.00  0.00    +0.000 A 
ATOM      7  C   UNL     1     104.942 125.519 146.072  0.00  0.00    +0.000 A 
ATOM      8  C   UNL     1     105.549 125.170 146.508  0.00  0.00    +0.000 A 
ATOM      9  C   UNL     1     106.363 125.430 146.419  0.00  0.00    +0.000 A 
ATOM     10  C   UNL     1     105.378 124.561 147.039  0.00  0.00    +0.000 A 
ATOM     11  C   UNL     1     103.994 124.652 146.697  0.00  0.00    +0.000 A 
ATOM     12  C   UNL     1     104.601 124.303 147.133  0.00  0.00    +0.000 A 
ENDROOT
BRANCH  11  14
ATOM     13  O   UNL     1     100.883 123.618 147.076  0.00  0.00    +0.000 OA
ATOM     14  C   UNL     1     103.216 124.393 146.792  0.00  0.00    +0.000 A 
ATOM     15  C   UNL     1     102.706 124.798 147.299  0.00  0.00    +0.000 A 
ATOM     16  C   UNL     1     102.949 123.731 146.380  0.00  0.00    +0.000 A 
ATOM     17  C   UNL     1     102.171 123.473 146.475  0.00  0.00    +0.000 A 
ATOM     18  C   UNL     1     101.928 124.540 147.394  0.00  0.00    +0.000 A 
ATOM     19  C   UNL     1     101.661 123.877 146.982  0.00  0.00    +0.000 A 
BRANCH  17  20
ATOM     20  O   UNL     1     101.903 122.810 146.063  0.00  0.00    +0.000 OA
ATOM     21  C   UNL     1     102.016 122.758 145.247  0.00  0.00    +0.000 C 
ENDBRANCH  17  20
BRANCH  18  22
ATOM     22  O   UNL     1     101.418 124.944 147.900  0.00  0.00    +0.000 OA
ATOM     23  C   UNL     1     101.721 125.473 148.456  0.00  0.00    +0.000 C 
ENDBRANCH  18  22
ENDBRANCH  11  14
BRANCH   4  24
ATOM     24  O   UNL     1     106.084 127.036 144.883  0.00  0.00    +0.000 OA
BRANCH  24  33
ATOM     25  O   UNL     1     106.088 126.232 143.701  0.00  0.00    +0.000 OA
ATOM     26  O   UNL     1     107.945 127.588 142.785  0.00  0.00    +0.000 OA
ATOM     27  O   UNL     1     107.330 126.333 141.910  0.00  0.00    +0.000 OA
ATOM     28  O   UNL     1     107.322 127.940 144.272  0.00  0.00    +0.000 OA
ATOM     29  C   UNL     1     107.326 127.136 143.090  0.00  0.00    +0.000 C 
ATOM     30  C   UNL     1     107.018 126.508 142.653  0.00  0.00    +0.000 C 
ATOM     31  C   UNL     1     107.014 127.312 143.834  0.00  0.00    +0.000 C 
ATOM     32  C   UNL     1     106.399 126.056 142.958  0.00  0.00    +0.000 C 
ATOM     33  C   UNL     1     106.395 126.860 144.140  0.00  0.00    +0.000 C 
BRANCH  32  36
ATOM     34  O   UNL     1     106.439 124.682 142.568  0.00  0.00    +0.000 OA
ATOM     35  O   UNL     1     105.437 125.548 142.033  0.00  0.00    +0.000 OA
ATOM     36  C   UNL     1     106.092 125.429 142.520  0.00  0.00    +0.000 C 
ENDBRANCH  32  36
ENDBRANCH  24  33
ENDBRANCH   4  24
TORSDOF 6
ENDMDL
MODEL 5
REMARK VINA RESULT:      -8.9      1.661      5.465
REMARK  Name = 44258271
REMARK  6 active torsions:
REMARK  status: ('A' for Active; 'I' for Inactive)
REMARK    1  A    between atoms: O_2  and  C_18
REMARK    2  A    between atoms: O_2  and  C_20
REMARK    3  A    between atoms: O_11  and  C_32
REMARK    4  A    between atoms: O_12  and  C_33
REMARK    5  A    between atoms: C_17  and  C_19
REMARK    6  A    between atoms: C_27  and  C_29
REMARK                            x       y       z     vdW  Elec       q    Type
REMARK                         _______ _______ _______ _____ _____    ______ ____
ROOT
ATOM      1  O   UNL     1     112.615 128.622 138.292  0.00  0.00    +0.000 OA
ATOM      2  O   UNL     1     113.808 127.267 140.548  0.00  0.00    +0.000 OA
ATOM      3  O   UNL     1     114.014 128.678 140.333  0.00  0.00    +0.000 OA
ATOM      4  C   UNL     1     112.499 126.477 138.911  0.00  0.00    +0.000 A 
ATOM      5  C   UNL     1     112.375 127.200 138.462  0.00  0.00    +0.000 A 
ATOM      6  C   UNL     1     112.985 126.498 139.620  0.00  0.00    +0.000 A 
ATOM      7  C   UNL     1     112.738 127.932 138.727  0.00  0.00    +0.000 A 
ATOM      8  C   UNL     1     113.204 127.951 139.407  0.00  0.00    +0.000 A 
ATOM      9  C   UNL     1     113.340 127.239 139.869  0.00  0.00    +0.000 A 
ATOM     10  C   UNL     1     113.548 128.659 139.652  0.00  0.00    +0.000 A 
ATOM     11  C   UNL     1     112.958 129.331 138.537  0.00  0.00    +0.000 A 
ATOM     12  C   UNL     1     113.425 129.350 139.217  0.00  0.00    +0.000 A 
ENDROOT
BRANCH  11  14
ATOM     13  O   UNL     1     112.468 132.090 136.796  0.00  0.00    +0.000 OA
ATOM     14  C   UNL     1     112.835 130.021 138.102  0.00  0.00    +0.000 A 
ATOM     15  C   UNL     1     113.372 130.238 137.514  0.00  0.00    +0.000 A 
ATOM     16  C   UNL     1     112.177 130.492 138.254  0.00  0.00    +0.000 A 
ATOM     17  C   UNL     1     112.054 131.182 137.819  0.00  0.00    +0.000 A 
ATOM     18  C   UNL     1     113.250 130.928 137.078  0.00  0.00    +0.000 A 
ATOM     19  C   UNL     1     112.590 131.400 137.231  0.00  0.00    +0.000 A 
BRANCH  17  20
ATOM     20  O   UNL     1     111.396 131.655 137.971  0.00  0.00    +0.000 OA
ATOM     21  C   UNL     1     110.687 131.309 138.215  0.00  0.00    +0.000 C 
ENDBRANCH  17  20
BRANCH  18  22
ATOM     22  O   UNL     1     113.786 131.146 136.490  0.00  0.00    +0.000 OA
ATOM     23  C   UNL     1     114.251 130.572 136.124  0.00  0.00    +0.000 C 
ENDBRANCH  18  22
ENDBRANCH  11  14
BRANCH   4  24
ATOM     24  O   UNL     1     112.154 125.770 138.664  0.00  0.00    +0.000 OA
BRANCH  24  33
ATOM     25  O   UNL     1     113.291 125.356 137.904  0.00  0.00    +0.000 OA
ATOM     26  O   UNL     1     111.807 124.109 136.365  0.00  0.00    +0.000 OA
ATOM     27  O   UNL     1     113.438 124.111 136.117  0.00  0.00    +0.000 OA
ATOM     28  O   UNL     1     111.165 124.938 137.638  0.00  0.00    +0.000 OA
ATOM     29  C   UNL     1     112.302 124.524 136.878  0.00  0.00    +0.000 C 
ATOM     30  C   UNL     1     113.117 124.525 136.754  0.00  0.00    +0.000 C 
ATOM     31  C   UNL     1     111.981 124.939 137.515  0.00  0.00    +0.000 C 
ATOM     32  C   UNL     1     113.612 124.941 137.267  0.00  0.00    +0.000 C 
ATOM     33  C   UNL     1     112.475 125.355 138.028  0.00  0.00    +0.000 C 
BRANCH  32  36
ATOM     34  O   UNL     1     114.905 124.396 137.536  0.00  0.00    +0.000 OA
ATOM     35  O   UNL     1     114.765 125.489 136.626  0.00  0.00    +0.000 OA
ATOM     36  C   UNL     1     114.427 124.942 137.143  0.00  0.00    +0.000 C 
ENDBRANCH  32  36
ENDBRANCH  24  33
ENDBRANCH   4  24
TORSDOF 6
ENDMDL
MODEL 6
REMARK VINA RESULT:      -8.9      2.274      5.807
REMARK  Name = 44258271
REMARK  6 active torsions:
REMARK  status: ('A' for Active; 'I' for Inactive)
REMARK    1  A    between atoms: O_2  and  C_18
REMARK    2  A    between atoms: O_2  and  C_20
REMARK    3  A    between atoms: O_11  and  C_32
REMARK    4  A    between atoms: O_12  and  C_33
REMARK    5  A    between atoms: C_17  and  C_19
REMARK    6  A    between atoms: C_27  and  C_29
REMARK                            x       y       z     vdW  Elec       q    Type
REMARK                         _______ _______ _______ _____ _____    ______ ____
ROOT
ATOM      1  O   UNL     1     111.107 129.698 137.073  0.00  0.00    +0.000 OA
ATOM      2  O   UNL     1     113.522 128.440 136.108  0.00  0.00    +0.000 OA
ATOM      3  O   UNL     1     113.533 129.798 136.596  0.00  0.00    +0.000 OA
ATOM      4  C   UNL     1     111.436 127.642 136.261  0.00  0.00    +0.000 A 
ATOM      5  C   UNL     1     111.040 128.329 136.593  0.00  0.00    +0.000 A 
ATOM      6  C   UNL     1     112.278 127.677 136.096  0.00  0.00    +0.000 A 
ATOM      7  C   UNL     1     111.492 129.042 136.755  0.00  0.00    +0.000 A 
ATOM      8  C   UNL     1     112.301 129.075 136.596  0.00  0.00    +0.000 A 
ATOM      9  C   UNL     1     112.713 128.398 136.264  0.00  0.00    +0.000 A 
ATOM     10  C   UNL     1     112.725 129.764 136.755  0.00  0.00    +0.000 A 
ATOM     11  C   UNL     1     111.531 130.388 137.233  0.00  0.00    +0.000 A 
ATOM     12  C   UNL     1     112.340 130.421 137.074  0.00  0.00    +0.000 A 
ENDROOT
BRANCH  11  14
ATOM     13  O   UNL     1     109.991 133.014 138.506  0.00  0.00    +0.000 OA
ATOM     14  C   UNL     1     111.146 131.044 137.551  0.00  0.00    +0.000 A 
ATOM     15  C   UNL     1     110.893 131.654 137.056  0.00  0.00    +0.000 A 
ATOM     16  C   UNL     1     111.014 131.091 138.363  0.00  0.00    +0.000 A 
ATOM     17  C   UNL     1     110.628 131.747 138.682  0.00  0.00    +0.000 A 
ATOM     18  C   UNL     1     110.508 132.311 137.374  0.00  0.00    +0.000 A 
ATOM     19  C   UNL     1     110.376 132.357 138.187  0.00  0.00    +0.000 A 
BRANCH  17  20
ATOM     20  O   UNL     1     110.496 131.795 139.494  0.00  0.00    +0.000 OA
ATOM     21  C   UNL     1     110.200 131.141 139.903  0.00  0.00    +0.000 C 
ENDBRANCH  17  20
BRANCH  18  22
ATOM     22  O   UNL     1     110.255 132.921 136.880  0.00  0.00    +0.000 OA
ATOM     23  C   UNL     1     109.837 132.746 136.190  0.00  0.00    +0.000 C 
ENDBRANCH  18  22
ENDBRANCH  11  14
BRANCH   4  24
ATOM     24  O   UNL     1     111.009 126.953 136.103  0.00  0.00    +0.000 OA
BRANCH  24  33
ATOM     25  O   UNL     1     111.154 126.333 137.382  0.00  0.00    +0.000 OA
ATOM     26  O   UNL     1     111.465 124.138 136.281  0.00  0.00    +0.000 OA
ATOM     27  O   UNL     1     111.505 124.249 137.926  0.00  0.00    +0.000 OA
ATOM     28  O   UNL     1     111.217 125.490 135.369  0.00  0.00    +0.000 OA
ATOM     29  C   UNL     1     111.361 124.869 136.648  0.00  0.00    +0.000 C 
ATOM     30  C   UNL     1     111.381 124.926 137.471  0.00  0.00    +0.000 C 
ATOM     31  C   UNL     1     111.237 125.546 136.192  0.00  0.00    +0.000 C 
ATOM     32  C   UNL     1     111.278 125.657 137.838  0.00  0.00    +0.000 C 
ATOM     33  C   UNL     1     111.133 126.278 136.558  0.00  0.00    +0.000 C 
BRANCH  32  36
ATOM     34  O   UNL     1     112.012 125.857 139.047  0.00  0.00    +0.000 OA
ATOM     35  O   UNL     1     110.604 125.623 139.096  0.00  0.00    +0.000 OA
ATOM     36  C   UNL     1     111.298 125.713 138.660  0.00  0.00    +0.000 C 
ENDBRANCH  32  36
ENDBRANCH  24  33
ENDBRANCH   4  24
TORSDOF 6
ENDMDL
MODEL 7
REMARK VINA RESULT:      -8.8      2.770      3.579
REMARK  Name = 44258271
REMARK  6 active torsions:
REMARK  status: ('A' for Active; 'I' for Inactive)
REMARK    1  A    between atoms: O_2  and  C_18
REMARK    2  A    between atoms: O_2  and  C_20
REMARK    3  A    between atoms: O_11  and  C_32
REMARK    4  A    between atoms: O_12  and  C_33
REMARK    5  A    between atoms: C_17  and  C_19
REMARK    6  A    between atoms: C_27  and  C_29
REMARK                            x       y       z     vdW  Elec       q    Type
REMARK                         _______ _______ _______ _____ _____    ______ ____
ROOT
ATOM      1  O   UNL     1     111.216 128.260 137.130  0.00  0.00    +0.000 OA
ATOM      2  O   UNL     1     113.127 130.384 136.705  0.00  0.00    +0.000 OA
ATOM      3  O   UNL     1     113.542 129.100 137.212  0.00  0.00    +0.000 OA
ATOM      4  C   UNL     1     110.913 130.339 136.369  0.00  0.00    +0.000 A 
ATOM      5  C   UNL     1     110.744 129.534 136.618  0.00  0.00    +0.000 A 
ATOM      6  C   UNL     1     111.721 130.630 136.397  0.00  0.00    +0.000 A 
ATOM      7  C   UNL     1     111.384 129.032 136.892  0.00  0.00    +0.000 A 
ATOM      8  C   UNL     1     112.160 129.312 136.920  0.00  0.00    +0.000 A 
ATOM      9  C   UNL     1     112.348 130.113 136.674  0.00  0.00    +0.000 A 
ATOM     10  C   UNL     1     112.767 128.820 137.185  0.00  0.00    +0.000 A 
ATOM     11  C   UNL     1     111.823 127.768 137.396  0.00  0.00    +0.000 A 
ATOM     12  C   UNL     1     112.598 128.048 137.423  0.00  0.00    +0.000 A 
ENDROOT
BRANCH  11  14
ATOM     13  O   UNL     1     111.149 124.681 138.349  0.00  0.00    +0.000 OA
ATOM     14  C   UNL     1     111.654 126.996 137.634  0.00  0.00    +0.000 A 
ATOM     15  C   UNL     1     111.536 126.828 138.433  0.00  0.00    +0.000 A 
ATOM     16  C   UNL     1     111.604 126.394 137.074  0.00  0.00    +0.000 A 
ATOM     17  C   UNL     1     111.435 125.622 137.312  0.00  0.00    +0.000 A 
ATOM     18  C   UNL     1     111.367 126.056 138.671  0.00  0.00    +0.000 A 
ATOM     19  C   UNL     1     111.317 125.453 138.111  0.00  0.00    +0.000 A 
BRANCH  17  20
ATOM     20  O   UNL     1     111.385 125.018 136.752  0.00  0.00    +0.000 OA
ATOM     21  C   UNL     1     111.034 125.164 136.019  0.00  0.00    +0.000 C 
ENDBRANCH  17  20
BRANCH  18  22
ATOM     22  O   UNL     1     111.249 125.888 139.470  0.00  0.00    +0.000 OA
ATOM     23  C   UNL     1     110.888 126.445 139.960  0.00  0.00    +0.000 C 
ENDBRANCH  18  22
ENDBRANCH  11  14
BRANCH   4  24
ATOM     24  O   UNL     1     110.304 130.829 136.104  0.00  0.00    +0.000 OA
BRANCH  24  33
ATOM     25  O   UNL     1     110.153 131.623 137.283  0.00  0.00    +0.000 OA
ATOM     26  O   UNL     1     107.694 131.557 137.013  0.00  0.00    +0.000 OA
ATOM     27  O   UNL     1     108.363 132.372 138.281  0.00  0.00    +0.000 OA
ATOM     28  O   UNL     1     108.664 130.785 135.924  0.00  0.00    +0.000 OA
ATOM     29  C   UNL     1     108.514 131.579 137.103  0.00  0.00    +0.000 C 
ATOM     30  C   UNL     1     108.849 131.986 137.737  0.00  0.00    +0.000 C 
ATOM     31  C   UNL     1     109.000 131.193 136.558  0.00  0.00    +0.000 C 
ATOM     32  C   UNL     1     109.669 132.008 137.827  0.00  0.00    +0.000 C 
ATOM     33  C   UNL     1     109.819 131.214 136.648  0.00  0.00    +0.000 C 
BRANCH  32  36
ATOM     34  O   UNL     1     110.225 133.206 138.373  0.00  0.00    +0.000 OA
ATOM     35  O   UNL     1     110.115 132.034 139.183  0.00  0.00    +0.000 OA
ATOM     36  C   UNL     1     110.003 132.416 138.461  0.00  0.00    +0.000 C 
ENDBRANCH  32  36
ENDBRANCH  24  33
ENDBRANCH   4  24
TORSDOF 6
ENDMDL
MODEL 8
REMARK VINA RESULT:      -8.7      1.023      5.556
REMARK  Name = 44258271
REMARK  6 active torsions:
REMARK  status: ('A' for Active; 'I' for Inactive)
REMARK    1  A    between atoms: O_2  and  C_18
REMARK    2  A    between atoms: O_2  and  C_20
REMARK    3  A    between atoms: O_11  and  C_32
REMARK    4  A    between atoms: O_12  and  C_33
REMARK    5  A    between atoms: C_17  and  C_19
REMARK    6  A    between atoms: C_27  and  C_29
REMARK                            x       y       z     vdW  Elec       q    Type
REMARK                         _______ _______ _______ _____ _____    ______ ____
ROOT
ATOM      1  O   UNL     1     113.140 128.553 138.453  0.00  0.00    +0.000 OA
ATOM      2  O   UNL     1     112.210 129.086 135.770  0.00  0.00    +0.000 OA
ATOM      3  O   UNL     1     111.986 130.030 136.837  0.00  0.00    +0.000 OA
ATOM      4  C   UNL     1     113.319 127.323 136.594  0.00  0.00    +0.000 A 
ATOM      5  C   UNL     1     113.393 127.568 137.415  0.00  0.00    +0.000 A 
ATOM      6  C   UNL     1     112.918 127.837 136.034  0.00  0.00    +0.000 A 
ATOM      7  C   UNL     1     113.066 128.323 137.664  0.00  0.00    +0.000 A 
ATOM      8  C   UNL     1     112.681 128.815 137.125  0.00  0.00    +0.000 A 
ATOM      9  C   UNL     1     112.597 128.587 136.301  0.00  0.00    +0.000 A 
ATOM     10  C   UNL     1     112.371 129.537 137.375  0.00  0.00    +0.000 A 
ATOM     11  C   UNL     1     112.830 129.275 138.703  0.00  0.00    +0.000 A 
ATOM     12  C   UNL     1     112.445 129.767 138.164  0.00  0.00    +0.000 A 
ENDROOT
BRANCH  11  14
ATOM     13  O   UNL     1     113.129 130.195 141.858  0.00  0.00    +0.000 OA
ATOM     14  C   UNL     1     112.905 129.505 139.492  0.00  0.00    +0.000 A 
ATOM     15  C   UNL     1     113.508 130.022 139.715  0.00  0.00    +0.000 A 
ATOM     16  C   UNL     1     112.377 129.218 140.056  0.00  0.00    +0.000 A 
ATOM     17  C   UNL     1     112.452 129.448 140.845  0.00  0.00    +0.000 A 
ATOM     18  C   UNL     1     113.582 130.252 140.504  0.00  0.00    +0.000 A 
ATOM     19  C   UNL     1     113.055 129.965 141.069  0.00  0.00    +0.000 A 
BRANCH  17  20
ATOM     20  O   UNL     1     111.925 129.161 141.411  0.00  0.00    +0.000 OA
ATOM     21  C   UNL     1     111.703 128.366 141.403  0.00  0.00    +0.000 C 
ENDBRANCH  17  20
BRANCH  18  22
ATOM     22  O   UNL     1     114.185 130.770 140.727  0.00  0.00    +0.000 OA
ATOM     23  C   UNL     1     114.950 130.662 140.437  0.00  0.00    +0.000 C 
ENDBRANCH  18  22
ENDBRANCH  11  14
BRANCH   4  24
ATOM     24  O   UNL     1     113.630 126.600 136.347  0.00  0.00    +0.000 OA
BRANCH  24  33
ATOM     25  O   UNL     1     112.391 125.888 136.344  0.00  0.00    +0.000 OA
ATOM     26  O   UNL     1     113.563 123.846 137.107  0.00  0.00    +0.000 OA
ATOM     27  O   UNL     1     111.935 123.815 136.850  0.00  0.00    +0.000 OA
ATOM     28  O   UNL     1     114.411 125.239 136.855  0.00  0.00    +0.000 OA
ATOM     29  C   UNL     1     113.173 124.527 136.853  0.00  0.00    +0.000 C 
ATOM     30  C   UNL     1     112.358 124.512 136.724  0.00  0.00    +0.000 C 
ATOM     31  C   UNL     1     113.597 125.224 136.727  0.00  0.00    +0.000 C 
ATOM     32  C   UNL     1     111.967 125.192 136.470  0.00  0.00    +0.000 C 
ATOM     33  C   UNL     1     113.206 125.905 136.473  0.00  0.00    +0.000 C 
BRANCH  32  36
ATOM     34  O   UNL     1     110.855 124.983 135.597  0.00  0.00    +0.000 OA
ATOM     35  O   UNL     1     110.635 125.354 136.959  0.00  0.00    +0.000 OA
ATOM     36  C   UNL     1     111.153 125.176 136.342  0.00  0.00    +0.000 C 
ENDBRANCH  32  36
ENDBRANCH  24  33
ENDBRANCH   4  24
TORSDOF 6
ENDMDL
