MODEL 1
REMARK VINA RESULT:      -9.7      0.000      0.000
REMARK  Name = 44258736
REMARK  4 active torsions:
REMARK  status: ('A' for Active; 'I' for Inactive)
REMARK    1  A    between atoms: O_2  and  C_16
REMARK    2  A    between atoms: O_2  and  C_18
REMARK    3  A    between atoms: C_15  and  C_17
REMARK    4  A    between atoms: C_19  and  C_23
REMARK                            x       y       z     vdW  Elec       q    Type
REMARK                         _______ _______ _______ _____ _____    ______ ____
ROOT
ATOM      1  O   UNL     1     105.632 124.461 147.797  0.00  0.00    +0.000 OA
ATOM      2  O   UNL     1     107.021 125.603 146.095  0.00  0.00    +0.000 OA
ATOM      3  O   UNL     1     108.170 125.567 146.968  0.00  0.00    +0.000 OA
ATOM      4  O   UNL     1     107.908 124.353 149.611  0.00  0.00    +0.000 OA
ATOM      5  C   UNL     1     105.765 125.056 146.504  0.00  0.00    +0.000 A 
ATOM      6  C   UNL     1     105.302 124.675 147.072  0.00  0.00    +0.000 A 
ATOM      7  C   UNL     1     106.558 125.222 146.663  0.00  0.00    +0.000 A 
ATOM      8  C   UNL     1     106.887 125.007 147.388  0.00  0.00    +0.000 A 
ATOM      9  C   UNL     1     106.425 124.627 147.955  0.00  0.00    +0.000 A 
ATOM     10  C   UNL     1     107.714 125.186 147.541  0.00  0.00    +0.000 A 
ATOM     11  C   UNL     1     106.756 124.398 148.714  0.00  0.00    +0.000 A 
ATOM     12  C   UNL     1     108.063 124.965 148.294  0.00  0.00    +0.000 A 
ATOM     13  C   UNL     1     107.581 124.569 148.885  0.00  0.00    +0.000 A 
ENDROOT
BRANCH   6  15
ATOM     14  O   UNL     1     102.132 124.014 146.438  0.00  0.00    +0.000 OA
ATOM     15  C   UNL     1     104.510 124.510 146.913  0.00  0.00    +0.000 A 
ATOM     16  C   UNL     1     104.312 123.911 146.381  0.00  0.00    +0.000 A 
ATOM     17  C   UNL     1     103.915 124.943 147.287  0.00  0.00    +0.000 A 
ATOM     18  C   UNL     1     103.519 123.746 146.223  0.00  0.00    +0.000 A 
ATOM     19  C   UNL     1     103.123 124.778 147.128  0.00  0.00    +0.000 A 
ATOM     20  C   UNL     1     102.925 124.179 146.596  0.00  0.00    +0.000 A 
ENDBRANCH   6  15
BRANCH   5  21
ATOM     21  O   UNL     1     105.436 125.271 145.779  0.00  0.00    +0.000 OA
BRANCH  21  30
ATOM     22  O   UNL     1     105.370 126.665 146.087  0.00  0.00    +0.000 OA
ATOM     23  O   UNL     1     105.686 127.208 143.693  0.00  0.00    +0.000 OA
ATOM     24  O   UNL     1     105.515 128.420 144.798  0.00  0.00    +0.000 OA
ATOM     25  O   UNL     1     105.647 125.633 144.183  0.00  0.00    +0.000 OA
ATOM     26  C   UNL     1     105.581 127.027 144.491  0.00  0.00    +0.000 C 
ATOM     27  C   UNL     1     105.495 127.633 145.044  0.00  0.00    +0.000 C 
ATOM     28  C   UNL     1     105.561 126.239 144.736  0.00  0.00    +0.000 C 
ATOM     29  C   UNL     1     105.390 127.452 145.842  0.00  0.00    +0.000 C 
ATOM     30  C   UNL     1     105.456 126.058 145.534  0.00  0.00    +0.000 C 
BRANCH  29  32
ATOM     31  O   UNL     1     104.660 128.059 146.910  0.00  0.00    +0.000 OA
ATOM     32  C   UNL     1     105.304 128.058 146.394  0.00  0.00    +0.000 C 
ENDBRANCH  29  32
ENDBRANCH  21  30
ENDBRANCH   5  21
TORSDOF 4
ENDMDL
MODEL 2
REMARK VINA RESULT:      -9.2     10.509     12.656
REMARK  Name = 44258736
REMARK  4 active torsions:
REMARK  status: ('A' for Active; 'I' for Inactive)
REMARK    1  A    between atoms: O_2  and  C_16
REMARK    2  A    between atoms: O_2  and  C_18
REMARK    3  A    between atoms: C_15  and  C_17
REMARK    4  A    between atoms: C_19  and  C_23
REMARK                            x       y       z     vdW  Elec       q    Type
REMARK                         _______ _______ _______ _____ _____    ______ ____
ROOT
ATOM      1  O   UNL     1     111.918 125.766 136.032  0.00  0.00    +0.000 OA
ATOM      2  O   UNL     1     111.860 128.217 135.685  0.00  0.00    +0.000 OA
ATOM      3  O   UNL     1     110.592 128.120 135.005  0.00  0.00    +0.000 OA
ATOM      4  O   UNL     1     109.358 125.493 134.670  0.00  0.00    +0.000 OA
ATOM      5  C   UNL     1     112.517 127.054 136.194  0.00  0.00    +0.000 A 
ATOM      6  C   UNL     1     112.536 126.237 136.309  0.00  0.00    +0.000 A 
ATOM      7  C   UNL     1     111.879 127.399 135.801  0.00  0.00    +0.000 A 
ATOM      8  C   UNL     1     111.261 126.929 135.524  0.00  0.00    +0.000 A 
ATOM      9  C   UNL     1     111.280 126.113 135.639  0.00  0.00    +0.000 A 
ATOM     10  C   UNL     1     110.602 127.302 135.116  0.00  0.00    +0.000 A 
ATOM     11  C   UNL     1     110.643 125.612 135.356  0.00  0.00    +0.000 A 
ATOM     12  C   UNL     1     109.956 126.817 134.826  0.00  0.00    +0.000 A 
ATOM     13  C   UNL     1     109.975 125.966 134.946  0.00  0.00    +0.000 A 
ENDROOT
BRANCH   6  15
ATOM     14  O   UNL     1     115.089 124.854 137.878  0.00  0.00    +0.000 OA
ATOM     15  C   UNL     1     113.174 125.891 136.702  0.00  0.00    +0.000 A 
ATOM     16  C   UNL     1     113.087 125.628 137.479  0.00  0.00    +0.000 A 
ATOM     17  C   UNL     1     113.900 125.809 136.317  0.00  0.00    +0.000 A 
ATOM     18  C   UNL     1     113.726 125.282 137.871  0.00  0.00    +0.000 A 
ATOM     19  C   UNL     1     114.537 125.463 136.709  0.00  0.00    +0.000 A 
ATOM     20  C   UNL     1     114.451 125.200 137.486  0.00  0.00    +0.000 A 
ENDBRANCH   6  15
BRANCH   5  21
ATOM     21  O   UNL     1     113.136 127.524 136.471  0.00  0.00    +0.000 OA
BRANCH  21  30
ATOM     22  O   UNL     1     112.404 128.058 137.576  0.00  0.00    +0.000 OA
ATOM     23  O   UNL     1     113.668 130.178 137.390  0.00  0.00    +0.000 OA
ATOM     24  O   UNL     1     112.515 130.004 138.556  0.00  0.00    +0.000 OA
ATOM     25  O   UNL     1     113.979 128.937 136.347  0.00  0.00    +0.000 OA
ATOM     26  C   UNL     1     113.247 129.471 137.452  0.00  0.00    +0.000 C 
ATOM     27  C   UNL     1     112.670 129.384 138.035  0.00  0.00    +0.000 C 
ATOM     28  C   UNL     1     113.402 128.850 136.930  0.00  0.00    +0.000 C 
ATOM     29  C   UNL     1     112.248 128.677 138.097  0.00  0.00    +0.000 C 
ATOM     30  C   UNL     1     112.980 128.144 136.992  0.00  0.00    +0.000 C 
BRANCH  29  32
ATOM     31  O   UNL     1     111.747 128.000 139.251  0.00  0.00    +0.000 OA
ATOM     32  C   UNL     1     111.672 128.591 138.680  0.00  0.00    +0.000 C 
ENDBRANCH  29  32
ENDBRANCH  21  30
ENDBRANCH   5  21
TORSDOF 4
ENDMDL
MODEL 3
REMARK VINA RESULT:      -9.2      1.393      3.824
REMARK  Name = 44258736
REMARK  4 active torsions:
REMARK  status: ('A' for Active; 'I' for Inactive)
REMARK    1  A    between atoms: O_2  and  C_16
REMARK    2  A    between atoms: O_2  and  C_18
REMARK    3  A    between atoms: C_15  and  C_17
REMARK    4  A    between atoms: C_19  and  C_23
REMARK                            x       y       z     vdW  Elec       q    Type
REMARK                         _______ _______ _______ _____ _____    ______ ____
ROOT
ATOM      1  O   UNL     1     102.648 124.825 147.278  0.00  0.00    +0.000 OA
ATOM      2  O   UNL     1     104.614 123.624 146.372  0.00  0.00    +0.000 OA
ATOM      3  O   UNL     1     103.761 122.746 145.608  0.00  0.00    +0.000 OA
ATOM      4  O   UNL     1     100.865 123.090 145.765  0.00  0.00    +0.000 OA
ATOM      5  C   UNL     1     104.065 124.652 147.198  0.00  0.00    +0.000 A 
ATOM      6  C   UNL     1     103.410 125.053 147.500  0.00  0.00    +0.000 A 
ATOM      7  C   UNL     1     103.959 124.024 146.674  0.00  0.00    +0.000 A 
ATOM      8  C   UNL     1     103.197 123.796 146.452  0.00  0.00    +0.000 A 
ATOM      9  C   UNL     1     102.543 124.196 146.754  0.00  0.00    +0.000 A 
ATOM     10  C   UNL     1     103.100 123.140 145.905  0.00  0.00    +0.000 A 
ATOM     11  C   UNL     1     101.745 123.969 146.531  0.00  0.00    +0.000 A 
ATOM     12  C   UNL     1     102.310 122.899 145.671  0.00  0.00    +0.000 A 
ATOM     13  C   UNL     1     101.627 123.315 145.985  0.00  0.00    +0.000 A 
ENDROOT
BRANCH   6  15
ATOM     14  O   UNL     1     103.838 127.564 149.599  0.00  0.00    +0.000 OA
ATOM     15  C   UNL     1     103.516 125.681 148.024  0.00  0.00    +0.000 A 
ATOM     16  C   UNL     1     103.393 126.456 147.770  0.00  0.00    +0.000 A 
ATOM     17  C   UNL     1     103.747 125.533 148.803  0.00  0.00    +0.000 A 
ATOM     18  C   UNL     1     103.500 127.084 148.296  0.00  0.00    +0.000 A 
ATOM     19  C   UNL     1     103.854 126.161 149.327  0.00  0.00    +0.000 A 
ATOM     20  C   UNL     1     103.730 126.936 149.073  0.00  0.00    +0.000 A 
ENDBRANCH   6  15
BRANCH   5  21
ATOM     21  O   UNL     1     104.827 124.880 147.420  0.00  0.00    +0.000 OA
BRANCH  21  30
ATOM     22  O   UNL     1     105.095 125.513 146.167  0.00  0.00    +0.000 OA
ATOM     23  O   UNL     1     107.519 125.129 146.493  0.00  0.00    +0.000 OA
ATOM     24  O   UNL     1     106.980 125.889 145.132  0.00  0.00    +0.000 OA
ATOM     25  O   UNL     1     106.442 124.625 147.638  0.00  0.00    +0.000 OA
ATOM     26  C   UNL     1     106.711 125.257 146.385  0.00  0.00    +0.000 C 
ATOM     27  C   UNL     1     106.441 125.637 145.704  0.00  0.00    +0.000 C 
ATOM     28  C   UNL     1     106.172 125.005 146.957  0.00  0.00    +0.000 C 
ATOM     29  C   UNL     1     105.633 125.765 145.595  0.00  0.00    +0.000 C 
ATOM     30  C   UNL     1     105.364 125.132 146.848  0.00  0.00    +0.000 C 
BRANCH  29  32
ATOM     31  O   UNL     1     105.085 126.920 144.957  0.00  0.00    +0.000 OA
ATOM     32  C   UNL     1     105.364 126.145 144.915  0.00  0.00    +0.000 C 
ENDBRANCH  29  32
ENDBRANCH  21  30
ENDBRANCH   5  21
TORSDOF 4
ENDMDL
MODEL 4
REMARK VINA RESULT:      -9.2      9.758     11.669
REMARK  Name = 44258736
REMARK  4 active torsions:
REMARK  status: ('A' for Active; 'I' for Inactive)
REMARK    1  A    between atoms: O_2  and  C_16
REMARK    2  A    between atoms: O_2  and  C_18
REMARK    3  A    between atoms: C_15  and  C_17
REMARK    4  A    between atoms: C_19  and  C_23
REMARK                            x       y       z     vdW  Elec       q    Type
REMARK                         _______ _______ _______ _____ _____    ______ ____
ROOT
ATOM      1  O   UNL     1     112.895 126.067 138.613  0.00  0.00    +0.000 OA
ATOM      2  O   UNL     1     110.594 125.686 137.783  0.00  0.00    +0.000 OA
ATOM      3  O   UNL     1     110.037 126.138 139.036  0.00  0.00    +0.000 OA
ATOM      4  O   UNL     1     111.844 126.991 141.167  0.00  0.00    +0.000 OA
ATOM      5  C   UNL     1     112.007 125.651 137.573  0.00  0.00    +0.000 A 
ATOM      6  C   UNL     1     112.774 125.778 137.849  0.00  0.00    +0.000 A 
ATOM      7  C   UNL     1     111.361 125.813 138.060  0.00  0.00    +0.000 A 
ATOM      8  C   UNL     1     111.482 126.103 138.823  0.00  0.00    +0.000 A 
ATOM      9  C   UNL     1     112.249 126.229 139.099  0.00  0.00    +0.000 A 
ATOM     10  C   UNL     1     110.801 126.268 139.320  0.00  0.00    +0.000 A 
ATOM     11  C   UNL     1     112.389 126.530 139.891  0.00  0.00    +0.000 A 
ATOM     12  C   UNL     1     110.921 126.569 140.116  0.00  0.00    +0.000 A 
ATOM     13  C   UNL     1     111.720 126.701 140.404  0.00  0.00    +0.000 A 
ENDROOT
BRANCH   6  15
ATOM     14  O   UNL     1     115.357 125.131 135.900  0.00  0.00    +0.000 OA
ATOM     15  C   UNL     1     113.420 125.616 137.362  0.00  0.00    +0.000 A 
ATOM     16  C   UNL     1     113.649 124.835 137.226  0.00  0.00    +0.000 A 
ATOM     17  C   UNL     1     113.837 126.235 137.011  0.00  0.00    +0.000 A 
ATOM     18  C   UNL     1     114.294 124.674 136.739  0.00  0.00    +0.000 A 
ATOM     19  C   UNL     1     114.483 126.073 136.523  0.00  0.00    +0.000 A 
ATOM     20  C   UNL     1     114.711 125.292 136.387  0.00  0.00    +0.000 A 
ENDBRANCH   6  15
BRANCH   5  21
ATOM     21  O   UNL     1     111.886 125.362 136.810  0.00  0.00    +0.000 OA
BRANCH  21  30
ATOM     22  O   UNL     1     111.466 126.618 136.274  0.00  0.00    +0.000 OA
ATOM     23  O   UNL     1     110.012 125.441 134.654  0.00  0.00    +0.000 OA
ATOM     24  O   UNL     1     110.076 127.089 134.658  0.00  0.00    +0.000 OA
ATOM     25  O   UNL     1     110.917 124.577 135.730  0.00  0.00    +0.000 OA
ATOM     26  C   UNL     1     110.496 125.833 135.194  0.00  0.00    +0.000 C 
ATOM     27  C   UNL     1     110.529 126.657 135.196  0.00  0.00    +0.000 C 
ATOM     28  C   UNL     1     110.949 125.401 135.732  0.00  0.00    +0.000 C 
ATOM     29  C   UNL     1     111.014 127.050 135.736  0.00  0.00    +0.000 C 
ATOM     30  C   UNL     1     111.434 125.793 136.272  0.00  0.00    +0.000 C 
BRANCH  29  32
ATOM     31  O   UNL     1     111.760 128.260 135.590  0.00  0.00    +0.000 OA
ATOM     32  C   UNL     1     111.046 127.873 135.738  0.00  0.00    +0.000 C 
ENDBRANCH  29  32
ENDBRANCH  21  30
ENDBRANCH   5  21
TORSDOF 4
ENDMDL
MODEL 5
REMARK VINA RESULT:      -9.1      1.578      4.089
REMARK  Name = 44258736
REMARK  4 active torsions:
REMARK  status: ('A' for Active; 'I' for Inactive)
REMARK    1  A    between atoms: O_2  and  C_16
REMARK    2  A    between atoms: O_2  and  C_18
REMARK    3  A    between atoms: C_15  and  C_17
REMARK    4  A    between atoms: C_19  and  C_23
REMARK                            x       y       z     vdW  Elec       q    Type
REMARK                         _______ _______ _______ _____ _____    ______ ____
ROOT
ATOM      1  O   UNL     1     103.755 125.742 147.423  0.00  0.00    +0.000 OA
ATOM      2  O   UNL     1     105.728 124.494 146.598  0.00  0.00    +0.000 OA
ATOM      3  O   UNL     1     104.891 123.405 146.157  0.00  0.00    +0.000 OA
ATOM      4  O   UNL     1     102.003 123.582 146.558  0.00  0.00    +0.000 OA
ATOM      5  C   UNL     1     105.168 125.650 147.224  0.00  0.00    +0.000 A 
ATOM      6  C   UNL     1     104.510 126.066 147.499  0.00  0.00    +0.000 A 
ATOM      7  C   UNL     1     105.070 124.910 146.873  0.00  0.00    +0.000 A 
ATOM      8  C   UNL     1     104.315 124.586 146.796  0.00  0.00    +0.000 A 
ATOM      9  C   UNL     1     103.658 125.001 147.071  0.00  0.00    +0.000 A 
ATOM     10  C   UNL     1     104.227 123.814 146.429  0.00  0.00    +0.000 A 
ATOM     11  C   UNL     1     102.867 124.675 146.998  0.00  0.00    +0.000 A 
ATOM     12  C   UNL     1     103.444 123.471 146.346  0.00  0.00    +0.000 A 
ATOM     13  C   UNL     1     102.759 123.904 146.633  0.00  0.00    +0.000 A 
ENDROOT
BRANCH   6  15
ATOM     14  O   UNL     1     104.902 129.027 148.901  0.00  0.00    +0.000 OA
ATOM     15  C   UNL     1     104.607 126.806 147.850  0.00  0.00    +0.000 A 
ATOM     16  C   UNL     1     104.522 126.890 148.666  0.00  0.00    +0.000 A 
ATOM     17  C   UNL     1     104.791 127.462 147.384  0.00  0.00    +0.000 A 
ATOM     18  C   UNL     1     104.620 127.631 149.016  0.00  0.00    +0.000 A 
ATOM     19  C   UNL     1     104.889 128.202 147.735  0.00  0.00    +0.000 A 
ATOM     20  C   UNL     1     104.804 128.287 148.551  0.00  0.00    +0.000 A 
ENDBRANCH   6  15
BRANCH   5  21
ATOM     21  O   UNL     1     105.922 125.974 147.300  0.00  0.00    +0.000 OA
BRANCH  21  30
ATOM     22  O   UNL     1     106.298 125.196 148.438  0.00  0.00    +0.000 OA
ATOM     23  O   UNL     1     108.637 125.146 147.631  0.00  0.00    +0.000 OA
ATOM     24  O   UNL     1     108.233 124.385 149.037  0.00  0.00    +0.000 OA
ATOM     25  O   UNL     1     107.482 125.941 146.762  0.00  0.00    +0.000 OA
ATOM     26  C   UNL     1     107.858 125.162 147.900  0.00  0.00    +0.000 C 
ATOM     27  C   UNL     1     107.655 124.782 148.603  0.00  0.00    +0.000 C 
ATOM     28  C   UNL     1     107.279 125.560 147.465  0.00  0.00    +0.000 C 
ATOM     29  C   UNL     1     106.876 124.799 148.872  0.00  0.00    +0.000 C 
ATOM     30  C   UNL     1     106.500 125.577 147.734  0.00  0.00    +0.000 C 
BRANCH  29  32
ATOM     31  O   UNL     1     105.996 123.949 149.612  0.00  0.00    +0.000 OA
ATOM     32  C   UNL     1     106.674 124.418 149.575  0.00  0.00    +0.000 C 
ENDBRANCH  29  32
ENDBRANCH  21  30
ENDBRANCH   5  21
TORSDOF 4
ENDMDL
MODEL 6
REMARK VINA RESULT:      -9.1      1.037      3.421
REMARK  Name = 44258736
REMARK  4 active torsions:
REMARK  status: ('A' for Active; 'I' for Inactive)
REMARK    1  A    between atoms: O_2  and  C_16
REMARK    2  A    between atoms: O_2  and  C_18
REMARK    3  A    between atoms: C_15  and  C_17
REMARK    4  A    between atoms: C_19  and  C_23
REMARK                            x       y       z     vdW  Elec       q    Type
REMARK                         _______ _______ _______ _____ _____    ______ ____
ROOT
ATOM      1  O   UNL     1     104.081 124.556 148.271  0.00  0.00    +0.000 OA
ATOM      2  O   UNL     1     104.089 124.346 145.804  0.00  0.00    +0.000 OA
ATOM      3  O   UNL     1     102.661 124.146 145.787  0.00  0.00    +0.000 OA
ATOM      4  O   UNL     1     101.196 124.158 148.315  0.00  0.00    +0.000 OA
ATOM      5  C   UNL     1     104.793 124.549 147.031  0.00  0.00    +0.000 A 
ATOM      6  C   UNL     1     104.790 124.619 147.854  0.00  0.00    +0.000 A 
ATOM      7  C   UNL     1     104.086 124.416 146.627  0.00  0.00    +0.000 A 
ATOM      8  C   UNL     1     103.377 124.353 147.044  0.00  0.00    +0.000 A 
ATOM      9  C   UNL     1     103.375 124.423 147.865  0.00  0.00    +0.000 A 
ATOM     10  C   UNL     1     102.648 124.214 146.610  0.00  0.00    +0.000 A 
ATOM     11  C   UNL     1     102.643 124.359 148.311  0.00  0.00    +0.000 A 
ATOM     12  C   UNL     1     101.907 124.148 147.039  0.00  0.00    +0.000 A 
ATOM     13  C   UNL     1     101.904 124.220 147.895  0.00  0.00    +0.000 A 
ENDROOT
BRANCH   6  15
ATOM     14  O   UNL     1     107.616 125.153 149.473  0.00  0.00    +0.000 OA
ATOM     15  C   UNL     1     105.496 124.752 148.258  0.00  0.00    +0.000 A 
ATOM     16  C   UNL     1     106.056 124.149 148.321  0.00  0.00    +0.000 A 
ATOM     17  C   UNL     1     105.643 125.488 148.601  0.00  0.00    +0.000 A 
ATOM     18  C   UNL     1     106.763 124.283 148.725  0.00  0.00    +0.000 A 
ATOM     19  C   UNL     1     106.349 125.621 149.006  0.00  0.00    +0.000 A 
ATOM     20  C   UNL     1     106.909 125.019 149.068  0.00  0.00    +0.000 A 
ENDBRANCH   6  15
BRANCH   5  21
ATOM     21  O   UNL     1     105.502 124.612 146.614  0.00  0.00    +0.000 OA
BRANCH  21  30
ATOM     22  O   UNL     1     105.262 125.938 146.140  0.00  0.00    +0.000 OA
ATOM     23  O   UNL     1     106.494 125.418 144.058  0.00  0.00    +0.000 OA
ATOM     24  O   UNL     1     105.843 126.917 144.279  0.00  0.00    +0.000 OA
ATOM     25  O   UNL     1     106.324 124.265 145.226  0.00  0.00    +0.000 OA
ATOM     26  C   UNL     1     106.083 125.592 144.752  0.00  0.00    +0.000 C 
ATOM     27  C   UNL     1     105.758 126.341 144.863  0.00  0.00    +0.000 C 
ATOM     28  C   UNL     1     105.998 125.015 145.337  0.00  0.00    +0.000 C 
ATOM     29  C   UNL     1     105.347 126.515 145.557  0.00  0.00    +0.000 C 
ATOM     30  C   UNL     1     105.587 125.188 146.031  0.00  0.00    +0.000 C 
BRANCH  29  32
ATOM     31  O   UNL     1     105.270 127.735 146.297  0.00  0.00    +0.000 OA
ATOM     32  C   UNL     1     105.021 127.264 145.667  0.00  0.00    +0.000 C 
ENDBRANCH  29  32
ENDBRANCH  21  30
ENDBRANCH   5  21
TORSDOF 4
ENDMDL
MODEL 7
REMARK VINA RESULT:      -9.0     10.155     12.259
REMARK  Name = 44258736
REMARK  4 active torsions:
REMARK  status: ('A' for Active; 'I' for Inactive)
REMARK    1  A    between atoms: O_2  and  C_16
REMARK    2  A    between atoms: O_2  and  C_18
REMARK    3  A    between atoms: C_15  and  C_17
REMARK    4  A    between atoms: C_19  and  C_23
REMARK                            x       y       z     vdW  Elec       q    Type
REMARK                         _______ _______ _______ _____ _____    ______ ____
ROOT
ATOM      1  O   UNL     1     113.555 126.805 136.784  0.00  0.00    +0.000 OA
ATOM      2  O   UNL     1     111.598 125.498 136.015  0.00  0.00    +0.000 OA
ATOM      3  O   UNL     1     112.258 124.259 136.348  0.00  0.00    +0.000 OA
ATOM      4  O   UNL     1     114.950 124.344 137.478  0.00  0.00    +0.000 OA
ATOM      5  C   UNL     1     112.238 126.758 136.230  0.00  0.00    +0.000 A 
ATOM      6  C   UNL     1     112.891 127.193 136.487  0.00  0.00    +0.000 A 
ATOM      7  C   UNL     1     112.251 125.934 136.272  0.00  0.00    +0.000 A 
ATOM      8  C   UNL     1     112.915 125.545 136.569  0.00  0.00    +0.000 A 
ATOM      9  C   UNL     1     113.567 125.981 136.824  0.00  0.00    +0.000 A 
ATOM     10  C   UNL     1     112.915 124.687 136.606  0.00  0.00    +0.000 A 
ATOM     11  C   UNL     1     114.265 125.588 137.136  0.00  0.00    +0.000 A 
ATOM     12  C   UNL     1     113.605 124.277 136.914  0.00  0.00    +0.000 A 
ATOM     13  C   UNL     1     114.284 124.730 137.181  0.00  0.00    +0.000 A 
ENDROOT
BRANCH   6  15
ATOM     14  O   UNL     1     112.840 130.489 136.325  0.00  0.00    +0.000 OA
ATOM     15  C   UNL     1     112.878 128.017 136.445  0.00  0.00    +0.000 A 
ATOM     16  C   UNL     1     112.948 128.395 135.716  0.00  0.00    +0.000 A 
ATOM     17  C   UNL     1     112.796 128.463 137.136  0.00  0.00    +0.000 A 
ATOM     18  C   UNL     1     112.935 129.219 135.676  0.00  0.00    +0.000 A 
ATOM     19  C   UNL     1     112.783 129.287 137.094  0.00  0.00    +0.000 A 
ATOM     20  C   UNL     1     112.853 129.665 136.364  0.00  0.00    +0.000 A 
ENDBRANCH   6  15
BRANCH   5  21
ATOM     21  O   UNL     1     111.574 127.146 135.934  0.00  0.00    +0.000 OA
BRANCH  21  30
ATOM     22  O   UNL     1     110.779 126.920 137.100  0.00  0.00    +0.000 OA
ATOM     23  O   UNL     1     108.737 126.889 135.702  0.00  0.00    +0.000 OA
ATOM     24  O   UNL     1     108.624 126.674 137.333  0.00  0.00    +0.000 OA
ATOM     25  O   UNL     1     110.212 127.125 135.002  0.00  0.00    +0.000 OA
ATOM     26  C   UNL     1     109.417 126.900 136.168  0.00  0.00    +0.000 C 
ATOM     27  C   UNL     1     109.361 126.792 136.984  0.00  0.00    +0.000 C 
ATOM     28  C   UNL     1     110.156 127.018 135.818  0.00  0.00    +0.000 C 
ATOM     29  C   UNL     1     110.042 126.802 137.450  0.00  0.00    +0.000 C 
ATOM     30  C   UNL     1     110.837 127.028 136.284  0.00  0.00    +0.000 C 
BRANCH  29  32
ATOM     31  O   UNL     1     110.227 127.293 138.779  0.00  0.00    +0.000 OA
ATOM     32  C   UNL     1     109.985 126.695 138.265  0.00  0.00    +0.000 C 
ENDBRANCH  29  32
ENDBRANCH  21  30
ENDBRANCH   5  21
TORSDOF 4
ENDMDL
MODEL 8
REMARK VINA RESULT:      -9.0      0.945      3.467
REMARK  Name = 44258736
REMARK  4 active torsions:
REMARK  status: ('A' for Active; 'I' for Inactive)
REMARK    1  A    between atoms: O_2  and  C_16
REMARK    2  A    between atoms: O_2  and  C_18
REMARK    3  A    between atoms: C_15  and  C_17
REMARK    4  A    between atoms: C_19  and  C_23
REMARK                            x       y       z     vdW  Elec       q    Type
REMARK                         _______ _______ _______ _____ _____    ______ ____
ROOT
ATOM      1  O   UNL     1     106.700 125.602 146.792  0.00  0.00    +0.000 OA
ATOM      2  O   UNL     1     104.820 124.770 148.170  0.00  0.00    +0.000 OA
ATOM      3  O   UNL     1     105.735 124.247 149.155  0.00  0.00    +0.000 OA
ATOM      4  O   UNL     1     108.608 124.574 148.737  0.00  0.00    +0.000 OA
ATOM      5  C   UNL     1     105.295 125.440 147.001  0.00  0.00    +0.000 A 
ATOM      6  C   UNL     1     105.923 125.718 146.541  0.00  0.00    +0.000 A 
ATOM      7  C   UNL     1     105.447 125.047 147.710  0.00  0.00    +0.000 A 
ATOM      8  C   UNL     1     106.225 124.932 147.961  0.00  0.00    +0.000 A 
ATOM      9  C   UNL     1     106.851 125.210 147.502  0.00  0.00    +0.000 A 
ATOM     10  C   UNL     1     106.368 124.521 148.702  0.00  0.00    +0.000 A 
ATOM     11  C   UNL     1     107.665 125.096 147.751  0.00  0.00    +0.000 A 
ATOM     12  C   UNL     1     107.176 124.399 148.967  0.00  0.00    +0.000 A 
ATOM     13  C   UNL     1     107.829 124.688 148.489  0.00  0.00    +0.000 A 
ENDROOT
BRANCH   6  15
ATOM     14  O   UNL     1     105.318 127.286 143.702  0.00  0.00    +0.000 OA
ATOM     15  C   UNL     1     105.771 126.110 145.832  0.00  0.00    +0.000 A 
ATOM     16  C   UNL     1     105.446 126.868 145.841  0.00  0.00    +0.000 A 
ATOM     17  C   UNL     1     105.946 125.744 145.113  0.00  0.00    +0.000 A 
ATOM     18  C   UNL     1     105.294 127.260 145.130  0.00  0.00    +0.000 A 
ATOM     19  C   UNL     1     105.794 126.137 144.403  0.00  0.00    +0.000 A 
ATOM     20  C   UNL     1     105.469 126.895 144.412  0.00  0.00    +0.000 A 
ENDBRANCH   6  15
BRANCH   5  21
ATOM     21  O   UNL     1     104.518 125.555 146.750  0.00  0.00    +0.000 OA
BRANCH  21  30
ATOM     22  O   UNL     1     104.295 124.224 146.279  0.00  0.00    +0.000 OA
ATOM     23  O   UNL     1     101.957 124.330 147.084  0.00  0.00    +0.000 OA
ATOM     24  O   UNL     1     102.514 122.965 146.345  0.00  0.00    +0.000 OA
ATOM     25  O   UNL     1     102.959 125.626 147.287  0.00  0.00    +0.000 OA
ATOM     26  C   UNL     1     102.737 124.295 146.816  0.00  0.00    +0.000 C 
ATOM     27  C   UNL     1     103.016 123.613 146.446  0.00  0.00    +0.000 C 
ATOM     28  C   UNL     1     103.238 124.943 146.917  0.00  0.00    +0.000 C 
ATOM     29  C   UNL     1     103.795 123.577 146.178  0.00  0.00    +0.000 C 
ATOM     30  C   UNL     1     104.018 124.908 146.649  0.00  0.00    +0.000 C 
BRANCH  29  32
ATOM     31  O   UNL     1     104.375 122.933 145.041  0.00  0.00    +0.000 OA
ATOM     32  C   UNL     1     104.073 122.895 145.809  0.00  0.00    +0.000 C 
ENDBRANCH  29  32
ENDBRANCH  21  30
ENDBRANCH   5  21
TORSDOF 4
ENDMDL
MODEL 9
REMARK VINA RESULT:      -9.0      9.090     11.017
REMARK  Name = 44258736
REMARK  4 active torsions:
REMARK  status: ('A' for Active; 'I' for Inactive)
REMARK    1  A    between atoms: O_2  and  C_16
REMARK    2  A    between atoms: O_2  and  C_18
REMARK    3  A    between atoms: C_15  and  C_17
REMARK    4  A    between atoms: C_19  and  C_23
REMARK                            x       y       z     vdW  Elec       q    Type
REMARK                         _______ _______ _______ _____ _____    ______ ____
ROOT
ATOM      1  O   UNL     1     113.806 126.211 138.377  0.00  0.00    +0.000 OA
ATOM      2  O   UNL     1     111.706 124.985 137.909  0.00  0.00    +0.000 OA
ATOM      3  O   UNL     1     112.322 124.296 136.801  0.00  0.00    +0.000 OA
ATOM      4  O   UNL     1     115.114 124.857 136.154  0.00  0.00    +0.000 OA
ATOM      5  C   UNL     1     112.439 125.932 138.689  0.00  0.00    +0.000 A 
ATOM      6  C   UNL     1     113.140 126.341 138.845  0.00  0.00    +0.000 A 
ATOM      7  C   UNL     1     112.407 125.394 138.065  0.00  0.00    +0.000 A 
ATOM      8  C   UNL     1     113.073 125.264 137.597  0.00  0.00    +0.000 A 
ATOM      9  C   UNL     1     113.772 125.672 137.753  0.00  0.00    +0.000 A 
ATOM     10  C   UNL     1     113.026 124.700 136.949  0.00  0.00    +0.000 A 
ATOM     11  C   UNL     1     114.474 125.545 137.273  0.00  0.00    +0.000 A 
ATOM     12  C   UNL     1     113.717 124.560 136.459  0.00  0.00    +0.000 A 
ATOM     13  C   UNL     1     114.446 124.986 136.621  0.00  0.00    +0.000 A 
ENDROOT
BRANCH   6  15
ATOM     14  O   UNL     1     113.270 128.492 141.344  0.00  0.00    +0.000 OA
ATOM     15  C   UNL     1     113.172 126.879 139.469  0.00  0.00    +0.000 A 
ATOM     16  C   UNL     1     113.188 127.689 139.315  0.00  0.00    +0.000 A 
ATOM     17  C   UNL     1     113.189 126.606 140.248  0.00  0.00    +0.000 A 
ATOM     18  C   UNL     1     113.220 128.227 139.940  0.00  0.00    +0.000 A 
ATOM     19  C   UNL     1     113.221 127.145 140.872  0.00  0.00    +0.000 A 
ATOM     20  C   UNL     1     113.237 127.955 140.718  0.00  0.00    +0.000 A 
ENDBRANCH   6  15
BRANCH   5  21
ATOM     21  O   UNL     1     111.773 126.063 139.157  0.00  0.00    +0.000 OA
BRANCH  21  30
ATOM     22  O   UNL     1     111.088 126.835 138.169  0.00  0.00    +0.000 OA
ATOM     23  O   UNL     1     108.917 126.044 139.055  0.00  0.00    +0.000 OA
ATOM     24  O   UNL     1     108.956 127.080 137.772  0.00  0.00    +0.000 OA
ATOM     25  O   UNL     1     110.325 125.535 139.748  0.00  0.00    +0.000 OA
ATOM     26  C   UNL     1     109.640 126.308 138.760  0.00  0.00    +0.000 C 
ATOM     27  C   UNL     1     109.661 126.826 138.118  0.00  0.00    +0.000 C 
ATOM     28  C   UNL     1     110.345 126.053 139.106  0.00  0.00    +0.000 C 
ATOM     29  C   UNL     1     110.385 127.089 137.822  0.00  0.00    +0.000 C 
ATOM     30  C   UNL     1     111.069 126.317 138.811  0.00  0.00    +0.000 C 
BRANCH  29  32
ATOM     31  O   UNL     1     110.731 128.360 137.267  0.00  0.00    +0.000 OA
ATOM     32  C   UNL     1     110.404 127.607 137.181  0.00  0.00    +0.000 C 
ENDBRANCH  29  32
ENDBRANCH  21  30
ENDBRANCH   5  21
TORSDOF 4
ENDMDL
MODEL 10
REMARK VINA RESULT:      -8.9      9.885     11.853
REMARK  Name = 44258736
REMARK  4 active torsions:
REMARK  status: ('A' for Active; 'I' for Inactive)
REMARK    1  A    between atoms: O_2  and  C_16
REMARK    2  A    between atoms: O_2  and  C_18
REMARK    3  A    between atoms: C_15  and  C_17
REMARK    4  A    between atoms: C_19  and  C_23
REMARK                            x       y       z     vdW  Elec       q    Type
REMARK                         _______ _______ _______ _____ _____    ______ ____
ROOT
ATOM      1  O   UNL     1     111.798 125.618 136.142  0.00  0.00    +0.000 OA
ATOM      2  O   UNL     1     110.693 126.516 138.167  0.00  0.00    +0.000 OA
ATOM      3  O   UNL     1     109.463 126.718 137.442  0.00  0.00    +0.000 OA
ATOM      4  O   UNL     1     109.348 125.997 134.613  0.00  0.00    +0.000 OA
ATOM      5  C   UNL     1     111.849 125.972 137.526  0.00  0.00    +0.000 A 
ATOM      6  C   UNL     1     112.217 125.673 136.851  0.00  0.00    +0.000 A 
ATOM      7  C   UNL     1     111.061 126.217 137.492  0.00  0.00    +0.000 A 
ATOM      8  C   UNL     1     110.642 126.162 136.783  0.00  0.00    +0.000 A 
ATOM      9  C   UNL     1     111.010 125.863 136.109  0.00  0.00    +0.000 A 
ATOM     10  C   UNL     1     109.823 126.419 136.761  0.00  0.00    +0.000 A 
ATOM     11  C   UNL     1     110.585 125.800 135.365  0.00  0.00    +0.000 A 
ATOM     12  C   UNL     1     109.382 126.365 136.026  0.00  0.00    +0.000 A 
ATOM     13  C   UNL     1     109.765 126.053 135.323  0.00  0.00    +0.000 A 
ENDROOT
BRANCH   6  15
ATOM     14  O   UNL     1     115.366 124.694 136.989  0.00  0.00    +0.000 OA
ATOM     15  C   UNL     1     113.004 125.429 136.885  0.00  0.00    +0.000 A 
ATOM     16  C   UNL     1     113.596 125.896 136.551  0.00  0.00    +0.000 A 
ATOM     17  C   UNL     1     113.199 124.716 137.254  0.00  0.00    +0.000 A 
ATOM     18  C   UNL     1     114.384 125.651 136.586  0.00  0.00    +0.000 A 
ATOM     19  C   UNL     1     113.986 124.472 137.288  0.00  0.00    +0.000 A 
ATOM     20  C   UNL     1     114.578 124.939 136.954  0.00  0.00    +0.000 A 
ENDBRANCH   6  15
BRANCH   5  21
ATOM     21  O   UNL     1     112.268 126.027 138.235  0.00  0.00    +0.000 OA
BRANCH  21  30
ATOM     22  O   UNL     1     112.432 127.445 138.167  0.00  0.00    +0.000 OA
ATOM     23  O   UNL     1     112.403 127.567 140.638  0.00  0.00    +0.000 OA
ATOM     24  O   UNL     1     112.577 128.943 139.747  0.00  0.00    +0.000 OA
ATOM     25  O   UNL     1     112.248 126.109 139.882  0.00  0.00    +0.000 OA
ATOM     26  C   UNL     1     112.413 127.526 139.815  0.00  0.00    +0.000 C 
ATOM     27  C   UNL     1     112.500 128.215 139.368  0.00  0.00    +0.000 C 
ATOM     28  C   UNL     1     112.335 126.797 139.436  0.00  0.00    +0.000 C 
ATOM     29  C   UNL     1     112.509 128.174 138.544  0.00  0.00    +0.000 C 
ATOM     30  C   UNL     1     112.345 126.756 138.612  0.00  0.00    +0.000 C 
BRANCH  29  32
ATOM     31  O   UNL     1     113.242 128.948 137.592  0.00  0.00    +0.000 OA
ATOM     32  C   UNL     1     112.597 128.862 138.099  0.00  0.00    +0.000 C 
ENDBRANCH  29  32
ENDBRANCH  21  30
ENDBRANCH   5  21
TORSDOF 4
ENDMDL
