MODEL 1
REMARK VINA RESULT:      -9.5      0.000      0.000
REMARK  Name = 44259684
REMARK  10 active torsions:
REMARK  status: ('A' for Active; 'I' for Inactive)
REMARK    1  A    between atoms: O_1  and  C_19
REMARK    2  A    between atoms: O_1  and  C_22
REMARK    3  A    between atoms: O_6  and  C_28
REMARK    4  A    between atoms: O_6  and  C_31
REMARK    5  A    between atoms: O_14  and  C_37
REMARK    6  A    between atoms: O_15  and  C_38
REMARK    7  A    between atoms: O_18  and  C_45
REMARK    8  A    between atoms: C_21  and  C_29
REMARK    9  A    between atoms: C_27  and  C_30
REMARK   10  A    between atoms: C_32  and  C_35
REMARK                            x       y       z     vdW  Elec       q    Type
REMARK                         _______ _______ _______ _____ _____    ______ ____
ROOT
ATOM      1  O   UNL     1     109.795 128.092 140.853  0.00  0.00    +0.000 OA
ATOM      2  C   UNL     1     110.783 127.433 139.022  0.00  0.00    +0.000 A 
ATOM      3  C   UNL     1     110.303 126.797 138.806  0.00  0.00    +0.000 A 
ATOM      4  C   UNL     1     110.613 127.865 139.705  0.00  0.00    +0.000 A 
ATOM      5  C   UNL     1     109.655 126.593 139.274  0.00  0.00    +0.000 A 
ATOM      6  C   UNL     1     109.964 127.660 140.171  0.00  0.00    +0.000 A 
ATOM      7  C   UNL     1     109.485 127.024 139.955  0.00  0.00    +0.000 A 
ENDROOT
BRANCH   3  11
ATOM      8  O   UNL     1     111.070 125.796 138.133  0.00  0.00    +0.000 OA
ATOM      9  O   UNL     1     109.788 126.210 136.057  0.00  0.00    +0.000 OA
ATOM     10  O   UNL     1     110.547 125.205 135.354  0.00  0.00    +0.000 OA
ATOM     11  C   UNL     1     110.473 126.366 138.124  0.00  0.00    +0.000 A 
ATOM     12  C   UNL     1     110.046 126.504 137.432  0.00  0.00    +0.000 A 
ATOM     13  C   UNL     1     111.239 125.365 137.451  0.00  0.00    +0.000 A 
ATOM     14  C   UNL     1     110.215 126.072 136.749  0.00  0.00    +0.000 A 
ATOM     15  C   UNL     1     110.812 125.503 136.759  0.00  0.00    +0.000 A 
ATOM     16  C   UNL     1     111.864 124.774 137.474  0.00  0.00    +0.000 A 
ATOM     17  C   UNL     1     110.980 125.060 136.042  0.00  0.00    +0.000 A 
ATOM     18  C   UNL     1     112.045 124.322 136.766  0.00  0.00    +0.000 A 
ATOM     19  C   UNL     1     111.599 124.466 136.045  0.00  0.00    +0.000 A 
BRANCH  12  20
ATOM     20  O   UNL     1     109.449 127.073 137.422  0.00  0.00    +0.000 OA
ATOM     21  C   UNL     1     108.978 127.165 136.750  0.00  0.00    +0.000 C 
ENDBRANCH  12  20
BRANCH  18  22
ATOM     22  O   UNL     1     112.642 123.753 136.779  0.00  0.00    +0.000 OA
ATOM     23  C   UNL     1     113.433 123.984 136.743  0.00  0.00    +0.000 C 
ENDBRANCH  18  22
ENDBRANCH   3  11
BRANCH   7  24
ATOM     24  O   UNL     1     108.837 126.820 140.422  0.00  0.00    +0.000 OA
ATOM     25  C   UNL     1     108.747 126.044 140.689  0.00  0.00    +0.000 C 
ENDBRANCH   7  24
BRANCH   2  26
ATOM     26  O   UNL     1     111.431 127.638 138.555  0.00  0.00    +0.000 OA
BRANCH  26  34
ATOM     27  O   UNL     1     112.515 127.645 139.486  0.00  0.00    +0.000 OA
ATOM     28  O   UNL     1     113.152 129.913 138.727  0.00  0.00    +0.000 OA
ATOM     29  O   UNL     1     111.856 129.150 138.050  0.00  0.00    +0.000 OA
ATOM     30  C   UNL     1     113.376 128.782 139.572  0.00  0.00    +0.000 C 
ATOM     31  C   UNL     1     112.940 129.157 138.980  0.00  0.00    +0.000 C 
ATOM     32  C   UNL     1     113.163 128.026 139.825  0.00  0.00    +0.000 C 
ATOM     33  C   UNL     1     112.291 128.775 138.641  0.00  0.00    +0.000 C 
ATOM     34  C   UNL     1     112.080 128.019 138.894  0.00  0.00    +0.000 C 
BRANCH  32  36
ATOM     35  O   UNL     1     113.743 126.840 140.373  0.00  0.00    +0.000 OA
ATOM     36  C   UNL     1     113.600 127.652 140.417  0.00  0.00    +0.000 C 
ENDBRANCH  32  36
BRANCH  30  37
ATOM     37  O   UNL     1     114.024 129.164 139.911  0.00  0.00    +0.000 OA
BRANCH  37  42
ATOM     38  O   UNL     1     113.214 129.761 140.925  0.00  0.00    +0.000 OA
ATOM     39  O   UNL     1     115.177 130.320 140.152  0.00  0.00    +0.000 OA
ATOM     40  O   UNL     1     114.942 131.495 141.286  0.00  0.00    +0.000 OA
ATOM     41  O   UNL     1     113.555 131.514 142.179  0.00  0.00    +0.000 OA
ATOM     42  C   UNL     1     113.907 129.751 140.478  0.00  0.00    +0.000 C 
ATOM     43  C   UNL     1     114.483 130.329 140.598  0.00  0.00    +0.000 C 
ATOM     44  C   UNL     1     114.366 130.917 141.166  0.00  0.00    +0.000 C 
ATOM     45  C   UNL     1     113.672 130.926 141.612  0.00  0.00    +0.000 C 
ATOM     46  C   UNL     1     113.096 130.348 141.492  0.00  0.00    +0.000 C 
BRANCH  46  48
ATOM     47  O   UNL     1     112.260 129.762 142.492  0.00  0.00    +0.000 OA
ATOM     48  C   UNL     1     112.403 130.357 141.938  0.00  0.00    +0.000 C 
ENDBRANCH  46  48
ENDBRANCH  37  42
ENDBRANCH  30  37
ENDBRANCH  26  34
ENDBRANCH   2  26
TORSDOF 10
ENDMDL
MODEL 2
REMARK VINA RESULT:      -9.2      1.689      3.001
REMARK  Name = 44259684
REMARK  10 active torsions:
REMARK  status: ('A' for Active; 'I' for Inactive)
REMARK    1  A    between atoms: O_1  and  C_19
REMARK    2  A    between atoms: O_1  and  C_22
REMARK    3  A    between atoms: O_6  and  C_28
REMARK    4  A    between atoms: O_6  and  C_31
REMARK    5  A    between atoms: O_14  and  C_37
REMARK    6  A    between atoms: O_15  and  C_38
REMARK    7  A    between atoms: O_18  and  C_45
REMARK    8  A    between atoms: C_21  and  C_29
REMARK    9  A    between atoms: C_27  and  C_30
REMARK   10  A    between atoms: C_32  and  C_35
REMARK                            x       y       z     vdW  Elec       q    Type
REMARK                         _______ _______ _______ _____ _____    ______ ____
ROOT
ATOM      1  O   UNL     1     113.970 130.148 136.819  0.00  0.00    +0.000 OA
ATOM      2  C   UNL     1     112.548 128.501 136.987  0.00  0.00    +0.000 A 
ATOM      3  C   UNL     1     112.648 128.133 136.255  0.00  0.00    +0.000 A 
ATOM      4  C   UNL     1     112.989 129.173 137.175  0.00  0.00    +0.000 A 
ATOM      5  C   UNL     1     113.189 128.438 135.712  0.00  0.00    +0.000 A 
ATOM      6  C   UNL     1     113.529 129.477 136.631  0.00  0.00    +0.000 A 
ATOM      7  C   UNL     1     113.629 129.109 135.899  0.00  0.00    +0.000 A 
ENDROOT
BRANCH   3  11
ATOM      8  O   UNL     1     112.448 126.721 136.339  0.00  0.00    +0.000 OA
ATOM      9  O   UNL     1     110.401 126.929 134.963  0.00  0.00    +0.000 OA
ATOM     10  O   UNL     1     110.176 125.506 135.032  0.00  0.00    +0.000 OA
ATOM     11  C   UNL     1     112.207 127.462 136.068  0.00  0.00    +0.000 A 
ATOM     12  C   UNL     1     111.525 127.532 135.610  0.00  0.00    +0.000 A 
ATOM     13  C   UNL     1     112.007 126.050 136.152  0.00  0.00    +0.000 A 
ATOM     14  C   UNL     1     111.083 126.860 135.422  0.00  0.00    +0.000 A 
ATOM     15  C   UNL     1     111.325 126.119 135.693  0.00  0.00    +0.000 A 
ATOM     16  C   UNL     1     112.269 125.283 136.440  0.00  0.00    +0.000 A 
ATOM     17  C   UNL     1     110.857 125.427 135.491  0.00  0.00    +0.000 A 
ATOM     18  C   UNL     1     111.814 124.580 136.248  0.00  0.00    +0.000 A 
ATOM     19  C   UNL     1     111.102 124.653 135.770  0.00  0.00    +0.000 A 
BRANCH  12  20
ATOM     20  O   UNL     1     111.283 128.272 135.339  0.00  0.00    +0.000 OA
ATOM     21  C   UNL     1     110.714 128.327 134.743  0.00  0.00    +0.000 C 
ENDBRANCH  12  20
BRANCH  18  22
ATOM     22  O   UNL     1     112.057 123.841 136.520  0.00  0.00    +0.000 OA
ATOM     23  C   UNL     1     111.812 123.573 137.261  0.00  0.00    +0.000 C 
ENDBRANCH  18  22
ENDBRANCH   3  11
BRANCH   7  24
ATOM     24  O   UNL     1     114.170 129.412 135.355  0.00  0.00    +0.000 OA
ATOM     25  C   UNL     1     114.717 128.912 134.994  0.00  0.00    +0.000 C 
ENDBRANCH   7  24
BRANCH   2  26
ATOM     26  O   UNL     1     112.007 128.198 137.532  0.00  0.00    +0.000 OA
BRANCH  26  34
ATOM     27  O   UNL     1     112.764 127.934 138.714  0.00  0.00    +0.000 OA
ATOM     28  O   UNL     1     111.233 129.377 140.017  0.00  0.00    +0.000 OA
ATOM     29  O   UNL     1     110.986 129.160 138.400  0.00  0.00    +0.000 OA
ATOM     30  C   UNL     1     112.377 128.523 139.957  0.00  0.00    +0.000 C 
ATOM     31  C   UNL     1     111.743 128.896 139.582  0.00  0.00    +0.000 C 
ATOM     32  C   UNL     1     112.887 128.042 139.522  0.00  0.00    +0.000 C 
ATOM     33  C   UNL     1     111.620 128.788 138.774  0.00  0.00    +0.000 C 
ATOM     34  C   UNL     1     112.131 128.306 138.340  0.00  0.00    +0.000 C 
BRANCH  32  36
ATOM     35  O   UNL     1     113.761 126.919 139.652  0.00  0.00    +0.000 OA
ATOM     36  C   UNL     1     113.521 127.669 139.897  0.00  0.00    +0.000 C 
ENDBRANCH  32  36
BRANCH  30  37
ATOM     37  O   UNL     1     112.500 128.631 140.766  0.00  0.00    +0.000 OA
BRANCH  37  42
ATOM     38  O   UNL     1     113.479 129.662 140.617  0.00  0.00    +0.000 OA
ATOM     39  O   UNL     1     111.966 129.339 142.157  0.00  0.00    +0.000 OA
ATOM     40  O   UNL     1     112.678 130.723 142.705  0.00  0.00    +0.000 OA
ATOM     41  O   UNL     1     113.923 131.399 141.861  0.00  0.00    +0.000 OA
ATOM     42  C   UNL     1     112.856 129.323 141.039  0.00  0.00    +0.000 C 
ATOM     43  C   UNL     1     112.589 129.677 141.735  0.00  0.00    +0.000 C 
ATOM     44  C   UNL     1     112.945 130.369 142.009  0.00  0.00    +0.000 C 
ATOM     45  C   UNL     1     113.567 130.707 141.587  0.00  0.00    +0.000 C 
ATOM     46  C   UNL     1     113.834 130.354 140.891  0.00  0.00    +0.000 C 
BRANCH  46  48
ATOM     47  O   UNL     1     114.307 131.099 139.767  0.00  0.00    +0.000 OA
ATOM     48  C   UNL     1     114.457 130.692 140.469  0.00  0.00    +0.000 C 
ENDBRANCH  46  48
ENDBRANCH  37  42
ENDBRANCH  30  37
ENDBRANCH  26  34
ENDBRANCH   2  26
TORSDOF 10
ENDMDL
MODEL 3
REMARK VINA RESULT:      -9.2      2.345      5.155
REMARK  Name = 44259684
REMARK  10 active torsions:
REMARK  status: ('A' for Active; 'I' for Inactive)
REMARK    1  A    between atoms: O_1  and  C_19
REMARK    2  A    between atoms: O_1  and  C_22
REMARK    3  A    between atoms: O_6  and  C_28
REMARK    4  A    between atoms: O_6  and  C_31
REMARK    5  A    between atoms: O_14  and  C_37
REMARK    6  A    between atoms: O_15  and  C_38
REMARK    7  A    between atoms: O_18  and  C_45
REMARK    8  A    between atoms: C_21  and  C_29
REMARK    9  A    between atoms: C_27  and  C_30
REMARK   10  A    between atoms: C_32  and  C_35
REMARK                            x       y       z     vdW  Elec       q    Type
REMARK                         _______ _______ _______ _____ _____    ______ ____
ROOT
ATOM      1  O   UNL     1     111.305 125.121 135.372  0.00  0.00    +0.000 OA
ATOM      2  C   UNL     1     111.657 126.396 137.108  0.00  0.00    +0.000 A 
ATOM      3  C   UNL     1     111.914 125.840 137.661  0.00  0.00    +0.000 A 
ATOM      4  C   UNL     1     111.454 126.156 136.344  0.00  0.00    +0.000 A 
ATOM      5  C   UNL     1     111.967 125.044 137.450  0.00  0.00    +0.000 A 
ATOM      6  C   UNL     1     111.508 125.360 136.135  0.00  0.00    +0.000 A 
ATOM      7  C   UNL     1     111.765 124.804 136.688  0.00  0.00    +0.000 A 
ENDROOT
BRANCH   3  11
ATOM      8  O   UNL     1     111.528 126.197 138.989  0.00  0.00    +0.000 OA
ATOM      9  O   UNL     1     113.903 126.566 139.580  0.00  0.00    +0.000 OA
ATOM     10  O   UNL     1     113.541 126.930 140.927  0.00  0.00    +0.000 OA
ATOM     11  C   UNL     1     112.116 126.080 138.423  0.00  0.00    +0.000 A 
ATOM     12  C   UNL     1     112.908 126.203 138.620  0.00  0.00    +0.000 A 
ATOM     13  C   UNL     1     111.731 126.437 139.752  0.00  0.00    +0.000 A 
ATOM     14  C   UNL     1     113.111 126.443 139.383  0.00  0.00    +0.000 A 
ATOM     15  C   UNL     1     112.522 126.560 139.948  0.00  0.00    +0.000 A 
ATOM     16  C   UNL     1     111.108 126.556 140.332  0.00  0.00    +0.000 A 
ATOM     17  C   UNL     1     112.746 126.810 140.740  0.00  0.00    +0.000 A 
ATOM     18  C   UNL     1     111.313 126.806 141.128  0.00  0.00    +0.000 A 
ATOM     19  C   UNL     1     112.139 126.934 141.333  0.00  0.00    +0.000 A 
BRANCH  12  20
ATOM     20  O   UNL     1     113.497 126.086 138.054  0.00  0.00    +0.000 OA
ATOM     21  C   UNL     1     114.267 125.907 138.293  0.00  0.00    +0.000 C 
ENDBRANCH  12  20
BRANCH  18  22
ATOM     22  O   UNL     1     110.723 126.923 141.692  0.00  0.00    +0.000 OA
ATOM     23  C   UNL     1     110.392 127.672 141.795  0.00  0.00    +0.000 C 
ENDBRANCH  18  22
ENDBRANCH   3  11
BRANCH   7  24
ATOM     24  O   UNL     1     111.819 124.009 136.477  0.00  0.00    +0.000 OA
ATOM     25  C   UNL     1     111.849 123.428 137.062  0.00  0.00    +0.000 C 
ENDBRANCH   7  24
BRANCH   2  26
ATOM     26  O   UNL     1     111.603 127.192 137.317  0.00  0.00    +0.000 OA
BRANCH  26  34
ATOM     27  O   UNL     1     110.246 127.464 136.965  0.00  0.00    +0.000 OA
ATOM     28  O   UNL     1     110.954 129.558 135.852  0.00  0.00    +0.000 OA
ATOM     29  O   UNL     1     112.075 128.588 136.576  0.00  0.00    +0.000 OA
ATOM     30  C   UNL     1     109.921 128.648 136.232  0.00  0.00    +0.000 C 
ATOM     31  C   UNL     1     110.718 128.860 136.223  0.00  0.00    +0.000 C 
ATOM     32  C   UNL     1     109.685 127.950 136.603  0.00  0.00    +0.000 C 
ATOM     33  C   UNL     1     111.279 128.375 136.585  0.00  0.00    +0.000 C 
ATOM     34  C   UNL     1     111.042 127.677 136.956  0.00  0.00    +0.000 C 
BRANCH  32  36
ATOM     35  O   UNL     1     108.657 127.019 136.946  0.00  0.00    +0.000 OA
ATOM     36  C   UNL     1     108.887 127.737 136.612  0.00  0.00    +0.000 C 
ENDBRANCH  32  36
BRANCH  30  37
ATOM     37  O   UNL     1     109.360 129.133 135.870  0.00  0.00    +0.000 OA
BRANCH  37  42
ATOM     38  O   UNL     1     109.215 129.888 137.075  0.00  0.00    +0.000 OA
ATOM     39  O   UNL     1     108.480 130.266 135.055  0.00  0.00    +0.000 OA
ATOM     40  O   UNL     1     107.896 131.587 135.851  0.00  0.00    +0.000 OA
ATOM     41  O   UNL     1     108.191 131.775 137.463  0.00  0.00    +0.000 OA
ATOM     42  C   UNL     1     109.068 129.793 136.269  0.00  0.00    +0.000 C 
ATOM     43  C   UNL     1     108.628 130.359 135.861  0.00  0.00    +0.000 C 
ATOM     44  C   UNL     1     108.336 131.021 136.259  0.00  0.00    +0.000 C 
ATOM     45  C   UNL     1     108.483 131.114 137.065  0.00  0.00    +0.000 C 
ATOM     46  C   UNL     1     108.923 130.548 137.473  0.00  0.00    +0.000 C 
BRANCH  46  48
ATOM     47  O   UNL     1     108.677 130.170 138.829  0.00  0.00    +0.000 OA
ATOM     48  C   UNL     1     109.070 130.642 138.279  0.00  0.00    +0.000 C 
ENDBRANCH  46  48
ENDBRANCH  37  42
ENDBRANCH  30  37
ENDBRANCH  26  34
ENDBRANCH   2  26
TORSDOF 10
ENDMDL
MODEL 4
REMARK VINA RESULT:      -9.0      1.876      3.755
REMARK  Name = 44259684
REMARK  10 active torsions:
REMARK  status: ('A' for Active; 'I' for Inactive)
REMARK    1  A    between atoms: O_1  and  C_19
REMARK    2  A    between atoms: O_1  and  C_22
REMARK    3  A    between atoms: O_6  and  C_28
REMARK    4  A    between atoms: O_6  and  C_31
REMARK    5  A    between atoms: O_14  and  C_37
REMARK    6  A    between atoms: O_15  and  C_38
REMARK    7  A    between atoms: O_18  and  C_45
REMARK    8  A    between atoms: C_21  and  C_29
REMARK    9  A    between atoms: C_27  and  C_30
REMARK   10  A    between atoms: C_32  and  C_35
REMARK                            x       y       z     vdW  Elec       q    Type
REMARK                         _______ _______ _______ _____ _____    ______ ____
ROOT
ATOM      1  O   UNL     1     114.945 125.361 138.318  0.00  0.00    +0.000 OA
ATOM      2  C   UNL     1     112.924 125.899 137.694  0.00  0.00    +0.000 A 
ATOM      3  C   UNL     1     112.958 125.726 136.888  0.00  0.00    +0.000 A 
ATOM      4  C   UNL     1     113.587 125.778 138.171  0.00  0.00    +0.000 A 
ATOM      5  C   UNL     1     113.655 125.432 136.559  0.00  0.00    +0.000 A 
ATOM      6  C   UNL     1     114.283 125.483 137.841  0.00  0.00    +0.000 A 
ATOM      7  C   UNL     1     114.317 125.310 137.035  0.00  0.00    +0.000 A 
ENDROOT
BRANCH   3  11
ATOM      8  O   UNL     1     112.117 126.606 136.140  0.00  0.00    +0.000 OA
ATOM      9  O   UNL     1     110.665 124.697 135.528  0.00  0.00    +0.000 OA
ATOM     10  O   UNL     1     109.800 125.563 134.766  0.00  0.00    +0.000 OA
ATOM     11  C   UNL     1     112.296 125.848 136.412  0.00  0.00    +0.000 A 
ATOM     12  C   UNL     1     111.813 125.212 136.209  0.00  0.00    +0.000 A 
ATOM     13  C   UNL     1     111.455 126.728 135.664  0.00  0.00    +0.000 A 
ATOM     14  C   UNL     1     111.149 125.333 135.732  0.00  0.00    +0.000 A 
ATOM     15  C   UNL     1     110.971 126.091 135.460  0.00  0.00    +0.000 A 
ATOM     16  C   UNL     1     111.279 127.522 135.386  0.00  0.00    +0.000 A 
ATOM     17  C   UNL     1     110.278 126.205 134.964  0.00  0.00    +0.000 A 
ATOM     18  C   UNL     1     110.591 127.655 134.890  0.00  0.00    +0.000 A 
ATOM     19  C   UNL     1     110.086 126.991 134.678  0.00  0.00    +0.000 A 
BRANCH  12  20
ATOM     20  O   UNL     1     111.991 124.454 136.481  0.00  0.00    +0.000 OA
ATOM     21  C   UNL     1     111.618 123.797 136.145  0.00  0.00    +0.000 C 
ENDBRANCH  12  20
BRANCH  18  22
ATOM     22  O   UNL     1     110.414 128.414 134.619  0.00  0.00    +0.000 OA
ATOM     23  C   UNL     1     109.933 128.911 135.069  0.00  0.00    +0.000 C 
ENDBRANCH  18  22
ENDBRANCH   3  11
BRANCH   7  24
ATOM     24  O   UNL     1     115.014 125.016 136.706  0.00  0.00    +0.000 OA
ATOM     25  C   UNL     1     115.334 125.369 136.033  0.00  0.00    +0.000 C 
ENDBRANCH   7  24
BRANCH   2  26
ATOM     26  O   UNL     1     112.228 126.194 138.024  0.00  0.00    +0.000 OA
BRANCH  26  34
ATOM     27  O   UNL     1     112.630 127.398 138.679  0.00  0.00    +0.000 OA
ATOM     28  O   UNL     1     111.606 126.595 140.785  0.00  0.00    +0.000 OA
ATOM     29  O   UNL     1     111.545 125.659 139.428  0.00  0.00    +0.000 OA
ATOM     30  C   UNL     1     112.320 127.599 140.060  0.00  0.00    +0.000 C 
ATOM     31  C   UNL     1     111.947 126.862 140.083  0.00  0.00    +0.000 C 
ATOM     32  C   UNL     1     112.661 127.866 139.358  0.00  0.00    +0.000 C 
ATOM     33  C   UNL     1     111.917 126.394 139.404  0.00  0.00    +0.000 C 
ATOM     34  C   UNL     1     112.259 126.662 138.703  0.00  0.00    +0.000 C 
BRANCH  32  36
ATOM     35  O   UNL     1     113.358 128.878 138.628  0.00  0.00    +0.000 OA
ATOM     36  C   UNL     1     113.033 128.603 139.335  0.00  0.00    +0.000 C 
ENDBRANCH  32  36
BRANCH  30  37
ATOM     37  O   UNL     1     112.350 128.067 140.738  0.00  0.00    +0.000 OA
BRANCH  37  42
ATOM     38  O   UNL     1     111.113 128.696 140.395  0.00  0.00    +0.000 OA
ATOM     39  O   UNL     1     112.222 128.656 142.275  0.00  0.00    +0.000 OA
ATOM     40  O   UNL     1     110.922 129.578 142.700  0.00  0.00    +0.000 OA
ATOM     41  O   UNL     1     109.750 129.912 141.588  0.00  0.00    +0.000 OA
ATOM     42  C   UNL     1     111.700 128.528 140.950  0.00  0.00    +0.000 C 
ATOM     43  C   UNL     1     111.636 128.822 141.719  0.00  0.00    +0.000 C 
ATOM     44  C   UNL     1     110.986 129.284 141.931  0.00  0.00    +0.000 C 
ATOM     45  C   UNL     1     110.400 129.450 141.375  0.00  0.00    +0.000 C 
ATOM     46  C   UNL     1     110.464 129.156 140.607  0.00  0.00    +0.000 C 
BRANCH  46  48
ATOM     47  O   UNL     1     109.346 128.735 139.822  0.00  0.00    +0.000 OA
ATOM     48  C   UNL     1     109.877 129.323 140.052  0.00  0.00    +0.000 C 
ENDBRANCH  46  48
ENDBRANCH  37  42
ENDBRANCH  30  37
ENDBRANCH  26  34
ENDBRANCH   2  26
TORSDOF 10
ENDMDL
MODEL 5
REMARK VINA RESULT:      -9.0      2.287      4.367
REMARK  Name = 44259684
REMARK  10 active torsions:
REMARK  status: ('A' for Active; 'I' for Inactive)
REMARK    1  A    between atoms: O_1  and  C_19
REMARK    2  A    between atoms: O_1  and  C_22
REMARK    3  A    between atoms: O_6  and  C_28
REMARK    4  A    between atoms: O_6  and  C_31
REMARK    5  A    between atoms: O_14  and  C_37
REMARK    6  A    between atoms: O_15  and  C_38
REMARK    7  A    between atoms: O_18  and  C_45
REMARK    8  A    between atoms: C_21  and  C_29
REMARK    9  A    between atoms: C_27  and  C_30
REMARK   10  A    between atoms: C_32  and  C_35
REMARK                            x       y       z     vdW  Elec       q    Type
REMARK                         _______ _______ _______ _____ _____    ______ ____
ROOT
ATOM      1  O   UNL     1     110.275 128.529 140.384  0.00  0.00    +0.000 OA
ATOM      2  C   UNL     1     111.558 127.697 138.827  0.00  0.00    +0.000 A 
ATOM      3  C   UNL     1     111.852 127.027 139.208  0.00  0.00    +0.000 A 
ATOM      4  C   UNL     1     111.032 128.198 139.219  0.00  0.00    +0.000 A 
ATOM      5  C   UNL     1     111.620 126.858 139.981  0.00  0.00    +0.000 A 
ATOM      6  C   UNL     1     110.801 128.028 139.992  0.00  0.00    +0.000 A 
ATOM      7  C   UNL     1     111.095 127.358 140.374  0.00  0.00    +0.000 A 
ENDROOT
BRANCH   3  11
ATOM      8  O   UNL     1     112.095 125.980 138.266  0.00  0.00    +0.000 OA
ATOM      9  O   UNL     1     114.521 126.120 138.736  0.00  0.00    +0.000 OA
ATOM     10  O   UNL     1     114.794 125.065 137.792  0.00  0.00    +0.000 OA
ATOM     11  C   UNL     1     112.377 126.527 138.816  0.00  0.00    +0.000 A 
ATOM     12  C   UNL     1     113.186 126.574 138.972  0.00  0.00    +0.000 A 
ATOM     13  C   UNL     1     112.620 125.480 137.874  0.00  0.00    +0.000 A 
ATOM     14  C   UNL     1     113.712 126.073 138.580  0.00  0.00    +0.000 A 
ATOM     15  C   UNL     1     113.429 125.527 138.031  0.00  0.00    +0.000 A 
ATOM     16  C   UNL     1     112.313 124.914 137.304  0.00  0.00    +0.000 A 
ATOM     17  C   UNL     1     113.987 125.011 137.628  0.00  0.00    +0.000 A 
ATOM     18  C   UNL     1     112.856 124.391 136.893  0.00  0.00    +0.000 A 
ATOM     19  C   UNL     1     113.699 124.439 137.056  0.00  0.00    +0.000 A 
BRANCH  12  20
ATOM     20  O   UNL     1     113.470 127.120 139.521  0.00  0.00    +0.000 OA
ATOM     21  C   UNL     1     114.166 126.964 139.937  0.00  0.00    +0.000 C 
ENDBRANCH  12  20
BRANCH  18  22
ATOM     22  O   UNL     1     112.570 123.845 136.344  0.00  0.00    +0.000 OA
ATOM     23  C   UNL     1     111.925 123.368 136.535  0.00  0.00    +0.000 C 
ENDBRANCH  18  22
ENDBRANCH   3  11
BRANCH   7  24
ATOM     24  O   UNL     1     110.863 127.189 141.146  0.00  0.00    +0.000 OA
ATOM     25  C   UNL     1     110.484 126.476 141.317  0.00  0.00    +0.000 C 
ENDBRANCH   7  24
BRANCH   2  26
ATOM     26  O   UNL     1     111.789 127.867 138.053  0.00  0.00    +0.000 OA
BRANCH  26  34
ATOM     27  O   UNL     1     110.524 127.938 137.395  0.00  0.00    +0.000 OA
ATOM     28  O   UNL     1     111.207 130.052 136.306  0.00  0.00    +0.000 OA
ATOM     29  O   UNL     1     112.245 129.277 137.327  0.00  0.00    +0.000 OA
ATOM     30  C   UNL     1     110.232 129.030 136.522  0.00  0.00    +0.000 C 
ATOM     31  C   UNL     1     110.979 129.348 136.669  0.00  0.00    +0.000 C 
ATOM     32  C   UNL     1     110.004 128.325 136.885  0.00  0.00    +0.000 C 
ATOM     33  C   UNL     1     111.499 128.960 137.180  0.00  0.00    +0.000 C 
ATOM     34  C   UNL     1     111.270 128.255 137.543  0.00  0.00    +0.000 C 
BRANCH  32  36
ATOM     35  O   UNL     1     109.136 127.194 136.796  0.00  0.00    +0.000 OA
ATOM     36  C   UNL     1     109.257 128.008 136.737  0.00  0.00    +0.000 C 
ENDBRANCH  32  36
BRANCH  30  37
ATOM     37  O   UNL     1     109.712 129.418 136.011  0.00  0.00    +0.000 OA
BRANCH  37  42
ATOM     38  O   UNL     1     109.268 130.243 137.089  0.00  0.00    +0.000 OA
ATOM     39  O   UNL     1     108.699 130.216 134.982  0.00  0.00    +0.000 OA
ATOM     40  O   UNL     1     107.747 131.440 135.546  0.00  0.00    +0.000 OA
ATOM     41  O   UNL     1     107.810 131.866 137.138  0.00  0.00    +0.000 OA
ATOM     42  C   UNL     1     109.237 130.029 136.293  0.00  0.00    +0.000 C 
ATOM     43  C   UNL     1     108.730 130.428 135.779  0.00  0.00    +0.000 C 
ATOM     44  C   UNL     1     108.254 131.041 136.061  0.00  0.00    +0.000 C 
ATOM     45  C   UNL     1     108.286 131.254 136.857  0.00  0.00    +0.000 C 
ATOM     46  C   UNL     1     108.792 130.855 137.371  0.00  0.00    +0.000 C 
BRANCH  46  48
ATOM     47  O   UNL     1     108.426 130.616 138.732  0.00  0.00    +0.000 OA
ATOM     48  C   UNL     1     108.823 131.068 138.167  0.00  0.00    +0.000 C 
ENDBRANCH  46  48
ENDBRANCH  37  42
ENDBRANCH  30  37
ENDBRANCH  26  34
ENDBRANCH   2  26
TORSDOF 10
ENDMDL
MODEL 6
REMARK VINA RESULT:      -9.0      6.834     10.225
REMARK  Name = 44259684
REMARK  10 active torsions:
REMARK  status: ('A' for Active; 'I' for Inactive)
REMARK    1  A    between atoms: O_1  and  C_19
REMARK    2  A    between atoms: O_1  and  C_22
REMARK    3  A    between atoms: O_6  and  C_28
REMARK    4  A    between atoms: O_6  and  C_31
REMARK    5  A    between atoms: O_14  and  C_37
REMARK    6  A    between atoms: O_15  and  C_38
REMARK    7  A    between atoms: O_18  and  C_45
REMARK    8  A    between atoms: C_21  and  C_29
REMARK    9  A    between atoms: C_27  and  C_30
REMARK   10  A    between atoms: C_32  and  C_35
REMARK                            x       y       z     vdW  Elec       q    Type
REMARK                         _______ _______ _______ _____ _____    ______ ____
ROOT
ATOM      1  O   UNL     1     108.291 125.405 147.467  0.00  0.00    +0.000 OA
ATOM      2  C   UNL     1     106.240 125.413 146.721  0.00  0.00    +0.000 A 
ATOM      3  C   UNL     1     105.838 125.097 147.368  0.00  0.00    +0.000 A 
ATOM      4  C   UNL     1     107.059 125.516 146.754  0.00  0.00    +0.000 A 
ATOM      5  C   UNL     1     106.254 124.883 148.048  0.00  0.00    +0.000 A 
ATOM      6  C   UNL     1     107.474 125.302 147.434  0.00  0.00    +0.000 A 
ATOM      7  C   UNL     1     107.071 124.985 148.081  0.00  0.00    +0.000 A 
ENDROOT
BRANCH   3  11
ATOM      8  O   UNL     1     104.700 124.359 146.916  0.00  0.00    +0.000 OA
ATOM      9  O   UNL     1     103.205 125.956 148.073  0.00  0.00    +0.000 OA
ATOM     10  O   UNL     1     102.040 125.230 147.629  0.00  0.00    +0.000 OA
ATOM     11  C   UNL     1     105.020 124.994 147.335  0.00  0.00    +0.000 A 
ATOM     12  C   UNL     1     104.522 125.526 147.720  0.00  0.00    +0.000 A 
ATOM     13  C   UNL     1     103.883 124.257 146.882  0.00  0.00    +0.000 A 
ATOM     14  C   UNL     1     103.703 125.424 147.687  0.00  0.00    +0.000 A 
ATOM     15  C   UNL     1     103.385 124.789 147.268  0.00  0.00    +0.000 A 
ATOM     16  C   UNL     1     103.562 123.591 146.443  0.00  0.00    +0.000 A 
ATOM     17  C   UNL     1     102.531 124.693 147.241  0.00  0.00    +0.000 A 
ATOM     18  C   UNL     1     102.711 123.479 146.404  0.00  0.00    +0.000 A 
ATOM     19  C   UNL     1     102.192 124.034 146.806  0.00  0.00    +0.000 A 
BRANCH  12  20
ATOM     20  O   UNL     1     104.841 126.161 148.139  0.00  0.00    +0.000 OA
ATOM     21  C   UNL     1     104.346 126.654 148.580  0.00  0.00    +0.000 C 
ENDBRANCH  12  20
BRANCH  18  22
ATOM     22  O   UNL     1     102.394 122.844 145.985  0.00  0.00    +0.000 OA
ATOM     23  C   UNL     1     102.574 122.746 145.185  0.00  0.00    +0.000 C 
ENDBRANCH  18  22
ENDBRANCH   3  11
BRANCH   7  24
ATOM     24  O   UNL     1     107.486 124.771 148.760  0.00  0.00    +0.000 OA
ATOM     25  C   UNL     1     107.181 124.197 149.268  0.00  0.00    +0.000 C 
ENDBRANCH   7  24
BRANCH   2  26
ATOM     26  O   UNL     1     105.826 125.628 146.041  0.00  0.00    +0.000 OA
BRANCH  26  34
ATOM     27  O   UNL     1     106.276 126.946 145.725  0.00  0.00    +0.000 OA
ATOM     28  O   UNL     1     106.917 126.184 143.459  0.00  0.00    +0.000 OA
ATOM     29  O   UNL     1     106.253 125.119 144.531  0.00  0.00    +0.000 OA
ATOM     30  C   UNL     1     106.822 127.224 144.434  0.00  0.00    +0.000 C 
ATOM     31  C   UNL     1     106.703 126.437 144.214  0.00  0.00    +0.000 C 
ATOM     32  C   UNL     1     106.608 127.478 145.189  0.00  0.00    +0.000 C 
ATOM     33  C   UNL     1     106.371 125.905 144.750  0.00  0.00    +0.000 C 
ATOM     34  C   UNL     1     106.158 126.160 145.505  0.00  0.00    +0.000 C 
BRANCH  32  36
ATOM     35  O   UNL     1     106.755 128.470 146.207  0.00  0.00    +0.000 OA
ATOM     36  C   UNL     1     106.727 128.265 145.408  0.00  0.00    +0.000 C 
ENDBRANCH  32  36
BRANCH  30  37
ATOM     37  O   UNL     1     107.154 127.756 143.898  0.00  0.00    +0.000 OA
BRANCH  37  42
ATOM     38  O   UNL     1     105.878 128.104 143.357  0.00  0.00    +0.000 OA
ATOM     39  O   UNL     1     107.882 128.270 142.510  0.00  0.00    +0.000 OA
ATOM     40  O   UNL     1     106.970 128.875 141.274  0.00  0.00    +0.000 OA
ATOM     41  O   UNL     1     105.331 128.965 141.428  0.00  0.00    +0.000 OA
ATOM     42  C   UNL     1     106.698 128.058 143.281  0.00  0.00    +0.000 C 
ATOM     43  C   UNL     1     107.062 128.315 142.587  0.00  0.00    +0.000 C 
ATOM     44  C   UNL     1     106.606 128.618 141.968  0.00  0.00    +0.000 C 
ATOM     45  C   UNL     1     105.786 128.663 142.046  0.00  0.00    +0.000 C 
ATOM     46  C   UNL     1     105.422 128.406 142.740  0.00  0.00    +0.000 C 
BRANCH  46  48
ATOM     47  O   UNL     1     104.263 129.030 143.295  0.00  0.00    +0.000 OA
ATOM     48  C   UNL     1     104.602 128.451 142.816  0.00  0.00    +0.000 C 
ENDBRANCH  46  48
ENDBRANCH  37  42
ENDBRANCH  30  37
ENDBRANCH  26  34
ENDBRANCH   2  26
TORSDOF 10
ENDMDL
MODEL 7
REMARK VINA RESULT:      -8.9      1.921      3.615
REMARK  Name = 44259684
REMARK  10 active torsions:
REMARK  status: ('A' for Active; 'I' for Inactive)
REMARK    1  A    between atoms: O_1  and  C_19
REMARK    2  A    between atoms: O_1  and  C_22
REMARK    3  A    between atoms: O_6  and  C_28
REMARK    4  A    between atoms: O_6  and  C_31
REMARK    5  A    between atoms: O_14  and  C_37
REMARK    6  A    between atoms: O_15  and  C_38
REMARK    7  A    between atoms: O_18  and  C_45
REMARK    8  A    between atoms: C_21  and  C_29
REMARK    9  A    between atoms: C_27  and  C_30
REMARK   10  A    between atoms: C_32  and  C_35
REMARK                            x       y       z     vdW  Elec       q    Type
REMARK                         _______ _______ _______ _____ _____    ______ ____
ROOT
ATOM      1  O   UNL     1     110.373 129.756 136.376  0.00  0.00    +0.000 OA
ATOM      2  C   UNL     1     110.777 127.713 137.028  0.00  0.00    +0.000 A 
ATOM      3  C   UNL     1     111.197 127.422 136.380  0.00  0.00    +0.000 A 
ATOM      4  C   UNL     1     110.502 128.492 137.027  0.00  0.00    +0.000 A 
ATOM      5  C   UNL     1     111.342 127.910 135.731  0.00  0.00    +0.000 A 
ATOM      6  C   UNL     1     110.648 128.978 136.377  0.00  0.00    +0.000 A 
ATOM      7  C   UNL     1     111.068 128.688 135.729  0.00  0.00    +0.000 A 
ENDROOT
BRANCH   3  11
ATOM      8  O   UNL     1     112.177 126.456 136.764  0.00  0.00    +0.000 OA
ATOM      9  O   UNL     1     110.879 124.685 135.623  0.00  0.00    +0.000 OA
ATOM     10  O   UNL     1     111.854 123.690 135.998  0.00  0.00    +0.000 OA
ATOM     11  C   UNL     1     111.471 126.645 136.382  0.00  0.00    +0.000 A 
ATOM     12  C   UNL     1     111.038 126.054 136.002  0.00  0.00    +0.000 A 
ATOM     13  C   UNL     1     112.451 125.679 136.766  0.00  0.00    +0.000 A 
ATOM     14  C   UNL     1     111.312 125.275 136.004  0.00  0.00    +0.000 A 
ATOM     15  C   UNL     1     112.019 125.088 136.386  0.00  0.00    +0.000 A 
ATOM     16  C   UNL     1     113.189 125.496 137.167  0.00  0.00    +0.000 A 
ATOM     17  C   UNL     1     112.294 124.274 136.380  0.00  0.00    +0.000 A 
ATOM     18  C   UNL     1     113.480 124.687 137.172  0.00  0.00    +0.000 A 
ATOM     19  C   UNL     1     113.029 124.072 136.776  0.00  0.00    +0.000 A 
BRANCH  12  20
ATOM     20  O   UNL     1     110.331 126.241 135.620  0.00  0.00    +0.000 OA
ATOM     21  C   UNL     1     110.052 125.759 135.011  0.00  0.00    +0.000 C 
ENDBRANCH  12  20
BRANCH  18  22
ATOM     22  O   UNL     1     114.187 124.503 137.555  0.00  0.00    +0.000 OA
ATOM     23  C   UNL     1     114.908 124.722 137.218  0.00  0.00    +0.000 C 
ENDBRANCH  18  22
ENDBRANCH   3  11
BRANCH   7  24
ATOM     24  O   UNL     1     111.213 129.175 135.080  0.00  0.00    +0.000 OA
ATOM     25  C   UNL     1     111.955 129.173 134.720  0.00  0.00    +0.000 C 
ENDBRANCH   7  24
BRANCH   2  26
ATOM     26  O   UNL     1     110.631 127.226 137.678  0.00  0.00    +0.000 OA
BRANCH  26  34
ATOM     27  O   UNL     1     111.117 128.038 138.749  0.00  0.00    +0.000 OA
ATOM     28  O   UNL     1     109.049 127.586 140.031  0.00  0.00    +0.000 OA
ATOM     29  O   UNL     1     109.252 126.925 138.532  0.00  0.00    +0.000 OA
ATOM     30  C   UNL     1     110.326 128.218 139.925  0.00  0.00    +0.000 C 
ATOM     31  C   UNL     1     109.738 127.736 139.603  0.00  0.00    +0.000 C 
ATOM     32  C   UNL     1     111.015 128.368 139.498  0.00  0.00    +0.000 C 
ATOM     33  C   UNL     1     109.840 127.406 138.854  0.00  0.00    +0.000 C 
ATOM     34  C   UNL     1     110.530 127.557 138.427  0.00  0.00    +0.000 C 
BRANCH  32  36
ATOM     35  O   UNL     1     112.398 128.678 139.681  0.00  0.00    +0.000 OA
ATOM     36  C   UNL     1     111.603 128.850 139.820  0.00  0.00    +0.000 C 
ENDBRANCH  32  36
BRANCH  30  37
ATOM     37  O   UNL     1     110.224 128.548 140.674  0.00  0.00    +0.000 OA
BRANCH  37  42
ATOM     38  O   UNL     1     109.582 129.691 140.104  0.00  0.00    +0.000 OA
ATOM     39  O   UNL     1     109.721 129.014 142.175  0.00  0.00    +0.000 OA
ATOM     40  O   UNL     1     108.827 130.390 142.355  0.00  0.00    +0.000 OA
ATOM     41  O   UNL     1     108.438 131.299 141.035  0.00  0.00    +0.000 OA
ATOM     42  C   UNL     1     109.778 129.236 140.764  0.00  0.00    +0.000 C 
ATOM     43  C   UNL     1     109.526 129.469 141.515  0.00  0.00    +0.000 C 
ATOM     44  C   UNL     1     109.079 130.157 141.605  0.00  0.00    +0.000 C 
ATOM     45  C   UNL     1     108.884 130.611 140.945  0.00  0.00    +0.000 C 
ATOM     46  C   UNL     1     109.136 130.378 140.194  0.00  0.00    +0.000 C 
BRANCH  46  48
ATOM     47  O   UNL     1     108.361 130.571 139.009  0.00  0.00    +0.000 OA
ATOM     48  C   UNL     1     108.941 130.833 139.535  0.00  0.00    +0.000 C 
ENDBRANCH  46  48
ENDBRANCH  37  42
ENDBRANCH  30  37
ENDBRANCH  26  34
ENDBRANCH   2  26
TORSDOF 10
ENDMDL
MODEL 8
REMARK VINA RESULT:      -8.9      2.488      4.571
REMARK  Name = 44259684
REMARK  10 active torsions:
REMARK  status: ('A' for Active; 'I' for Inactive)
REMARK    1  A    between atoms: O_1  and  C_19
REMARK    2  A    between atoms: O_1  and  C_22
REMARK    3  A    between atoms: O_6  and  C_28
REMARK    4  A    between atoms: O_6  and  C_31
REMARK    5  A    between atoms: O_14  and  C_37
REMARK    6  A    between atoms: O_15  and  C_38
REMARK    7  A    between atoms: O_18  and  C_45
REMARK    8  A    between atoms: C_21  and  C_29
REMARK    9  A    between atoms: C_27  and  C_30
REMARK   10  A    between atoms: C_32  and  C_35
REMARK                            x       y       z     vdW  Elec       q    Type
REMARK                         _______ _______ _______ _____ _____    ______ ____
ROOT
ATOM      1  O   UNL     1     111.634 123.732 137.804  0.00  0.00    +0.000 OA
ATOM      2  C   UNL     1     111.172 125.822 137.377  0.00  0.00    +0.000 A 
ATOM      3  C   UNL     1     111.695 125.974 136.758  0.00  0.00    +0.000 A 
ATOM      4  C   UNL     1     111.152 125.074 137.727  0.00  0.00    +0.000 A 
ATOM      5  C   UNL     1     112.198 125.378 136.487  0.00  0.00    +0.000 A 
ATOM      6  C   UNL     1     111.655 124.479 137.455  0.00  0.00    +0.000 A 
ATOM      7  C   UNL     1     112.178 124.632 136.836  0.00  0.00    +0.000 A 
ENDROOT
BRANCH   3  11
ATOM      8  O   UNL     1     112.129 127.335 136.772  0.00  0.00    +0.000 OA
ATOM      9  O   UNL     1     110.944 127.736 134.637  0.00  0.00    +0.000 OA
ATOM     10  O   UNL     1     111.369 129.115 134.627  0.00  0.00    +0.000 OA
ATOM     11  C   UNL     1     111.715 126.721 136.409  0.00  0.00    +0.000 A 
ATOM     12  C   UNL     1     111.319 126.855 135.698  0.00  0.00    +0.000 A 
ATOM     13  C   UNL     1     112.149 128.082 136.424  0.00  0.00    +0.000 A 
ATOM     14  C   UNL     1     111.339 127.603 135.349  0.00  0.00    +0.000 A 
ATOM     15  C   UNL     1     111.754 128.216 135.712  0.00  0.00    +0.000 A 
ATOM     16  C   UNL     1     112.585 128.714 136.812  0.00  0.00    +0.000 A 
ATOM     17  C   UNL     1     111.767 128.990 135.339  0.00  0.00    +0.000 A 
ATOM     18  C   UNL     1     112.609 129.494 136.453  0.00  0.00    +0.000 A 
ATOM     19  C   UNL     1     112.197 129.634 135.711  0.00  0.00    +0.000 A 
BRANCH  12  20
ATOM     20  O   UNL     1     110.905 126.242 135.334  0.00  0.00    +0.000 OA
ATOM     21  C   UNL     1     110.525 126.372 134.613  0.00  0.00    +0.000 C 
ENDBRANCH  12  20
BRANCH  18  22
ATOM     22  O   UNL     1     113.024 130.106 136.819  0.00  0.00    +0.000 OA
ATOM     23  C   UNL     1     113.825 130.218 136.653  0.00  0.00    +0.000 C 
ENDBRANCH  18  22
ENDBRANCH   3  11
BRANCH   7  24
ATOM     24  O   UNL     1     112.680 124.037 136.565  0.00  0.00    +0.000 OA
ATOM     25  C   UNL     1     113.490 124.180 136.495  0.00  0.00    +0.000 C 
ENDBRANCH   7  24
BRANCH   2  26
ATOM     26  O   UNL     1     110.669 126.417 137.649  0.00  0.00    +0.000 OA
BRANCH  26  34
ATOM     27  O   UNL     1     110.898 126.455 139.058  0.00  0.00    +0.000 OA
ATOM     28  O   UNL     1     108.471 126.193 139.462  0.00  0.00    +0.000 OA
ATOM     29  O   UNL     1     109.050 126.242 137.918  0.00  0.00    +0.000 OA
ATOM     30  C   UNL     1     109.800 126.344 139.965  0.00  0.00    +0.000 C 
ATOM     31  C   UNL     1     109.280 126.281 139.327  0.00  0.00    +0.000 C 
ATOM     32  C   UNL     1     110.609 126.431 139.830  0.00  0.00    +0.000 C 
ATOM     33  C   UNL     1     109.569 126.305 138.555  0.00  0.00    +0.000 C 
ATOM     34  C   UNL     1     110.379 126.392 138.421  0.00  0.00    +0.000 C 
BRANCH  32  36
ATOM     35  O   UNL     1     111.934 126.350 140.359  0.00  0.00    +0.000 OA
ATOM     36  C   UNL     1     111.129 126.494 140.468  0.00  0.00    +0.000 C 
ENDBRANCH  32  36
BRANCH  30  37
ATOM     37  O   UNL     1     109.510 126.319 140.737  0.00  0.00    +0.000 OA
BRANCH  37  42
ATOM     38  O   UNL     1     109.331 127.737 140.745  0.00  0.00    +0.000 OA
ATOM     39  O   UNL     1     108.557 126.192 142.078  0.00  0.00    +0.000 OA
ATOM     40  O   UNL     1     107.902 127.545 142.756  0.00  0.00    +0.000 OA
ATOM     41  O   UNL     1     108.200 129.026 142.094  0.00  0.00    +0.000 OA
ATOM     42  C   UNL     1     109.183 126.996 141.076  0.00  0.00    +0.000 C 
ATOM     43  C   UNL     1     108.706 126.932 141.746  0.00  0.00    +0.000 C 
ATOM     44  C   UNL     1     108.378 127.609 142.086  0.00  0.00    +0.000 C 
ATOM     45  C   UNL     1     108.527 128.350 141.754  0.00  0.00    +0.000 C 
ATOM     46  C   UNL     1     109.004 128.414 141.084  0.00  0.00    +0.000 C 
BRANCH  46  48
ATOM     47  O   UNL     1     108.721 129.407 140.097  0.00  0.00    +0.000 OA
ATOM     48  C   UNL     1     109.152 129.154 140.753  0.00  0.00    +0.000 C 
ENDBRANCH  46  48
ENDBRANCH  37  42
ENDBRANCH  30  37
ENDBRANCH  26  34
ENDBRANCH   2  26
TORSDOF 10
ENDMDL
MODEL 9
REMARK VINA RESULT:      -8.9      2.322      5.047
REMARK  Name = 44259684
REMARK  10 active torsions:
REMARK  status: ('A' for Active; 'I' for Inactive)
REMARK    1  A    between atoms: O_1  and  C_19
REMARK    2  A    between atoms: O_1  and  C_22
REMARK    3  A    between atoms: O_6  and  C_28
REMARK    4  A    between atoms: O_6  and  C_31
REMARK    5  A    between atoms: O_14  and  C_37
REMARK    6  A    between atoms: O_15  and  C_38
REMARK    7  A    between atoms: O_18  and  C_45
REMARK    8  A    between atoms: C_21  and  C_29
REMARK    9  A    between atoms: C_27  and  C_30
REMARK   10  A    between atoms: C_32  and  C_35
REMARK                            x       y       z     vdW  Elec       q    Type
REMARK                         _______ _______ _______ _____ _____    ______ ____
ROOT
ATOM      1  O   UNL     1     111.202 125.286 135.261  0.00  0.00    +0.000 OA
ATOM      2  C   UNL     1     111.444 126.477 137.074  0.00  0.00    +0.000 A 
ATOM      3  C   UNL     1     111.637 125.891 137.621  0.00  0.00    +0.000 A 
ATOM      4  C   UNL     1     111.299 126.275 136.287  0.00  0.00    +0.000 A 
ATOM      5  C   UNL     1     111.685 125.103 137.382  0.00  0.00    +0.000 A 
ATOM      6  C   UNL     1     111.347 125.487 136.048  0.00  0.00    +0.000 A 
ATOM      7  C   UNL     1     111.540 124.901 136.596  0.00  0.00    +0.000 A 
ENDROOT
BRANCH   3  11
ATOM      8  O   UNL     1     112.501 126.435 138.620  0.00  0.00    +0.000 OA
ATOM      9  O   UNL     1     110.776 126.014 140.344  0.00  0.00    +0.000 OA
ATOM     10  O   UNL     1     111.629 126.559 141.371  0.00  0.00    +0.000 OA
ATOM     11  C   UNL     1     111.782 126.093 138.407  0.00  0.00    +0.000 A 
ATOM     12  C   UNL     1     111.206 125.952 138.982  0.00  0.00    +0.000 A 
ATOM     13  C   UNL     1     112.646 126.637 139.406  0.00  0.00    +0.000 A 
ATOM     14  C   UNL     1     111.351 126.154 139.769  0.00  0.00    +0.000 A 
ATOM     15  C   UNL     1     112.071 126.497 139.981  0.00  0.00    +0.000 A 
ATOM     16  C   UNL     1     113.400 126.994 139.615  0.00  0.00    +0.000 A 
ATOM     17  C   UNL     1     112.210 126.703 140.804  0.00  0.00    +0.000 A 
ATOM     18  C   UNL     1     113.557 127.206 140.433  0.00  0.00    +0.000 A 
ATOM     19  C   UNL     1     112.957 127.060 141.031  0.00  0.00    +0.000 A 
BRANCH  12  20
ATOM     20  O   UNL     1     110.487 125.610 138.770  0.00  0.00    +0.000 OA
ATOM     21  C   UNL     1     109.907 125.480 139.344  0.00  0.00    +0.000 C 
ENDBRANCH  12  20
BRANCH  18  22
ATOM     22  O   UNL     1     114.277 127.549 140.642  0.00  0.00    +0.000 OA
ATOM     23  C   UNL     1     114.348 128.370 140.680  0.00  0.00    +0.000 C 
ENDBRANCH  18  22
ENDBRANCH   3  11
BRANCH   7  24
ATOM     24  O   UNL     1     111.588 124.113 136.357  0.00  0.00    +0.000 OA
ATOM     25  C   UNL     1     112.202 123.635 136.630  0.00  0.00    +0.000 C 
ENDBRANCH   7  24
BRANCH   2  26
ATOM     26  O   UNL     1     111.396 127.265 137.312  0.00  0.00    +0.000 OA
BRANCH  26  34
ATOM     27  O   UNL     1     110.115 127.634 136.800  0.00  0.00    +0.000 OA
ATOM     28  O   UNL     1     111.091 129.700 135.847  0.00  0.00    +0.000 OA
ATOM     29  O   UNL     1     112.047 128.642 136.677  0.00  0.00    +0.000 OA
ATOM     30  C   UNL     1     109.962 128.851 136.067  0.00  0.00    +0.000 C 
ATOM     31  C   UNL     1     110.766 129.011 136.165  0.00  0.00    +0.000 C 
ATOM     32  C   UNL     1     109.637 128.163 136.384  0.00  0.00    +0.000 C 
ATOM     33  C   UNL     1     111.244 128.482 136.580  0.00  0.00    +0.000 C 
ATOM     34  C   UNL     1     110.918 127.794 136.897  0.00  0.00    +0.000 C 
BRANCH  32  36
ATOM     35  O   UNL     1     108.510 127.311 136.597  0.00  0.00    +0.000 OA
ATOM     36  C   UNL     1     108.833 128.003 136.286  0.00  0.00    +0.000 C 
ENDBRANCH  32  36
BRANCH  30  37
ATOM     37  O   UNL     1     109.484 129.380 135.651  0.00  0.00    +0.000 OA
BRANCH  37  42
ATOM     38  O   UNL     1     109.248 130.122 136.850  0.00  0.00    +0.000 OA
ATOM     39  O   UNL     1     108.724 130.554 134.776  0.00  0.00    +0.000 OA
ATOM     40  O   UNL     1     108.108 131.883 135.537  0.00  0.00    +0.000 OA
ATOM     41  O   UNL     1     108.253 132.037 137.172  0.00  0.00    +0.000 OA
ATOM     42  C   UNL     1     109.176 130.044 136.032  0.00  0.00    +0.000 C 
ATOM     43  C   UNL     1     108.796 130.631 135.594  0.00  0.00    +0.000 C 
ATOM     44  C   UNL     1     108.488 131.296 135.975  0.00  0.00    +0.000 C 
ATOM     45  C   UNL     1     108.561 131.372 136.793  0.00  0.00    +0.000 C 
ATOM     46  C   UNL     1     108.941 130.785 137.230  0.00  0.00    +0.000 C 
BRANCH  46  48
ATOM     47  O   UNL     1     108.537 130.412 138.549  0.00  0.00    +0.000 OA
ATOM     48  C   UNL     1     109.013 130.863 138.048  0.00  0.00    +0.000 C 
ENDBRANCH  46  48
ENDBRANCH  37  42
ENDBRANCH  30  37
ENDBRANCH  26  34
ENDBRANCH   2  26
TORSDOF 10
ENDMDL
MODEL 10
REMARK VINA RESULT:      -8.8      2.657      6.070
REMARK  Name = 44259684
REMARK  10 active torsions:
REMARK  status: ('A' for Active; 'I' for Inactive)
REMARK    1  A    between atoms: O_1  and  C_19
REMARK    2  A    between atoms: O_1  and  C_22
REMARK    3  A    between atoms: O_6  and  C_28
REMARK    4  A    between atoms: O_6  and  C_31
REMARK    5  A    between atoms: O_14  and  C_37
REMARK    6  A    between atoms: O_15  and  C_38
REMARK    7  A    between atoms: O_18  and  C_45
REMARK    8  A    between atoms: C_21  and  C_29
REMARK    9  A    between atoms: C_27  and  C_30
REMARK   10  A    between atoms: C_32  and  C_35
REMARK                            x       y       z     vdW  Elec       q    Type
REMARK                         _______ _______ _______ _____ _____    ______ ____
ROOT
ATOM      1  O   UNL     1     113.595 129.362 137.997  0.00  0.00    +0.000 OA
ATOM      2  C   UNL     1     111.435 129.548 137.744  0.00  0.00    +0.000 A 
ATOM      3  C   UNL     1     111.355 130.367 137.686  0.00  0.00    +0.000 A 
ATOM      4  C   UNL     1     112.183 129.213 137.848  0.00  0.00    +0.000 A 
ATOM      5  C   UNL     1     112.022 130.851 137.731  0.00  0.00    +0.000 A 
ATOM      6  C   UNL     1     112.849 129.697 137.894  0.00  0.00    +0.000 A 
ATOM      7  C   UNL     1     112.768 130.516 137.835  0.00  0.00    +0.000 A 
ENDROOT
BRANCH   3  11
ATOM      8  O   UNL     1     110.265 130.720 136.832  0.00  0.00    +0.000 OA
ATOM      9  O   UNL     1     109.052 131.666 138.772  0.00  0.00    +0.000 OA
ATOM     10  O   UNL     1     107.939 132.034 137.932  0.00  0.00    +0.000 OA
ATOM     11  C   UNL     1     110.608 130.701 137.582  0.00  0.00    +0.000 A 
ATOM     12  C   UNL     1     110.204 131.016 138.229  0.00  0.00    +0.000 A 
ATOM     13  C   UNL     1     109.518 131.055 136.728  0.00  0.00    +0.000 A 
ATOM     14  C   UNL     1     109.457 131.351 138.125  0.00  0.00    +0.000 A 
ATOM     15  C   UNL     1     109.114 131.370 137.375  0.00  0.00    +0.000 A 
ATOM     16  C   UNL     1     109.172 131.069 135.942  0.00  0.00    +0.000 A 
ATOM     17  C   UNL     1     108.335 131.721 137.280  0.00  0.00    +0.000 A 
ATOM     18  C   UNL     1     108.394 131.416 135.828  0.00  0.00    +0.000 A 
ATOM     19  C   UNL     1     107.973 131.744 136.502  0.00  0.00    +0.000 A 
BRANCH  12  20
ATOM     20  O   UNL     1     110.546 130.997 138.979  0.00  0.00    +0.000 OA
ATOM     21  C   UNL     1     110.171 131.370 139.613  0.00  0.00    +0.000 C 
ENDBRANCH  12  20
BRANCH  18  22
ATOM     22  O   UNL     1     108.054 131.434 135.077  0.00  0.00    +0.000 OA
ATOM     23  C   UNL     1     108.114 132.113 134.612  0.00  0.00    +0.000 C 
ENDBRANCH  18  22
ENDBRANCH   3  11
BRANCH   7  24
ATOM     24  O   UNL     1     113.434 131.000 137.880  0.00  0.00    +0.000 OA
ATOM     25  C   UNL     1     113.702 131.398 137.209  0.00  0.00    +0.000 C 
ENDBRANCH   7  24
BRANCH   2  26
ATOM     26  O   UNL     1     110.769 129.063 137.699  0.00  0.00    +0.000 OA
BRANCH  26  34
ATOM     27  O   UNL     1     111.119 128.182 136.630  0.00  0.00    +0.000 OA
ATOM     28  O   UNL     1     110.462 126.239 138.015  0.00  0.00    +0.000 OA
ATOM     29  O   UNL     1     110.331 127.768 138.623  0.00  0.00    +0.000 OA
ATOM     30  C   UNL     1     110.965 126.770 136.788  0.00  0.00    +0.000 C 
ATOM     31  C   UNL     1     110.681 126.887 137.554  0.00  0.00    +0.000 C 
ATOM     32  C   UNL     1     111.184 127.418 136.327  0.00  0.00    +0.000 C 
ATOM     33  C   UNL     1     110.615 127.651 137.858  0.00  0.00    +0.000 C 
ATOM     34  C   UNL     1     110.835 128.299 137.395  0.00  0.00    +0.000 C 
BRANCH  32  36
ATOM     35  O   UNL     1     111.281 127.839 134.964  0.00  0.00    +0.000 OA
ATOM     36  C   UNL     1     111.469 127.301 135.560  0.00  0.00    +0.000 C 
ENDBRANCH  32  36
BRANCH  30  37
ATOM     37  O   UNL     1     111.031 126.006 136.484  0.00  0.00    +0.000 OA
BRANCH  37  42
ATOM     38  O   UNL     1     112.359 125.904 137.000  0.00  0.00    +0.000 OA
ATOM     39  O   UNL     1     111.061 124.404 136.090  0.00  0.00    +0.000 OA
ATOM     40  O   UNL     1     112.405 123.501 136.410  0.00  0.00    +0.000 OA
ATOM     41  O   UNL     1     113.717 124.200 137.123  0.00  0.00    +0.000 OA
ATOM     42  C   UNL     1     111.702 125.555 136.644  0.00  0.00    +0.000 C 
ATOM     43  C   UNL     1     111.717 124.754 136.447  0.00  0.00    +0.000 C 
ATOM     44  C   UNL     1     112.389 124.302 136.607  0.00  0.00    +0.000 C 
ATOM     45  C   UNL     1     113.046 124.652 136.963  0.00  0.00    +0.000 C 
ATOM     46  C   UNL     1     113.031 125.453 137.160  0.00  0.00    +0.000 C 
BRANCH  46  48
ATOM     47  O   UNL     1     113.685 125.954 138.328  0.00  0.00    +0.000 OA
ATOM     48  C   UNL     1     113.687 125.802 137.517  0.00  0.00    +0.000 C 
ENDBRANCH  46  48
ENDBRANCH  37  42
ENDBRANCH  30  37
ENDBRANCH  26  34
ENDBRANCH   2  26
TORSDOF 10
ENDMDL
