MODEL 1
REMARK VINA RESULT:     -10.3      0.000      0.000
REMARK  Name = 44258337
REMARK  13 active torsions:
REMARK  status: ('A' for Active; 'I' for Inactive)
REMARK    1  A    between atoms: O_1  and  C_20
REMARK    2  A    between atoms: O_1  and  C_25
REMARK    3  A    between atoms: O_10  and  C_32
REMARK    4  A    between atoms: O_10  and  C_41
REMARK    5  A    between atoms: O_11  and  C_34
REMARK    6  A    between atoms: O_17  and  C_54
REMARK    7  A    between atoms: O_18  and  C_55
REMARK    8  A    between atoms: C_22  and  C_30
REMARK    9  A    between atoms: C_24  and  C_31
REMARK   10  A    between atoms: C_29  and  C_32
REMARK   11  A    between atoms: C_40  and  C_43
REMARK   12  A    between atoms: C_41  and  C_44
REMARK   13  A    between atoms: C_47  and  C_51
REMARK                            x       y       z     vdW  Elec       q    Type
REMARK                         _______ _______ _______ _____ _____    ______ ____
ROOT
ATOM      1  O   UNL     1     114.075 129.486 140.168  0.00  0.00    +0.000 OA
ATOM      2  O   UNL     1     112.675 130.001 142.143  0.00  0.00    +0.000 OA
ATOM      3  O   UNL     1     113.833 131.069 141.651  0.00  0.00    +0.000 OA
ATOM      4  C   UNL     1     113.030 129.124 141.072  0.00  0.00    +0.000 C 
ATOM      5  C   UNL     1     113.142 129.829 141.485  0.00  0.00    +0.000 C 
ATOM      6  C   UNL     1     113.496 128.952 140.414  0.00  0.00    +0.000 C 
ATOM      7  C   UNL     1     113.721 130.363 141.239  0.00  0.00    +0.000 C 
ATOM      8  C   UNL     1     114.188 130.191 140.580  0.00  0.00    +0.000 C 
ENDROOT
BRANCH   6  12
ATOM      9  O   UNL     1     112.594 128.937 139.032  0.00  0.00    +0.000 OA
ATOM     10  O   UNL     1     113.052 126.093 138.757  0.00  0.00    +0.000 OA
ATOM     11  O   UNL     1     112.014 128.241 137.909  0.00  0.00    +0.000 OA
ATOM     12  C   UNL     1     113.384 128.246 140.002  0.00  0.00    +0.000 A 
ATOM     13  C   UNL     1     112.933 128.239 139.311  0.00  0.00    +0.000 A 
ATOM     14  C   UNL     1     113.723 127.548 140.280  0.00  0.00    +0.000 A 
ATOM     15  C   UNL     1     112.822 127.533 138.898  0.00  0.00    +0.000 A 
ATOM     16  C   UNL     1     113.612 126.842 139.868  0.00  0.00    +0.000 A 
ATOM     17  C   UNL     1     113.161 126.834 139.177  0.00  0.00    +0.000 A 
ATOM     18  C   UNL     1     112.350 127.538 138.180  0.00  0.00    +0.000 A 
ATOM     19  C   UNL     1     112.230 126.806 137.746  0.00  0.00    +0.000 A 
ATOM     20  C   UNL     1     112.583 126.079 138.036  0.00  0.00    +0.000 A 
BRANCH  20  22
ATOM     21  O   UNL     1     112.148 123.249 136.397  0.00  0.00    +0.000 OA
ATOM     22  C   UNL     1     112.474 125.371 137.626  0.00  0.00    +0.000 A 
ATOM     23  C   UNL     1     111.762 124.960 137.696  0.00  0.00    +0.000 A 
ATOM     24  C   UNL     1     113.077 125.075 137.147  0.00  0.00    +0.000 A 
ATOM     25  C   UNL     1     111.653 124.252 137.286  0.00  0.00    +0.000 A 
ATOM     26  C   UNL     1     112.968 124.368 136.738  0.00  0.00    +0.000 A 
ATOM     27  C   UNL     1     112.256 123.956 136.807  0.00  0.00    +0.000 A 
ENDBRANCH  20  22
BRANCH  14  28
ATOM     28  O   UNL     1     114.174 127.555 140.972  0.00  0.00    +0.000 OA
ATOM     29  C   UNL     1     114.694 126.934 141.132  0.00  0.00    +0.000 C 
ENDBRANCH  14  28
ENDBRANCH   6  12
BRANCH   8  31
ATOM     30  O   UNL     1     115.024 130.721 139.550  0.00  0.00    +0.000 OA
ATOM     31  C   UNL     1     114.767 130.725 140.334  0.00  0.00    +0.000 C 
ENDBRANCH   8  31
BRANCH   4  32
ATOM     32  O   UNL     1     112.451 128.590 141.318  0.00  0.00    +0.000 OA
BRANCH  32  37
ATOM     33  O   UNL     1     111.349 129.458 141.044  0.00  0.00    +0.000 OA
ATOM     34  O   UNL     1     111.615 127.927 142.577  0.00  0.00    +0.000 OA
ATOM     35  O   UNL     1     110.095 128.464 142.932  0.00  0.00    +0.000 OA
ATOM     36  O   UNL     1     109.412 129.663 142.028  0.00  0.00    +0.000 OA
ATOM     37  C   UNL     1     111.690 128.858 141.496  0.00  0.00    +0.000 C 
ATOM     38  C   UNL     1     111.272 128.527 142.125  0.00  0.00    +0.000 C 
ATOM     39  C   UNL     1     110.513 128.795 142.303  0.00  0.00    +0.000 C 
ATOM     40  C   UNL     1     110.171 129.395 141.851  0.00  0.00    +0.000 C 
ATOM     41  C   UNL     1     110.589 129.727 141.222  0.00  0.00    +0.000 C 
BRANCH  41  42
ATOM     42  C   UNL     1     110.248 130.326 140.769  0.00  0.00    +0.000 C 
BRANCH  42  43
ATOM     43  O   UNL     1     110.198 130.246 139.949  0.00  0.00    +0.000 OA
BRANCH  43  45
ATOM     44  O   UNL     1     110.313 131.646 139.687  0.00  0.00    +0.000 OA
ATOM     45  C   UNL     1     110.021 130.902 139.481  0.00  0.00    +0.000 C 
BRANCH  45  46
ATOM     46  C   UNL     1     109.553 130.814 138.807  0.00  0.00    +0.000 C 
ATOM     47  C   UNL     1     109.901 130.826 138.060  0.00  0.00    +0.000 C 
BRANCH  47  49
ATOM     48  O   UNL     1     108.028 130.472 135.365  0.00  0.00    +0.000 OA
ATOM     49  C   UNL     1     109.432 130.738 137.385  0.00  0.00    +0.000 A 
ATOM     50  C   UNL     1     109.224 131.399 136.938  0.00  0.00    +0.000 A 
ATOM     51  C   UNL     1     109.172 129.988 137.160  0.00  0.00    +0.000 A 
ATOM     52  C   UNL     1     108.704 129.900 136.487  0.00  0.00    +0.000 A 
ATOM     53  C   UNL     1     108.757 131.310 136.265  0.00  0.00    +0.000 A 
ATOM     54  C   UNL     1     108.496 130.561 136.039  0.00  0.00    +0.000 A 
BRANCH  52  55
ATOM     55  O   UNL     1     108.443 129.150 136.261  0.00  0.00    +0.000 OA
ATOM     56  C   UNL     1     108.989 128.543 136.138  0.00  0.00    +0.000 C 
ENDBRANCH  52  55
BRANCH  53  57
ATOM     57  O   UNL     1     108.549 131.971 135.817  0.00  0.00    +0.000 OA
ATOM     58  C   UNL     1     109.123 132.526 135.609  0.00  0.00    +0.000 C 
ENDBRANCH  53  57
ENDBRANCH  47  49
ENDBRANCH  45  46
ENDBRANCH  43  45
ENDBRANCH  42  43
ENDBRANCH  41  42
ENDBRANCH  32  37
ENDBRANCH   4  32
TORSDOF 13
ENDMDL
MODEL 2
REMARK VINA RESULT:      -9.7      3.176      6.855
REMARK  Name = 44258337
REMARK  13 active torsions:
REMARK  status: ('A' for Active; 'I' for Inactive)
REMARK    1  A    between atoms: O_1  and  C_20
REMARK    2  A    between atoms: O_1  and  C_25
REMARK    3  A    between atoms: O_10  and  C_32
REMARK    4  A    between atoms: O_10  and  C_41
REMARK    5  A    between atoms: O_11  and  C_34
REMARK    6  A    between atoms: O_17  and  C_54
REMARK    7  A    between atoms: O_18  and  C_55
REMARK    8  A    between atoms: C_22  and  C_30
REMARK    9  A    between atoms: C_24  and  C_31
REMARK   10  A    between atoms: C_29  and  C_32
REMARK   11  A    between atoms: C_40  and  C_43
REMARK   12  A    between atoms: C_41  and  C_44
REMARK   13  A    between atoms: C_47  and  C_51
REMARK                            x       y       z     vdW  Elec       q    Type
REMARK                         _______ _______ _______ _____ _____    ______ ____
ROOT
ATOM      1  O   UNL     1     110.486 130.856 141.945  0.00  0.00    +0.000 OA
ATOM      2  O   UNL     1     112.285 130.805 140.248  0.00  0.00    +0.000 OA
ATOM      3  O   UNL     1     110.715 130.590 139.791  0.00  0.00    +0.000 OA
ATOM      4  C   UNL     1     111.871 130.946 141.608  0.00  0.00    +0.000 C 
ATOM      5  C   UNL     1     111.686 130.822 140.814  0.00  0.00    +0.000 C 
ATOM      6  C   UNL     1     111.271 130.964 142.174  0.00  0.00    +0.000 C 
ATOM      7  C   UNL     1     110.900 130.715 140.585  0.00  0.00    +0.000 C 
ATOM      8  C   UNL     1     110.300 130.732 141.151  0.00  0.00    +0.000 C 
ENDROOT
BRANCH   6  12
ATOM      9  O   UNL     1     111.613 132.485 142.714  0.00  0.00    +0.000 OA
ATOM     10  O   UNL     1     112.015 131.451 145.387  0.00  0.00    +0.000 OA
ATOM     11  O   UNL     1     111.972 133.400 143.771  0.00  0.00    +0.000 OA
ATOM     12  C   UNL     1     111.456 131.088 142.968  0.00  0.00    +0.000 A 
ATOM     13  C   UNL     1     111.627 131.848 143.238  0.00  0.00    +0.000 A 
ATOM     14  C   UNL     1     111.469 130.451 143.493  0.00  0.00    +0.000 A 
ATOM     15  C   UNL     1     111.811 131.972 144.033  0.00  0.00    +0.000 A 
ATOM     16  C   UNL     1     111.653 130.574 144.287  0.00  0.00    +0.000 A 
ATOM     17  C   UNL     1     111.825 131.335 144.557  0.00  0.00    +0.000 A 
ATOM     18  C   UNL     1     111.988 132.768 144.302  0.00  0.00    +0.000 A 
ATOM     19  C   UNL     1     112.181 132.904 145.129  0.00  0.00    +0.000 A 
ATOM     20  C   UNL     1     112.195 132.241 145.675  0.00  0.00    +0.000 A 
BRANCH  20  22
ATOM     21  O   UNL     1     112.933 132.720 148.855  0.00  0.00    +0.000 OA
ATOM     22  C   UNL     1     112.379 132.361 146.470  0.00  0.00    +0.000 A 
ATOM     23  C   UNL     1     111.829 132.717 146.972  0.00  0.00    +0.000 A 
ATOM     24  C   UNL     1     113.113 132.124 146.763  0.00  0.00    +0.000 A 
ATOM     25  C   UNL     1     112.014 132.837 147.767  0.00  0.00    +0.000 A 
ATOM     26  C   UNL     1     113.297 132.244 147.558  0.00  0.00    +0.000 A 
ATOM     27  C   UNL     1     112.748 132.600 148.060  0.00  0.00    +0.000 A 
ENDBRANCH  20  22
BRANCH  14  28
ATOM     28  O   UNL     1     111.298 129.690 143.222  0.00  0.00    +0.000 OA
ATOM     29  C   UNL     1     111.121 129.091 143.761  0.00  0.00    +0.000 C 
ENDBRANCH  14  28
ENDBRANCH   6  12
BRANCH   8  31
ATOM     30  O   UNL     1     108.927 131.123 141.220  0.00  0.00    +0.000 OA
ATOM     31  C   UNL     1     109.514 130.625 140.923  0.00  0.00    +0.000 C 
ENDBRANCH   8  31
BRANCH   4  32
ATOM     32  O   UNL     1     112.656 131.054 141.837  0.00  0.00    +0.000 OA
BRANCH  32  37
ATOM     33  O   UNL     1     113.098 129.785 141.349  0.00  0.00    +0.000 OA
ATOM     34  O   UNL     1     114.142 131.695 141.514  0.00  0.00    +0.000 OA
ATOM     35  O   UNL     1     115.326 130.746 140.866  0.00  0.00    +0.000 OA
ATOM     36  O   UNL     1     115.025 129.157 140.540  0.00  0.00    +0.000 OA
ATOM     37  C   UNL     1     113.249 130.579 141.512  0.00  0.00    +0.000 C 
ATOM     38  C   UNL     1     113.992 130.900 141.351  0.00  0.00    +0.000 C 
ATOM     39  C   UNL     1     114.584 130.426 141.027  0.00  0.00    +0.000 C 
ATOM     40  C   UNL     1     114.434 129.631 140.864  0.00  0.00    +0.000 C 
ATOM     41  C   UNL     1     113.691 129.311 141.025  0.00  0.00    +0.000 C 
BRANCH  41  42
ATOM     42  C   UNL     1     113.539 128.516 140.862  0.00  0.00    +0.000 C 
BRANCH  42  43
ATOM     43  O   UNL     1     113.039 128.082 141.355  0.00  0.00    +0.000 OA
BRANCH  43  45
ATOM     44  O   UNL     1     113.214 126.664 141.335  0.00  0.00    +0.000 OA
ATOM     45  C   UNL     1     112.781 127.334 141.124  0.00  0.00    +0.000 C 
BRANCH  45  46
ATOM     46  C   UNL     1     112.088 127.255 140.682  0.00  0.00    +0.000 C 
ATOM     47  C   UNL     1     111.519 126.700 140.903  0.00  0.00    +0.000 C 
BRANCH  47  49
ATOM     48  O   UNL     1     108.750 126.386 139.137  0.00  0.00    +0.000 OA
ATOM     49  C   UNL     1     110.826 126.622 140.461  0.00  0.00    +0.000 A 
ATOM     50  C   UNL     1     110.855 126.294 139.705  0.00  0.00    +0.000 A 
ATOM     51  C   UNL     1     110.106 126.871 140.777  0.00  0.00    +0.000 A 
ATOM     52  C   UNL     1     109.414 126.792 140.335  0.00  0.00    +0.000 A 
ATOM     53  C   UNL     1     110.163 126.215 139.264  0.00  0.00    +0.000 A 
ATOM     54  C   UNL     1     109.443 126.464 139.578  0.00  0.00    +0.000 A 
BRANCH  52  55
ATOM     55  O   UNL     1     108.693 127.041 140.650  0.00  0.00    +0.000 OA
ATOM     56  C   UNL     1     108.578 127.042 141.467  0.00  0.00    +0.000 C 
ENDBRANCH  52  55
BRANCH  53  57
ATOM     57  O   UNL     1     110.191 125.888 138.507  0.00  0.00    +0.000 OA
ATOM     58  C   UNL     1     110.792 125.359 138.308  0.00  0.00    +0.000 C 
ENDBRANCH  53  57
ENDBRANCH  47  49
ENDBRANCH  45  46
ENDBRANCH  43  45
ENDBRANCH  42  43
ENDBRANCH  41  42
ENDBRANCH  32  37
ENDBRANCH   4  32
TORSDOF 13
ENDMDL
MODEL 3
REMARK VINA RESULT:      -9.5      2.911      5.430
REMARK  Name = 44258337
REMARK  13 active torsions:
REMARK  status: ('A' for Active; 'I' for Inactive)
REMARK    1  A    between atoms: O_1  and  C_20
REMARK    2  A    between atoms: O_1  and  C_25
REMARK    3  A    between atoms: O_10  and  C_32
REMARK    4  A    between atoms: O_10  and  C_41
REMARK    5  A    between atoms: O_11  and  C_34
REMARK    6  A    between atoms: O_17  and  C_54
REMARK    7  A    between atoms: O_18  and  C_55
REMARK    8  A    between atoms: C_22  and  C_30
REMARK    9  A    between atoms: C_24  and  C_31
REMARK   10  A    between atoms: C_29  and  C_32
REMARK   11  A    between atoms: C_40  and  C_43
REMARK   12  A    between atoms: C_41  and  C_44
REMARK   13  A    between atoms: C_47  and  C_51
REMARK                            x       y       z     vdW  Elec       q    Type
REMARK                         _______ _______ _______ _____ _____    ______ ____
ROOT
ATOM      1  O   UNL     1     110.367 128.192 142.506  0.00  0.00    +0.000 OA
ATOM      2  O   UNL     1     110.441 130.232 141.107  0.00  0.00    +0.000 OA
ATOM      3  O   UNL     1     111.560 130.007 142.299  0.00  0.00    +0.000 OA
ATOM      4  C   UNL     1     109.832 128.984 141.444  0.00  0.00    +0.000 C 
ATOM      5  C   UNL     1     110.416 129.552 141.573  0.00  0.00    +0.000 C 
ATOM      6  C   UNL     1     109.807 128.304 141.910  0.00  0.00    +0.000 C 
ATOM      7  C   UNL     1     110.976 129.440 142.169  0.00  0.00    +0.000 C 
ATOM      8  C   UNL     1     110.951 128.759 142.636  0.00  0.00    +0.000 C 
ENDROOT
BRANCH   6  12
ATOM      9  O   UNL     1     110.160 126.934 141.061  0.00  0.00    +0.000 OA
ATOM     10  O   UNL     1     107.436 126.017 141.398  0.00  0.00    +0.000 OA
ATOM     11  O   UNL     1     109.774 125.665 140.492  0.00  0.00    +0.000 OA
ATOM     12  C   UNL     1     109.223 127.736 141.782  0.00  0.00    +0.000 A 
ATOM     13  C   UNL     1     109.399 127.051 141.357  0.00  0.00    +0.000 A 
ATOM     14  C   UNL     1     108.462 127.853 142.078  0.00  0.00    +0.000 A 
ATOM     15  C   UNL     1     108.814 126.483 141.229  0.00  0.00    +0.000 A 
ATOM     16  C   UNL     1     107.877 127.286 141.950  0.00  0.00    +0.000 A 
ATOM     17  C   UNL     1     108.053 126.600 141.525  0.00  0.00    +0.000 A 
ATOM     18  C   UNL     1     109.011 125.774 140.785  0.00  0.00    +0.000 A 
ATOM     19  C   UNL     1     108.406 125.179 140.648  0.00  0.00    +0.000 A 
ATOM     20  C   UNL     1     107.613 125.301 140.956  0.00  0.00    +0.000 A 
BRANCH  20  22
ATOM     21  O   UNL     1     105.264 123.040 140.449  0.00  0.00    +0.000 OA
ATOM     22  C   UNL     1     107.026 124.735 140.830  0.00  0.00    +0.000 A 
ATOM     23  C   UNL     1     107.019 124.041 141.276  0.00  0.00    +0.000 A 
ATOM     24  C   UNL     1     106.446 124.864 140.257  0.00  0.00    +0.000 A 
ATOM     25  C   UNL     1     106.432 123.476 141.148  0.00  0.00    +0.000 A 
ATOM     26  C   UNL     1     105.859 124.300 140.131  0.00  0.00    +0.000 A 
ATOM     27  C   UNL     1     105.852 123.605 140.576  0.00  0.00    +0.000 A 
ENDBRANCH  20  22
BRANCH  14  28
ATOM     28  O   UNL     1     108.285 128.539 142.503  0.00  0.00    +0.000 OA
ATOM     29  C   UNL     1     107.600 128.575 142.961  0.00  0.00    +0.000 C 
ENDBRANCH  14  28
ENDBRANCH   6  12
BRANCH   8  31
ATOM     30  O   UNL     1     111.270 128.402 143.982  0.00  0.00    +0.000 OA
ATOM     31  C   UNL     1     111.511 128.647 143.232  0.00  0.00    +0.000 C 
ENDBRANCH   8  31
BRANCH   4  32
ATOM     32  O   UNL     1     109.272 129.096 140.849  0.00  0.00    +0.000 OA
BRANCH  32  37
ATOM     33  O   UNL     1     110.226 129.009 139.788  0.00  0.00    +0.000 OA
ATOM     34  O   UNL     1     108.338 130.095 139.926  0.00  0.00    +0.000 OA
ATOM     35  O   UNL     1     108.824 130.507 138.404  0.00  0.00    +0.000 OA
ATOM     36  O   UNL     1     110.245 129.920 137.805  0.00  0.00    +0.000 OA
ATOM     37  C   UNL     1     109.516 129.302 140.087  0.00  0.00    +0.000 C 
ATOM     38  C   UNL     1     109.048 129.802 139.626  0.00  0.00    +0.000 C 
ATOM     39  C   UNL     1     109.291 130.007 138.865  0.00  0.00    +0.000 C 
ATOM     40  C   UNL     1     110.002 129.714 138.565  0.00  0.00    +0.000 C 
ATOM     41  C   UNL     1     110.469 129.215 139.027  0.00  0.00    +0.000 C 
BRANCH  41  42
ATOM     42  C   UNL     1     111.180 128.921 138.728  0.00  0.00    +0.000 C 
BRANCH  42  43
ATOM     43  O   UNL     1     111.306 128.106 138.691  0.00  0.00    +0.000 OA
BRANCH  43  45
ATOM     44  O   UNL     1     112.710 128.160 138.952  0.00  0.00    +0.000 OA
ATOM     45  C   UNL     1     112.067 127.812 138.569  0.00  0.00    +0.000 C 
BRANCH  45  46
ATOM     46  C   UNL     1     112.185 127.170 138.064  0.00  0.00    +0.000 C 
ATOM     47  C   UNL     1     112.387 126.433 138.376  0.00  0.00    +0.000 C 
BRANCH  47  49
ATOM     48  O   UNL     1     112.858 123.865 136.357  0.00  0.00    +0.000 OA
ATOM     49  C   UNL     1     112.505 125.790 137.871  0.00  0.00    +0.000 A 
ATOM     50  C   UNL     1     113.250 125.440 137.816  0.00  0.00    +0.000 A 
ATOM     51  C   UNL     1     111.878 125.500 137.421  0.00  0.00    +0.000 A 
ATOM     52  C   UNL     1     111.996 124.858 136.917  0.00  0.00    +0.000 A 
ATOM     53  C   UNL     1     113.367 124.798 137.312  0.00  0.00    +0.000 A 
ATOM     54  C   UNL     1     112.741 124.507 136.862  0.00  0.00    +0.000 A 
BRANCH  52  55
ATOM     55  O   UNL     1     111.368 124.566 136.466  0.00  0.00    +0.000 OA
ATOM     56  C   UNL     1     110.945 125.073 135.971  0.00  0.00    +0.000 C 
ENDBRANCH  52  55
BRANCH  53  57
ATOM     57  O   UNL     1     114.112 124.447 137.257  0.00  0.00    +0.000 OA
ATOM     58  C   UNL     1     114.791 124.901 137.373  0.00  0.00    +0.000 C 
ENDBRANCH  53  57
ENDBRANCH  47  49
ENDBRANCH  45  46
ENDBRANCH  43  45
ENDBRANCH  42  43
ENDBRANCH  41  42
ENDBRANCH  32  37
ENDBRANCH   4  32
TORSDOF 13
ENDMDL
MODEL 4
REMARK VINA RESULT:      -9.4      1.752      5.679
REMARK  Name = 44258337
REMARK  13 active torsions:
REMARK  status: ('A' for Active; 'I' for Inactive)
REMARK    1  A    between atoms: O_1  and  C_20
REMARK    2  A    between atoms: O_1  and  C_25
REMARK    3  A    between atoms: O_10  and  C_32
REMARK    4  A    between atoms: O_10  and  C_41
REMARK    5  A    between atoms: O_11  and  C_34
REMARK    6  A    between atoms: O_17  and  C_54
REMARK    7  A    between atoms: O_18  and  C_55
REMARK    8  A    between atoms: C_22  and  C_30
REMARK    9  A    between atoms: C_24  and  C_31
REMARK   10  A    between atoms: C_29  and  C_32
REMARK   11  A    between atoms: C_40  and  C_43
REMARK   12  A    between atoms: C_41  and  C_44
REMARK   13  A    between atoms: C_47  and  C_51
REMARK                            x       y       z     vdW  Elec       q    Type
REMARK                         _______ _______ _______ _____ _____    ______ ____
ROOT
ATOM      1  O   UNL     1     113.699 130.578 139.902  0.00  0.00    +0.000 OA
ATOM      2  O   UNL     1     114.168 128.154 140.070  0.00  0.00    +0.000 OA
ATOM      3  O   UNL     1     114.852 129.203 141.143  0.00  0.00    +0.000 OA
ATOM      4  C   UNL     1     113.512 129.246 139.421  0.00  0.00    +0.000 C 
ATOM      5  C   UNL     1     114.011 128.961 140.014  0.00  0.00    +0.000 C 
ATOM      6  C   UNL     1     113.356 130.053 139.365  0.00  0.00    +0.000 C 
ATOM      7  C   UNL     1     114.354 129.486 140.551  0.00  0.00    +0.000 C 
ATOM      8  C   UNL     1     114.197 130.295 140.495  0.00  0.00    +0.000 C 
ENDROOT
BRANCH   6  12
ATOM      9  O   UNL     1     111.773 130.374 139.701  0.00  0.00    +0.000 OA
ATOM     10  O   UNL     1     111.353 131.201 136.960  0.00  0.00    +0.000 OA
ATOM     11  O   UNL     1     110.460 130.818 139.298  0.00  0.00    +0.000 OA
ATOM     12  C   UNL     1     112.857 130.337 138.772  0.00  0.00    +0.000 A 
ATOM     13  C   UNL     1     112.066 130.498 138.940  0.00  0.00    +0.000 A 
ATOM     14  C   UNL     1     113.151 130.461 138.011  0.00  0.00    +0.000 A 
ATOM     15  C   UNL     1     111.568 130.782 138.347  0.00  0.00    +0.000 A 
ATOM     16  C   UNL     1     112.653 130.745 137.418  0.00  0.00    +0.000 A 
ATOM     17  C   UNL     1     111.861 130.906 137.586  0.00  0.00    +0.000 A 
ATOM     18  C   UNL     1     110.745 130.945 138.534  0.00  0.00    +0.000 A 
ATOM     19  C   UNL     1     110.221 131.241 137.921  0.00  0.00    +0.000 A 
ATOM     20  C   UNL     1     110.527 131.370 137.128  0.00  0.00    +0.000 A 
BRANCH  20  22
ATOM     21  O   UNL     1     108.545 132.504 134.746  0.00  0.00    +0.000 OA
ATOM     22  C   UNL     1     110.031 131.654 136.532  0.00  0.00    +0.000 A 
ATOM     23  C   UNL     1     109.967 132.466 136.402  0.00  0.00    +0.000 A 
ATOM     24  C   UNL     1     109.600 131.126 136.068  0.00  0.00    +0.000 A 
ATOM     25  C   UNL     1     109.472 132.750 135.806  0.00  0.00    +0.000 A 
ATOM     26  C   UNL     1     109.106 131.409 135.473  0.00  0.00    +0.000 A 
ATOM     27  C   UNL     1     109.041 132.221 135.342  0.00  0.00    +0.000 A 
ENDBRANCH  20  22
BRANCH  14  28
ATOM     28  O   UNL     1     113.943 130.301 137.843  0.00  0.00    +0.000 OA
ATOM     29  C   UNL     1     114.281 130.579 137.143  0.00  0.00    +0.000 C 
ENDBRANCH  14  28
ENDBRANCH   6  12
BRANCH   8  31
ATOM     30  O   UNL     1     114.811 131.554 140.773  0.00  0.00    +0.000 OA
ATOM     31  C   UNL     1     114.540 130.819 141.031  0.00  0.00    +0.000 C 
ENDBRANCH   8  31
BRANCH   4  32
ATOM     32  O   UNL     1     113.170 128.721 138.884  0.00  0.00    +0.000 OA
BRANCH  32  37
ATOM     33  O   UNL     1     112.420 128.004 139.866  0.00  0.00    +0.000 OA
ATOM     34  O   UNL     1     113.325 127.341 137.994  0.00  0.00    +0.000 OA
ATOM     35  O   UNL     1     112.652 125.933 138.530  0.00  0.00    +0.000 OA
ATOM     36  O   UNL     1     111.824 125.906 139.958  0.00  0.00    +0.000 OA
ATOM     37  C   UNL     1     112.833 128.017 139.153  0.00  0.00    +0.000 C 
ATOM     38  C   UNL     1     112.911 127.326 138.707  0.00  0.00    +0.000 C 
ATOM     39  C   UNL     1     112.574 126.623 138.976  0.00  0.00    +0.000 C 
ATOM     40  C   UNL     1     112.160 126.609 139.689  0.00  0.00    +0.000 C 
ATOM     41  C   UNL     1     112.083 127.299 140.135  0.00  0.00    +0.000 C 
BRANCH  41  42
ATOM     42  C   UNL     1     111.670 127.286 140.848  0.00  0.00    +0.000 C 
BRANCH  42  43
ATOM     43  O   UNL     1     111.279 127.965 141.111  0.00  0.00    +0.000 OA
BRANCH  43  45
ATOM     44  O   UNL     1     110.326 127.513 142.075  0.00  0.00    +0.000 OA
ATOM     45  C   UNL     1     110.968 127.991 141.874  0.00  0.00    +0.000 C 
BRANCH  45  46
ATOM     46  C   UNL     1     111.298 128.497 142.437  0.00  0.00    +0.000 C 
ATOM     47  C   UNL     1     110.830 129.069 142.802  0.00  0.00    +0.000 C 
BRANCH  47  49
ATOM     48  O   UNL     1     112.151 131.091 145.051  0.00  0.00    +0.000 OA
ATOM     49  C   UNL     1     111.160 129.575 143.365  0.00  0.00    +0.000 A 
ATOM     50  C   UNL     1     111.262 129.317 144.142  0.00  0.00    +0.000 A 
ATOM     51  C   UNL     1     111.389 130.337 143.149  0.00  0.00    +0.000 A 
ATOM     52  C   UNL     1     111.719 130.842 143.712  0.00  0.00    +0.000 A 
ATOM     53  C   UNL     1     111.592 129.822 144.704  0.00  0.00    +0.000 A 
ATOM     54  C   UNL     1     111.821 130.585 144.489  0.00  0.00    +0.000 A 
BRANCH  52  55
ATOM     55  O   UNL     1     111.948 131.606 143.497  0.00  0.00    +0.000 OA
ATOM     56  C   UNL     1     111.622 131.961 142.827  0.00  0.00    +0.000 C 
ENDBRANCH  52  55
BRANCH  53  57
ATOM     57  O   UNL     1     111.694 129.565 145.481  0.00  0.00    +0.000 OA
ATOM     58  C   UNL     1     111.998 128.813 145.630  0.00  0.00    +0.000 C 
ENDBRANCH  53  57
ENDBRANCH  47  49
ENDBRANCH  45  46
ENDBRANCH  43  45
ENDBRANCH  42  43
ENDBRANCH  41  42
ENDBRANCH  32  37
ENDBRANCH   4  32
TORSDOF 13
ENDMDL
MODEL 5
REMARK VINA RESULT:      -9.4      2.947      4.813
REMARK  Name = 44258337
REMARK  13 active torsions:
REMARK  status: ('A' for Active; 'I' for Inactive)
REMARK    1  A    between atoms: O_1  and  C_20
REMARK    2  A    between atoms: O_1  and  C_25
REMARK    3  A    between atoms: O_10  and  C_32
REMARK    4  A    between atoms: O_10  and  C_41
REMARK    5  A    between atoms: O_11  and  C_34
REMARK    6  A    between atoms: O_17  and  C_54
REMARK    7  A    between atoms: O_18  and  C_55
REMARK    8  A    between atoms: C_22  and  C_30
REMARK    9  A    between atoms: C_24  and  C_31
REMARK   10  A    between atoms: C_29  and  C_32
REMARK   11  A    between atoms: C_40  and  C_43
REMARK   12  A    between atoms: C_41  and  C_44
REMARK   13  A    between atoms: C_47  and  C_51
REMARK                            x       y       z     vdW  Elec       q    Type
REMARK                         _______ _______ _______ _____ _____    ______ ____
ROOT
ATOM      1  O   UNL     1     109.549 130.012 138.772  0.00  0.00    +0.000 OA
ATOM      2  O   UNL     1     110.406 130.637 141.008  0.00  0.00    +0.000 OA
ATOM      3  O   UNL     1     109.257 131.568 140.275  0.00  0.00    +0.000 OA
ATOM      4  C   UNL     1     110.409 129.756 139.883  0.00  0.00    +0.000 C 
ATOM      5  C   UNL     1     110.120 130.429 140.263  0.00  0.00    +0.000 C 
ATOM      6  C   UNL     1     110.123 129.547 139.138  0.00  0.00    +0.000 C 
ATOM      7  C   UNL     1     109.546 130.894 139.897  0.00  0.00    +0.000 C 
ATOM      8  C   UNL     1     109.260 130.686 139.151  0.00  0.00    +0.000 C 
ENDROOT
BRANCH   6  12
ATOM      9  O   UNL     1     109.265 128.139 139.188  0.00  0.00    +0.000 OA
ATOM     10  O   UNL     1     111.301 126.834 137.600  0.00  0.00    +0.000 OA
ATOM     11  O   UNL     1     109.098 126.747 138.844  0.00  0.00    +0.000 OA
ATOM     12  C   UNL     1     110.412 128.874 138.759  0.00  0.00    +0.000 A 
ATOM     13  C   UNL     1     109.983 128.170 138.783  0.00  0.00    +0.000 A 
ATOM     14  C   UNL     1     111.130 128.905 138.354  0.00  0.00    +0.000 A 
ATOM     15  C   UNL     1     110.271 127.497 138.404  0.00  0.00    +0.000 A 
ATOM     16  C   UNL     1     111.419 128.232 137.974  0.00  0.00    +0.000 A 
ATOM     17  C   UNL     1     110.990 127.528 137.999  0.00  0.00    +0.000 A 
ATOM     18  C   UNL     1     109.815 126.770 138.437  0.00  0.00    +0.000 A 
ATOM     19  C   UNL     1     110.111 126.065 138.043  0.00  0.00    +0.000 A 
ATOM     20  C   UNL     1     110.858 126.097 137.622  0.00  0.00    +0.000 A 
BRANCH  20  22
ATOM     21  O   UNL     1     112.027 123.413 136.100  0.00  0.00    +0.000 OA
ATOM     22  C   UNL     1     111.151 125.426 137.241  0.00  0.00    +0.000 A 
ATOM     23  C   UNL     1     111.032 125.328 136.430  0.00  0.00    +0.000 A 
ATOM     24  C   UNL     1     111.560 124.854 137.671  0.00  0.00    +0.000 A 
ATOM     25  C   UNL     1     111.325 124.656 136.050  0.00  0.00    +0.000 A 
ATOM     26  C   UNL     1     111.852 124.183 137.291  0.00  0.00    +0.000 A 
ATOM     27  C   UNL     1     111.735 124.084 136.480  0.00  0.00    +0.000 A 
ENDBRANCH  20  22
BRANCH  14  28
ATOM     28  O   UNL     1     111.560 129.609 138.329  0.00  0.00    +0.000 OA
ATOM     29  C   UNL     1     112.171 129.701 137.782  0.00  0.00    +0.000 C 
ENDBRANCH  14  28
ENDBRANCH   6  12
BRANCH   8  31
ATOM     30  O   UNL     1     108.515 131.041 137.984  0.00  0.00    +0.000 OA
ATOM     31  C   UNL     1     108.685 131.151 138.784  0.00  0.00    +0.000 C 
ENDBRANCH   8  31
BRANCH   4  32
ATOM     32  O   UNL     1     110.983 129.290 140.249  0.00  0.00    +0.000 OA
BRANCH  32  37
ATOM     33  O   UNL     1     110.151 128.856 141.327  0.00  0.00    +0.000 OA
ATOM     34  O   UNL     1     112.291 129.281 141.256  0.00  0.00    +0.000 OA
ATOM     35  O   UNL     1     112.112 128.841 142.836  0.00  0.00    +0.000 OA
ATOM     36  O   UNL     1     110.626 128.411 143.410  0.00  0.00    +0.000 OA
ATOM     37  C   UNL     1     110.894 129.070 141.040  0.00  0.00    +0.000 C 
ATOM     38  C   UNL     1     111.548 129.066 141.544  0.00  0.00    +0.000 C 
ATOM     39  C   UNL     1     111.458 128.846 142.333  0.00  0.00    +0.000 C 
ATOM     40  C   UNL     1     110.715 128.631 142.621  0.00  0.00    +0.000 C 
ATOM     41  C   UNL     1     110.062 128.636 142.117  0.00  0.00    +0.000 C 
BRANCH  41  42
ATOM     42  C   UNL     1     109.319 128.421 142.404  0.00  0.00    +0.000 C 
BRANCH  42  43
ATOM     43  O   UNL     1     108.892 127.819 142.033  0.00  0.00    +0.000 OA
BRANCH  43  45
ATOM     44  O   UNL     1     107.625 128.380 142.381  0.00  0.00    +0.000 OA
ATOM     45  C   UNL     1     108.089 127.724 142.194  0.00  0.00    +0.000 C 
BRANCH  45  46
ATOM     46  C   UNL     1     107.749 126.972 142.167  0.00  0.00    +0.000 C 
ATOM     47  C   UNL     1     106.934 126.891 142.069  0.00  0.00    +0.000 C 
BRANCH  47  49
ATOM     48  O   UNL     1     105.577 123.885 141.964  0.00  0.00    +0.000 OA
ATOM     49  C   UNL     1     106.595 126.139 142.043  0.00  0.00    +0.000 A 
ATOM     50  C   UNL     1     106.621 125.699 141.345  0.00  0.00    +0.000 A 
ATOM     51  C   UNL     1     106.229 125.828 142.714  0.00  0.00    +0.000 A 
ATOM     52  C   UNL     1     105.890 125.077 142.687  0.00  0.00    +0.000 A 
ATOM     53  C   UNL     1     106.282 124.948 141.319  0.00  0.00    +0.000 A 
ATOM     54  C   UNL     1     105.917 124.637 141.990  0.00  0.00    +0.000 A 
BRANCH  52  55
ATOM     55  O   UNL     1     105.525 124.766 143.359  0.00  0.00    +0.000 OA
ATOM     56  C   UNL     1     105.760 125.014 144.109  0.00  0.00    +0.000 C 
ENDBRANCH  52  55
BRANCH  53  57
ATOM     57  O   UNL     1     106.308 124.508 140.622  0.00  0.00    +0.000 OA
ATOM     58  C   UNL     1     106.055 124.843 139.912  0.00  0.00    +0.000 C 
ENDBRANCH  53  57
ENDBRANCH  47  49
ENDBRANCH  45  46
ENDBRANCH  43  45
ENDBRANCH  42  43
ENDBRANCH  41  42
ENDBRANCH  32  37
ENDBRANCH   4  32
TORSDOF 13
ENDMDL
MODEL 6
REMARK VINA RESULT:      -9.4      1.882      5.090
REMARK  Name = 44258337
REMARK  13 active torsions:
REMARK  status: ('A' for Active; 'I' for Inactive)
REMARK    1  A    between atoms: O_1  and  C_20
REMARK    2  A    between atoms: O_1  and  C_25
REMARK    3  A    between atoms: O_10  and  C_32
REMARK    4  A    between atoms: O_10  and  C_41
REMARK    5  A    between atoms: O_11  and  C_34
REMARK    6  A    between atoms: O_17  and  C_54
REMARK    7  A    between atoms: O_18  and  C_55
REMARK    8  A    between atoms: C_22  and  C_30
REMARK    9  A    between atoms: C_24  and  C_31
REMARK   10  A    between atoms: C_29  and  C_32
REMARK   11  A    between atoms: C_40  and  C_43
REMARK   12  A    between atoms: C_41  and  C_44
REMARK   13  A    between atoms: C_47  and  C_51
REMARK                            x       y       z     vdW  Elec       q    Type
REMARK                         _______ _______ _______ _____ _____    ______ ____
ROOT
ATOM      1  O   UNL     1     113.560 130.450 139.798  0.00  0.00    +0.000 OA
ATOM      2  O   UNL     1     114.099 128.037 139.891  0.00  0.00    +0.000 OA
ATOM      3  O   UNL     1     114.732 129.068 141.014  0.00  0.00    +0.000 OA
ATOM      4  C   UNL     1     113.423 129.131 139.268  0.00  0.00    +0.000 C 
ATOM      5  C   UNL     1     113.919 128.841 139.860  0.00  0.00    +0.000 C 
ATOM      6  C   UNL     1     113.244 129.935 139.237  0.00  0.00    +0.000 C 
ATOM      7  C   UNL     1     114.236 129.356 140.421  0.00  0.00    +0.000 C 
ATOM      8  C   UNL     1     114.056 130.162 140.390  0.00  0.00    +0.000 C 
ENDROOT
BRANCH   6  12
ATOM      9  O   UNL     1     111.645 130.196 139.552  0.00  0.00    +0.000 OA
ATOM     10  O   UNL     1     111.251 131.107 136.834  0.00  0.00    +0.000 OA
ATOM     11  O   UNL     1     110.327 130.616 139.139  0.00  0.00    +0.000 OA
ATOM     12  C   UNL     1     112.748 130.225 138.644  0.00  0.00    +0.000 A 
ATOM     13  C   UNL     1     111.949 130.356 138.802  0.00  0.00    +0.000 A 
ATOM     14  C   UNL     1     113.051 130.384 137.894  0.00  0.00    +0.000 A 
ATOM     15  C   UNL     1     111.453 130.646 138.210  0.00  0.00    +0.000 A 
ATOM     16  C   UNL     1     112.557 130.674 137.301  0.00  0.00    +0.000 A 
ATOM     17  C   UNL     1     111.757 130.805 137.459  0.00  0.00    +0.000 A 
ATOM     18  C   UNL     1     110.623 130.778 138.386  0.00  0.00    +0.000 A 
ATOM     19  C   UNL     1     110.101 131.080 137.773  0.00  0.00    +0.000 A 
ATOM     20  C   UNL     1     110.418 131.246 136.992  0.00  0.00    +0.000 A 
BRANCH  20  22
ATOM     21  O   UNL     1     108.448 132.404 134.612  0.00  0.00    +0.000 OA
ATOM     22  C   UNL     1     109.925 131.536 136.397  0.00  0.00    +0.000 A 
ATOM     23  C   UNL     1     109.823 132.349 136.306  0.00  0.00    +0.000 A 
ATOM     24  C   UNL     1     109.535 131.012 135.893  0.00  0.00    +0.000 A 
ATOM     25  C   UNL     1     109.330 132.639 135.711  0.00  0.00    +0.000 A 
ATOM     26  C   UNL     1     109.043 131.301 135.298  0.00  0.00    +0.000 A 
ATOM     27  C   UNL     1     108.940 132.114 135.207  0.00  0.00    +0.000 A 
ENDBRANCH  20  22
BRANCH  14  28
ATOM     28  O   UNL     1     113.851 130.254 137.736  0.00  0.00    +0.000 OA
ATOM     29  C   UNL     1     114.196 130.577 137.060  0.00  0.00    +0.000 C 
ENDBRANCH  14  28
ENDBRANCH   6  12
BRANCH   8  31
ATOM     30  O   UNL     1     114.612 131.434 140.727  0.00  0.00    +0.000 OA
ATOM     31  C   UNL     1     114.372 130.677 140.952  0.00  0.00    +0.000 C 
ENDBRANCH   8  31
BRANCH   4  32
ATOM     32  O   UNL     1     113.107 128.616 138.706  0.00  0.00    +0.000 OA
BRANCH  32  37
ATOM     33  O   UNL     1     112.329 127.862 139.638  0.00  0.00    +0.000 OA
ATOM     34  O   UNL     1     113.332 127.258 137.797  0.00  0.00    +0.000 OA
ATOM     35  O   UNL     1     112.667 125.825 138.274  0.00  0.00    +0.000 OA
ATOM     36  O   UNL     1     111.776 125.751 139.661  0.00  0.00    +0.000 OA
ATOM     37  C   UNL     1     112.774 127.899 138.945  0.00  0.00    +0.000 C 
ATOM     38  C   UNL     1     112.887 127.220 138.490  0.00  0.00    +0.000 C 
ATOM     39  C   UNL     1     112.554 126.504 138.729  0.00  0.00    +0.000 C 
ATOM     40  C   UNL     1     112.109 126.466 139.422  0.00  0.00    +0.000 C 
ATOM     41  C   UNL     1     111.996 127.145 139.877  0.00  0.00    +0.000 C 
BRANCH  41  42
ATOM     42  C   UNL     1     111.551 127.109 140.570  0.00  0.00    +0.000 C 
BRANCH  42  43
ATOM     43  O   UNL     1     110.943 127.653 140.699  0.00  0.00    +0.000 OA
BRANCH  43  45
ATOM     44  O   UNL     1     110.864 127.456 142.112  0.00  0.00    +0.000 OA
ATOM     45  C   UNL     1     110.496 127.615 141.392  0.00  0.00    +0.000 C 
BRANCH  45  46
ATOM     46  C   UNL     1     109.680 127.736 141.362  0.00  0.00    +0.000 C 
ATOM     47  C   UNL     1     109.321 128.254 141.895  0.00  0.00    +0.000 C 
BRANCH  47  49
ATOM     48  O   UNL     1     106.059 128.739 141.778  0.00  0.00    +0.000 OA
ATOM     49  C   UNL     1     108.505 128.375 141.866  0.00  0.00    +0.000 A 
ATOM     50  C   UNL     1     107.993 127.810 142.180  0.00  0.00    +0.000 A 
ATOM     51  C   UNL     1     108.203 129.062 141.523  0.00  0.00    +0.000 A 
ATOM     52  C   UNL     1     107.387 129.183 141.494  0.00  0.00    +0.000 A 
ATOM     53  C   UNL     1     107.178 127.931 142.150  0.00  0.00    +0.000 A 
ATOM     54  C   UNL     1     106.875 128.617 141.808  0.00  0.00    +0.000 A 
BRANCH  52  55
ATOM     55  O   UNL     1     107.084 129.870 141.151  0.00  0.00    +0.000 OA
ATOM     56  C   UNL     1     107.463 130.593 141.270  0.00  0.00    +0.000 C 
ENDBRANCH  52  55
BRANCH  53  57
ATOM     57  O   UNL     1     106.665 127.366 142.464  0.00  0.00    +0.000 OA
ATOM     58  C   UNL     1     106.891 126.924 143.123  0.00  0.00    +0.000 C 
ENDBRANCH  53  57
ENDBRANCH  47  49
ENDBRANCH  45  46
ENDBRANCH  43  45
ENDBRANCH  42  43
ENDBRANCH  41  42
ENDBRANCH  32  37
ENDBRANCH   4  32
TORSDOF 13
ENDMDL
MODEL 7
REMARK VINA RESULT:      -9.3      2.169      4.765
REMARK  Name = 44258337
REMARK  13 active torsions:
REMARK  status: ('A' for Active; 'I' for Inactive)
REMARK    1  A    between atoms: O_1  and  C_20
REMARK    2  A    between atoms: O_1  and  C_25
REMARK    3  A    between atoms: O_10  and  C_32
REMARK    4  A    between atoms: O_10  and  C_41
REMARK    5  A    between atoms: O_11  and  C_34
REMARK    6  A    between atoms: O_17  and  C_54
REMARK    7  A    between atoms: O_18  and  C_55
REMARK    8  A    between atoms: C_22  and  C_30
REMARK    9  A    between atoms: C_24  and  C_31
REMARK   10  A    between atoms: C_29  and  C_32
REMARK   11  A    between atoms: C_40  and  C_43
REMARK   12  A    between atoms: C_41  and  C_44
REMARK   13  A    between atoms: C_47  and  C_51
REMARK                            x       y       z     vdW  Elec       q    Type
REMARK                         _______ _______ _______ _____ _____    ______ ____
ROOT
ATOM      1  O   UNL     1     113.323 127.560 141.043  0.00  0.00    +0.000 OA
ATOM      2  O   UNL     1     113.585 129.874 140.207  0.00  0.00    +0.000 OA
ATOM      3  O   UNL     1     114.916 128.936 140.468  0.00  0.00    +0.000 OA
ATOM      4  C   UNL     1     112.744 128.800 140.634  0.00  0.00    +0.000 C 
ATOM      5  C   UNL     1     113.497 129.103 140.486  0.00  0.00    +0.000 C 
ATOM      6  C   UNL     1     112.657 128.029 140.913  0.00  0.00    +0.000 C 
ATOM      7  C   UNL     1     114.163 128.634 140.616  0.00  0.00    +0.000 C 
ATOM      8  C   UNL     1     114.076 127.862 140.895  0.00  0.00    +0.000 C 
ENDROOT
BRANCH   6  12
ATOM      9  O   UNL     1     111.933 127.038 139.810  0.00  0.00    +0.000 OA
ATOM     10  O   UNL     1     109.614 126.812 141.526  0.00  0.00    +0.000 OA
ATOM     11  O   UNL     1     110.821 126.225 139.379  0.00  0.00    +0.000 OA
ATOM     12  C   UNL     1     111.904 127.726 141.061  0.00  0.00    +0.000 A 
ATOM     13  C   UNL     1     111.542 127.231 140.510  0.00  0.00    +0.000 A 
ATOM     14  C   UNL     1     111.513 127.919 141.762  0.00  0.00    +0.000 A 
ATOM     15  C   UNL     1     110.789 126.928 140.659  0.00  0.00    +0.000 A 
ATOM     16  C   UNL     1     110.760 127.617 141.911  0.00  0.00    +0.000 A 
ATOM     17  C   UNL     1     110.398 127.121 141.359  0.00  0.00    +0.000 A 
ATOM     18  C   UNL     1     110.423 126.413 140.077  0.00  0.00    +0.000 A 
ATOM     19  C   UNL     1     109.639 126.094 140.226  0.00  0.00    +0.000 A 
ATOM     20  C   UNL     1     109.232 126.295 140.956  0.00  0.00    +0.000 A 
BRANCH  20  22
ATOM     21  O   UNL     1     106.220 125.093 141.566  0.00  0.00    +0.000 OA
ATOM     22  C   UNL     1     108.478 125.994 141.108  0.00  0.00    +0.000 A 
ATOM     23  C   UNL     1     108.313 125.200 140.956  0.00  0.00    +0.000 A 
ATOM     24  C   UNL     1     107.892 126.487 141.413  0.00  0.00    +0.000 A 
ATOM     25  C   UNL     1     107.560 124.900 141.109  0.00  0.00    +0.000 A 
ATOM     26  C   UNL     1     107.139 126.187 141.565  0.00  0.00    +0.000 A 
ATOM     27  C   UNL     1     106.973 125.393 141.413  0.00  0.00    +0.000 A 
ENDBRANCH  20  22
BRANCH  14  28
ATOM     28  O   UNL     1     111.875 128.415 142.313  0.00  0.00    +0.000 OA
ATOM     29  C   UNL     1     111.558 128.490 143.071  0.00  0.00    +0.000 C 
ENDBRANCH  14  28
ENDBRANCH   6  12
BRANCH   8  31
ATOM     30  O   UNL     1     114.674 126.690 141.453  0.00  0.00    +0.000 OA
ATOM     31  C   UNL     1     114.742 127.393 141.025  0.00  0.00    +0.000 C 
ENDBRANCH   8  31
BRANCH   4  32
ATOM     32  O   UNL     1     112.078 129.269 140.504  0.00  0.00    +0.000 OA
BRANCH  32  37
ATOM     33  O   UNL     1     112.300 129.373 139.096  0.00  0.00    +0.000 OA
ATOM     34  O   UNL     1     111.323 130.736 140.493  0.00  0.00    +0.000 OA
ATOM     35  O   UNL     1     111.167 131.574 139.080  0.00  0.00    +0.000 OA
ATOM     36  O   UNL     1     111.767 130.944 137.677  0.00  0.00    +0.000 OA
ATOM     37  C   UNL     1     112.000 129.688 139.797  0.00  0.00    +0.000 C 
ATOM     38  C   UNL     1     111.623 130.422 139.791  0.00  0.00    +0.000 C 
ATOM     39  C   UNL     1     111.545 130.840 139.085  0.00  0.00    +0.000 C 
ATOM     40  C   UNL     1     111.845 130.526 138.383  0.00  0.00    +0.000 C 
ATOM     41  C   UNL     1     112.222 129.792 138.389  0.00  0.00    +0.000 C 
BRANCH  41  42
ATOM     42  C   UNL     1     112.522 129.477 137.688  0.00  0.00    +0.000 C 
BRANCH  42  43
ATOM     43  O   UNL     1     112.184 128.797 137.364  0.00  0.00    +0.000 OA
BRANCH  43  45
ATOM     44  O   UNL     1     113.174 128.609 136.351  0.00  0.00    +0.000 OA
ATOM     45  C   UNL     1     112.640 128.294 136.895  0.00  0.00    +0.000 C 
BRANCH  45  46
ATOM     46  C   UNL     1     112.560 127.476 136.970  0.00  0.00    +0.000 C 
ATOM     47  C   UNL     1     112.859 126.978 136.384  0.00  0.00    +0.000 C 
BRANCH  47  49
ATOM     48  O   UNL     1     112.541 123.707 136.684  0.00  0.00    +0.000 OA
ATOM     49  C   UNL     1     112.779 126.159 136.459  0.00  0.00    +0.000 A 
ATOM     50  C   UNL     1     112.097 125.784 136.185  0.00  0.00    +0.000 A 
ATOM     51  C   UNL     1     113.382 125.717 136.808  0.00  0.00    +0.000 A 
ATOM     52  C   UNL     1     113.302 124.900 136.882  0.00  0.00    +0.000 A 
ATOM     53  C   UNL     1     112.018 124.967 136.260  0.00  0.00    +0.000 A 
ATOM     54  C   UNL     1     112.619 124.525 136.609  0.00  0.00    +0.000 A 
BRANCH  52  55
ATOM     55  O   UNL     1     113.905 124.456 137.231  0.00  0.00    +0.000 OA
ATOM     56  C   UNL     1     114.679 124.740 137.229  0.00  0.00    +0.000 C 
ENDBRANCH  52  55
BRANCH  53  57
ATOM     57  O   UNL     1     111.336 124.592 135.987  0.00  0.00    +0.000 OA
ATOM     58  C   UNL     1     110.753 125.028 135.598  0.00  0.00    +0.000 C 
ENDBRANCH  53  57
ENDBRANCH  47  49
ENDBRANCH  45  46
ENDBRANCH  43  45
ENDBRANCH  42  43
ENDBRANCH  41  42
ENDBRANCH  32  37
ENDBRANCH   4  32
TORSDOF 13
ENDMDL
MODEL 8
REMARK VINA RESULT:      -9.3      2.305      4.811
REMARK  Name = 44258337
REMARK  13 active torsions:
REMARK  status: ('A' for Active; 'I' for Inactive)
REMARK    1  A    between atoms: O_1  and  C_20
REMARK    2  A    between atoms: O_1  and  C_25
REMARK    3  A    between atoms: O_10  and  C_32
REMARK    4  A    between atoms: O_10  and  C_41
REMARK    5  A    between atoms: O_11  and  C_34
REMARK    6  A    between atoms: O_17  and  C_54
REMARK    7  A    between atoms: O_18  and  C_55
REMARK    8  A    between atoms: C_22  and  C_30
REMARK    9  A    between atoms: C_24  and  C_31
REMARK   10  A    between atoms: C_29  and  C_32
REMARK   11  A    between atoms: C_40  and  C_43
REMARK   12  A    between atoms: C_41  and  C_44
REMARK   13  A    between atoms: C_47  and  C_51
REMARK                            x       y       z     vdW  Elec       q    Type
REMARK                         _______ _______ _______ _____ _____    ______ ____
ROOT
ATOM      1  O   UNL     1     109.267 130.534 137.450  0.00  0.00    +0.000 OA
ATOM      2  O   UNL     1     110.417 131.871 139.186  0.00  0.00    +0.000 OA
ATOM      3  O   UNL     1     109.066 132.465 138.447  0.00  0.00    +0.000 OA
ATOM      4  C   UNL     1     110.325 130.683 138.397  0.00  0.00    +0.000 C 
ATOM      5  C   UNL     1     110.034 131.426 138.607  0.00  0.00    +0.000 C 
ATOM      6  C   UNL     1     109.942 130.237 137.819  0.00  0.00    +0.000 C 
ATOM      7  C   UNL     1     109.358 131.723 138.238  0.00  0.00    +0.000 C 
ATOM      8  C   UNL     1     108.975 131.277 137.659  0.00  0.00    +0.000 C 
ENDROOT
BRANCH   6  12
ATOM      9  O   UNL     1     109.254 128.873 138.442  0.00  0.00    +0.000 OA
ATOM     10  O   UNL     1     111.130 127.243 136.961  0.00  0.00    +0.000 OA
ATOM     11  O   UNL     1     109.179 127.437 138.563  0.00  0.00    +0.000 OA
ATOM     12  C   UNL     1     110.234 129.494 137.609  0.00  0.00    +0.000 A 
ATOM     13  C   UNL     1     109.890 128.813 137.920  0.00  0.00    +0.000 A 
ATOM     14  C   UNL     1     110.869 129.434 137.086  0.00  0.00    +0.000 A 
ATOM     15  C   UNL     1     110.181 128.070 137.710  0.00  0.00    +0.000 A 
ATOM     16  C   UNL     1     111.161 128.692 136.875  0.00  0.00    +0.000 A 
ATOM     17  C   UNL     1     110.817 128.010 137.188  0.00  0.00    +0.000 A 
ATOM     18  C   UNL     1     109.815 127.368 138.041  0.00  0.00    +0.000 A 
ATOM     19  C   UNL     1     110.114 126.591 137.826  0.00  0.00    +0.000 A 
ATOM     20  C   UNL     1     110.776 126.528 137.282  0.00  0.00    +0.000 A 
BRANCH  20  22
ATOM     21  O   UNL     1     111.954 123.565 136.433  0.00  0.00    +0.000 OA
ATOM     22  C   UNL     1     111.071 125.787 137.069  0.00  0.00    +0.000 A 
ATOM     23  C   UNL     1     110.913 125.480 136.320  0.00  0.00    +0.000 A 
ATOM     24  C   UNL     1     111.523 125.354 137.607  0.00  0.00    +0.000 A 
ATOM     25  C   UNL     1     111.207 124.739 136.108  0.00  0.00    +0.000 A 
ATOM     26  C   UNL     1     111.817 124.614 137.394  0.00  0.00    +0.000 A 
ATOM     27  C   UNL     1     111.660 124.306 136.645  0.00  0.00    +0.000 A 
ENDBRANCH  20  22
BRANCH  14  28
ATOM     28  O   UNL     1     111.214 130.117 136.774  0.00  0.00    +0.000 OA
ATOM     29  C   UNL     1     111.723 130.063 136.127  0.00  0.00    +0.000 C 
ENDBRANCH  14  28
ENDBRANCH   6  12
BRANCH   8  31
ATOM     30  O   UNL     1     108.013 131.215 136.604  0.00  0.00    +0.000 OA
ATOM     31  C   UNL     1     108.299 131.574 137.289  0.00  0.00    +0.000 C 
ENDBRANCH   8  31
BRANCH   4  32
ATOM     32  O   UNL     1     111.000 130.386 138.766  0.00  0.00    +0.000 OA
BRANCH  32  37
ATOM     33  O   UNL     1     110.397 130.298 140.059  0.00  0.00    +0.000 OA
ATOM     34  O   UNL     1     112.468 130.659 139.470  0.00  0.00    +0.000 OA
ATOM     35  O   UNL     1     112.598 130.708 141.114  0.00  0.00    +0.000 OA
ATOM     36  O   UNL     1     111.261 130.483 142.055  0.00  0.00    +0.000 OA
ATOM     37  C   UNL     1     111.066 130.410 139.589  0.00  0.00    +0.000 C 
ATOM     38  C   UNL     1     111.800 130.547 139.941  0.00  0.00    +0.000 C 
ATOM     39  C   UNL     1     111.865 130.571 140.762  0.00  0.00    +0.000 C 
ATOM     40  C   UNL     1     111.196 130.459 141.233  0.00  0.00    +0.000 C 
ATOM     41  C   UNL     1     110.463 130.322 140.882  0.00  0.00    +0.000 C 
BRANCH  41  42
ATOM     42  C   UNL     1     109.794 130.210 141.351  0.00  0.00    +0.000 C 
BRANCH  42  43
ATOM     43  O   UNL     1     109.335 129.530 141.258  0.00  0.00    +0.000 OA
BRANCH  43  45
ATOM     44  O   UNL     1     108.080 130.147 141.552  0.00  0.00    +0.000 OA
ATOM     45  C   UNL     1     108.581 129.493 141.591  0.00  0.00    +0.000 C 
BRANCH  45  46
ATOM     46  C   UNL     1     108.328 128.802 141.965  0.00  0.00    +0.000 C 
ATOM     47  C   UNL     1     107.678 128.389 141.670  0.00  0.00    +0.000 C 
BRANCH  47  49
ATOM     48  O   UNL     1     106.669 125.623 143.162  0.00  0.00    +0.000 OA
ATOM     49  C   UNL     1     107.426 127.697 142.043  0.00  0.00    +0.000 A 
ATOM     50  C   UNL     1     106.955 127.741 142.720  0.00  0.00    +0.000 A 
ATOM     51  C   UNL     1     107.643 126.962 141.739  0.00  0.00    +0.000 A 
ATOM     52  C   UNL     1     107.391 126.271 142.113  0.00  0.00    +0.000 A 
ATOM     53  C   UNL     1     106.703 127.050 143.092  0.00  0.00    +0.000 A 
ATOM     54  C   UNL     1     106.921 126.315 142.789  0.00  0.00    +0.000 A 
BRANCH  52  55
ATOM     55  O   UNL     1     107.609 125.535 141.809  0.00  0.00    +0.000 OA
ATOM     56  C   UNL     1     107.724 125.441 140.997  0.00  0.00    +0.000 C 
ENDBRANCH  52  55
BRANCH  53  57
ATOM     57  O   UNL     1     106.233 127.095 143.769  0.00  0.00    +0.000 OA
ATOM     58  C   UNL     1     105.562 127.574 143.775  0.00  0.00    +0.000 C 
ENDBRANCH  53  57
ENDBRANCH  47  49
ENDBRANCH  45  46
ENDBRANCH  43  45
ENDBRANCH  42  43
ENDBRANCH  41  42
ENDBRANCH  32  37
ENDBRANCH   4  32
TORSDOF 13
ENDMDL
MODEL 9
REMARK VINA RESULT:      -9.3      1.898      4.613
REMARK  Name = 44258337
REMARK  13 active torsions:
REMARK  status: ('A' for Active; 'I' for Inactive)
REMARK    1  A    between atoms: O_1  and  C_20
REMARK    2  A    between atoms: O_1  and  C_25
REMARK    3  A    between atoms: O_10  and  C_32
REMARK    4  A    between atoms: O_10  and  C_41
REMARK    5  A    between atoms: O_11  and  C_34
REMARK    6  A    between atoms: O_17  and  C_54
REMARK    7  A    between atoms: O_18  and  C_55
REMARK    8  A    between atoms: C_22  and  C_30
REMARK    9  A    between atoms: C_24  and  C_31
REMARK   10  A    between atoms: C_29  and  C_32
REMARK   11  A    between atoms: C_40  and  C_43
REMARK   12  A    between atoms: C_41  and  C_44
REMARK   13  A    between atoms: C_47  and  C_51
REMARK                            x       y       z     vdW  Elec       q    Type
REMARK                         _______ _______ _______ _____ _____    ______ ____
ROOT
ATOM      1  O   UNL     1     112.871 130.238 137.215  0.00  0.00    +0.000 OA
ATOM      2  O   UNL     1     110.978 131.556 136.320  0.00  0.00    +0.000 OA
ATOM      3  O   UNL     1     112.199 132.312 137.132  0.00  0.00    +0.000 OA
ATOM      4  C   UNL     1     111.630 130.299 136.511  0.00  0.00    +0.000 C 
ATOM      5  C   UNL     1     111.608 131.117 136.618  0.00  0.00    +0.000 C 
ATOM      6  C   UNL     1     112.260 129.859 136.809  0.00  0.00    +0.000 C 
ATOM      7  C   UNL     1     112.219 131.495 137.024  0.00  0.00    +0.000 C 
ATOM      8  C   UNL     1     112.851 131.055 137.322  0.00  0.00    +0.000 C 
ENDROOT
BRANCH   6  12
ATOM      9  O   UNL     1     111.783 128.854 138.027  0.00  0.00    +0.000 OA
ATOM     10  O   UNL     1     112.352 126.557 136.361  0.00  0.00    +0.000 OA
ATOM     11  O   UNL     1     111.555 127.531 138.558  0.00  0.00    +0.000 OA
ATOM     12  C   UNL     1     112.282 129.042 136.702  0.00  0.00    +0.000 A 
ATOM     13  C   UNL     1     112.043 128.539 137.310  0.00  0.00    +0.000 A 
ATOM     14  C   UNL     1     112.542 128.727 135.985  0.00  0.00    +0.000 A 
ATOM     15  C   UNL     1     112.065 127.721 137.203  0.00  0.00    +0.000 A 
ATOM     16  C   UNL     1     112.564 127.909 135.876  0.00  0.00    +0.000 A 
ATOM     17  C   UNL     1     112.325 127.406 136.486  0.00  0.00    +0.000 A 
ATOM     18  C   UNL     1     111.814 127.208 137.844  0.00  0.00    +0.000 A 
ATOM     19  C   UNL     1     111.834 126.355 137.738  0.00  0.00    +0.000 A 
ATOM     20  C   UNL     1     112.105 126.027 136.992  0.00  0.00    +0.000 A 
BRANCH  20  22
ATOM     21  O   UNL     1     112.194 122.759 136.546  0.00  0.00    +0.000 OA
ATOM     22  C   UNL     1     112.128 125.210 136.881  0.00  0.00    +0.000 A 
ATOM     23  C   UNL     1     112.820 124.791 137.042  0.00  0.00    +0.000 A 
ATOM     24  C   UNL     1     111.458 124.812 136.608  0.00  0.00    +0.000 A 
ATOM     25  C   UNL     1     112.842 123.974 136.931  0.00  0.00    +0.000 A 
ATOM     26  C   UNL     1     111.481 123.996 136.496  0.00  0.00    +0.000 A 
ATOM     27  C   UNL     1     112.172 123.576 136.658  0.00  0.00    +0.000 A 
ENDBRANCH  20  22
BRANCH  14  28
ATOM     28  O   UNL     1     112.781 129.230 135.375  0.00  0.00    +0.000 OA
ATOM     29  C   UNL     1     113.229 128.935 134.748  0.00  0.00    +0.000 C 
ENDBRANCH  14  28
ENDBRANCH   6  12
BRANCH   8  31
ATOM     30  O   UNL     1     114.189 131.055 137.824  0.00  0.00    +0.000 OA
ATOM     31  C   UNL     1     113.461 131.434 137.728  0.00  0.00    +0.000 C 
ENDBRANCH   8  31
BRANCH   4  32
ATOM     32  O   UNL     1     111.019 129.920 136.105  0.00  0.00    +0.000 OA
BRANCH  32  37
ATOM     33  O   UNL     1     109.983 130.220 137.042  0.00  0.00    +0.000 OA
ATOM     34  O   UNL     1     109.951 130.114 134.862  0.00  0.00    +0.000 OA
ATOM     35  O   UNL     1     108.381 130.510 135.178  0.00  0.00    +0.000 OA
ATOM     36  O   UNL     1     107.879 130.713 136.736  0.00  0.00    +0.000 OA
ATOM     37  C   UNL     1     110.233 130.119 136.262  0.00  0.00    +0.000 C 
ATOM     38  C   UNL     1     109.699 130.215 135.641  0.00  0.00    +0.000 C 
ATOM     39  C   UNL     1     108.915 130.413 135.799  0.00  0.00    +0.000 C 
ATOM     40  C   UNL     1     108.663 130.515 136.578  0.00  0.00    +0.000 C 
ATOM     41  C   UNL     1     109.197 130.419 137.200  0.00  0.00    +0.000 C 
BRANCH  41  42
ATOM     42  C   UNL     1     108.947 130.520 137.979  0.00  0.00    +0.000 C 
BRANCH  42  43
ATOM     43  O   UNL     1     109.029 129.903 138.522  0.00  0.00    +0.000 OA
BRANCH  43  45
ATOM     44  O   UNL     1     108.268 130.523 139.561  0.00  0.00    +0.000 OA
ATOM     45  C   UNL     1     108.893 130.040 139.324  0.00  0.00    +0.000 C 
BRANCH  45  46
ATOM     46  C   UNL     1     109.384 129.693 139.890  0.00  0.00    +0.000 C 
ATOM     47  C   UNL     1     109.076 129.471 140.622  0.00  0.00    +0.000 C 
BRANCH  47  49
ATOM     48  O   UNL     1     111.039 128.084 142.884  0.00  0.00    +0.000 OA
ATOM     49  C   UNL     1     109.567 129.124 141.188  0.00  0.00    +0.000 A 
ATOM     50  C   UNL     1     110.052 129.597 141.658  0.00  0.00    +0.000 A 
ATOM     51  C   UNL     1     109.572 128.304 141.282  0.00  0.00    +0.000 A 
ATOM     52  C   UNL     1     110.063 127.959 141.847  0.00  0.00    +0.000 A 
ATOM     53  C   UNL     1     110.542 129.250 142.223  0.00  0.00    +0.000 A 
ATOM     54  C   UNL     1     110.548 128.431 142.318  0.00  0.00    +0.000 A 
BRANCH  52  55
ATOM     55  O   UNL     1     110.068 127.138 141.942  0.00  0.00    +0.000 OA
ATOM     56  C   UNL     1     109.857 126.649 141.312  0.00  0.00    +0.000 C 
ENDBRANCH  52  55
BRANCH  53  57
ATOM     57  O   UNL     1     111.028 129.723 142.694  0.00  0.00    +0.000 OA
ATOM     58  C   UNL     1     110.771 130.470 142.932  0.00  0.00    +0.000 C 
ENDBRANCH  53  57
ENDBRANCH  47  49
ENDBRANCH  45  46
ENDBRANCH  43  45
ENDBRANCH  42  43
ENDBRANCH  41  42
ENDBRANCH  32  37
ENDBRANCH   4  32
TORSDOF 13
ENDMDL
MODEL 10
REMARK VINA RESULT:      -9.3      1.945      4.447
REMARK  Name = 44258337
REMARK  13 active torsions:
REMARK  status: ('A' for Active; 'I' for Inactive)
REMARK    1  A    between atoms: O_1  and  C_20
REMARK    2  A    between atoms: O_1  and  C_25
REMARK    3  A    between atoms: O_10  and  C_32
REMARK    4  A    between atoms: O_10  and  C_41
REMARK    5  A    between atoms: O_11  and  C_34
REMARK    6  A    between atoms: O_17  and  C_54
REMARK    7  A    between atoms: O_18  and  C_55
REMARK    8  A    between atoms: C_22  and  C_30
REMARK    9  A    between atoms: C_24  and  C_31
REMARK   10  A    between atoms: C_29  and  C_32
REMARK   11  A    between atoms: C_40  and  C_43
REMARK   12  A    between atoms: C_41  and  C_44
REMARK   13  A    between atoms: C_47  and  C_51
REMARK                            x       y       z     vdW  Elec       q    Type
REMARK                         _______ _______ _______ _____ _____    ______ ____
ROOT
ATOM      1  O   UNL     1     110.875 130.255 136.423  0.00  0.00    +0.000 OA
ATOM      2  O   UNL     1     112.348 131.629 137.860  0.00  0.00    +0.000 OA
ATOM      3  O   UNL     1     111.082 132.330 137.067  0.00  0.00    +0.000 OA
ATOM      4  C   UNL     1     111.999 130.363 137.298  0.00  0.00    +0.000 C 
ATOM      5  C   UNL     1     111.858 131.171 137.381  0.00  0.00    +0.000 C 
ATOM      6  C   UNL     1     111.508 129.905 136.819  0.00  0.00    +0.000 C 
ATOM      7  C   UNL     1     111.224 131.522 136.985  0.00  0.00    +0.000 C 
ATOM      8  C   UNL     1     110.733 131.063 136.505  0.00  0.00    +0.000 C 
ENDROOT
BRANCH   6  12
ATOM      9  O   UNL     1     110.620 128.817 137.686  0.00  0.00    +0.000 OA
ATOM     10  O   UNL     1     112.091 126.640 136.473  0.00  0.00    +0.000 OA
ATOM     11  O   UNL     1     110.294 127.461 138.057  0.00  0.00    +0.000 OA
ATOM     12  C   UNL     1     111.650 129.096 136.736  0.00  0.00    +0.000 A 
ATOM     13  C   UNL     1     111.206 128.553 137.169  0.00  0.00    +0.000 A 
ATOM     14  C   UNL     1     112.236 128.831 136.219  0.00  0.00    +0.000 A 
ATOM     15  C   UNL     1     111.347 127.744 137.086  0.00  0.00    +0.000 A 
ATOM     16  C   UNL     1     112.378 128.023 136.135  0.00  0.00    +0.000 A 
ATOM     17  C   UNL     1     111.933 127.479 136.569  0.00  0.00    +0.000 A 
ATOM     18  C   UNL     1     110.878 127.188 137.542  0.00  0.00    +0.000 A 
ATOM     19  C   UNL     1     111.021 126.344 137.460  0.00  0.00    +0.000 A 
ATOM     20  C   UNL     1     111.631 126.069 136.921  0.00  0.00    +0.000 A 
BRANCH  20  22
ATOM     21  O   UNL     1     112.208 122.838 136.575  0.00  0.00    +0.000 OA
ATOM     22  C   UNL     1     111.776 125.260 136.835  0.00  0.00    +0.000 A 
ATOM     23  C   UNL     1     112.346 124.891 137.304  0.00  0.00    +0.000 A 
ATOM     24  C   UNL     1     111.350 124.823 136.280  0.00  0.00    +0.000 A 
ATOM     25  C   UNL     1     112.490 124.084 137.217  0.00  0.00    +0.000 A 
ATOM     26  C   UNL     1     111.494 124.016 136.194  0.00  0.00    +0.000 A 
ATOM     27  C   UNL     1     112.064 123.646 136.662  0.00  0.00    +0.000 A 
ENDBRANCH  20  22
BRANCH  14  28
ATOM     28  O   UNL     1     112.680 129.375 135.785  0.00  0.00    +0.000 OA
ATOM     29  C   UNL     1     113.122 129.123 135.136  0.00  0.00    +0.000 C 
ENDBRANCH  14  28
ENDBRANCH   6  12
BRANCH   8  31
ATOM     30  O   UNL     1     109.831 131.094 135.397  0.00  0.00    +0.000 OA
ATOM     31  C   UNL     1     110.100 131.414 136.109  0.00  0.00    +0.000 C 
ENDBRANCH   8  31
BRANCH   4  32
ATOM     32  O   UNL     1     112.632 130.012 137.694  0.00  0.00    +0.000 OA
BRANCH  32  37
ATOM     33  O   UNL     1     112.107 130.206 139.009  0.00  0.00    +0.000 OA
ATOM     34  O   UNL     1     114.162 130.233 138.272  0.00  0.00    +0.000 OA
ATOM     35  O   UNL     1     114.401 130.538 139.876  0.00  0.00    +0.000 OA
ATOM     36  O   UNL     1     113.112 130.622 140.902  0.00  0.00    +0.000 OA
ATOM     37  C   UNL     1     112.752 130.165 138.497  0.00  0.00    +0.000 C 
ATOM     38  C   UNL     1     113.517 130.275 138.786  0.00  0.00    +0.000 C 
ATOM     39  C   UNL     1     113.637 130.427 139.587  0.00  0.00    +0.000 C 
ATOM     40  C   UNL     1     112.992 130.469 140.101  0.00  0.00    +0.000 C 
ATOM     41  C   UNL     1     112.227 130.359 139.811  0.00  0.00    +0.000 C 
BRANCH  41  42
ATOM     42  C   UNL     1     111.582 130.401 140.324  0.00  0.00    +0.000 C 
BRANCH  42  43
ATOM     43  O   UNL     1     111.066 129.759 140.390  0.00  0.00    +0.000 OA
BRANCH  43  45
ATOM     44  O   UNL     1     109.939 130.582 140.698  0.00  0.00    +0.000 OA
ATOM     45  C   UNL     1     110.331 129.858 140.750  0.00  0.00    +0.000 C 
BRANCH  45  46
ATOM     46  C   UNL     1     109.986 129.231 141.162  0.00  0.00    +0.000 C 
ATOM     47  C   UNL     1     109.193 129.043 141.039  0.00  0.00    +0.000 C 
BRANCH  47  49
ATOM     48  O   UNL     1     107.816 126.537 142.687  0.00  0.00    +0.000 OA
ATOM     49  C   UNL     1     108.848 128.417 141.451  0.00  0.00    +0.000 A 
ATOM     50  C   UNL     1     108.515 128.545 142.195  0.00  0.00    +0.000 A 
ATOM     51  C   UNL     1     108.837 127.662 141.119  0.00  0.00    +0.000 A 
ATOM     52  C   UNL     1     108.493 127.036 141.531  0.00  0.00    +0.000 A 
ATOM     53  C   UNL     1     108.172 127.919 142.607  0.00  0.00    +0.000 A 
ATOM     54  C   UNL     1     108.160 127.164 142.275  0.00  0.00    +0.000 A 
BRANCH  52  55
ATOM     55  O   UNL     1     108.482 126.280 141.199  0.00  0.00    +0.000 OA
ATOM     56  C   UNL     1     109.182 125.938 140.929  0.00  0.00    +0.000 C 
ENDBRANCH  52  55
BRANCH  53  57
ATOM     57  O   UNL     1     107.839 128.048 143.350  0.00  0.00    +0.000 OA
ATOM     58  C   UNL     1     107.376 128.717 143.486  0.00  0.00    +0.000 C 
ENDBRANCH  53  57
ENDBRANCH  47  49
ENDBRANCH  45  46
ENDBRANCH  43  45
ENDBRANCH  42  43
ENDBRANCH  41  42
ENDBRANCH  32  37
ENDBRANCH   4  32
TORSDOF 13
ENDMDL
