MODEL 1
REMARK VINA RESULT:      -8.8      0.000      0.000
REMARK  Name = 14213549
REMARK  6 active torsions:
REMARK  status: ('A' for Active; 'I' for Inactive)
REMARK    1  A    between atoms: O_2  and  C_16
REMARK    2  A    between atoms: O_2  and  C_18
REMARK    3  A    between atoms: C_14  and  C_17
REMARK    4  A    between atoms: C_21  and  C_24
REMARK    5  A    between atoms: C_24  and  C_25
REMARK    6  A    between atoms: C_26  and  C_27
REMARK                            x       y       z     vdW  Elec       q    Type
REMARK                         _______ _______ _______ _____ _____    ______ ____
ROOT
ATOM      1  O   UNL     1     108.551 129.521 137.074  0.00  0.00    +0.000 OA
ATOM      2  O   UNL     1     109.797 131.699 135.706  0.00  0.00    +0.000 OA
ATOM      3  C   UNL     1     109.174 130.610 136.390  0.00  0.00    +0.000 A 
ATOM      4  C   UNL     1     108.913 129.827 136.399  0.00  0.00    +0.000 A 
ATOM      5  C   UNL     1     109.536 130.916 135.715  0.00  0.00    +0.000 A 
ATOM      6  C   UNL     1     109.014 129.351 135.733  0.00  0.00    +0.000 A 
ATOM      7  C   UNL     1     109.637 130.440 135.049  0.00  0.00    +0.000 A 
ATOM      8  C   UNL     1     109.377 129.658 135.058  0.00  0.00    +0.000 A 
ENDROOT
BRANCH   6  10
ATOM      9  O   UNL     1     107.945 128.402 135.761  0.00  0.00    +0.000 OA
ATOM     10  C   UNL     1     108.754 128.569 135.742  0.00  0.00    +0.000 C 
BRANCH  10  11
ATOM     11  C   UNL     1     109.301 127.951 135.732  0.00  0.00    +0.000 C 
ATOM     12  C   UNL     1     109.040 127.168 135.716  0.00  0.00    +0.000 C 
BRANCH  12  15
ATOM     13  O   UNL     1     110.810 125.407 137.107  0.00  0.00    +0.000 OA
ATOM     14  O   UNL     1     111.229 124.699 135.677  0.00  0.00    +0.000 OA
ATOM     15  C   UNL     1     109.587 126.551 135.707  0.00  0.00    +0.000 A 
ATOM     16  C   UNL     1     109.925 126.288 136.411  0.00  0.00    +0.000 A 
ATOM     17  C   UNL     1     109.796 126.197 134.991  0.00  0.00    +0.000 A 
ATOM     18  C   UNL     1     110.472 125.671 136.401  0.00  0.00    +0.000 A 
ATOM     19  C   UNL     1     110.344 125.580 134.981  0.00  0.00    +0.000 A 
ATOM     20  C   UNL     1     110.682 125.316 135.687  0.00  0.00    +0.000 A 
ENDBRANCH  12  15
ENDBRANCH  10  11
ENDBRANCH   6  10
BRANCH   3  21
ATOM     21  O   UNL     1     109.073 131.086 137.056  0.00  0.00    +0.000 OA
BRANCH  21  30
ATOM     22  O   UNL     1     110.354 130.680 137.543  0.00  0.00    +0.000 OA
ATOM     23  O   UNL     1     110.105 132.209 139.473  0.00  0.00    +0.000 OA
ATOM     24  O   UNL     1     111.468 131.294 139.316  0.00  0.00    +0.000 OA
ATOM     25  O   UNL     1     108.907 132.105 138.343  0.00  0.00    +0.000 OA
ATOM     26  C   UNL     1     110.188 131.700 138.829  0.00  0.00    +0.000 C 
ATOM     27  C   UNL     1     110.869 131.242 138.750  0.00  0.00    +0.000 C 
ATOM     28  C   UNL     1     110.952 130.732 138.107  0.00  0.00    +0.000 C 
ATOM     29  C   UNL     1     109.588 131.647 138.264  0.00  0.00    +0.000 C 
ATOM     30  C   UNL     1     109.671 131.138 137.621  0.00  0.00    +0.000 C 
BRANCH  28  32
ATOM     31  O   UNL     1     111.599 129.459 138.146  0.00  0.00    +0.000 OA
ATOM     32  C   UNL     1     111.634 130.275 138.029  0.00  0.00    +0.000 C 
ENDBRANCH  28  32
ENDBRANCH  21  30
ENDBRANCH   3  21
TORSDOF 6
ENDMDL
MODEL 2
REMARK VINA RESULT:      -8.8      2.399      3.854
REMARK  Name = 14213549
REMARK  6 active torsions:
REMARK  status: ('A' for Active; 'I' for Inactive)
REMARK    1  A    between atoms: O_2  and  C_16
REMARK    2  A    between atoms: O_2  and  C_18
REMARK    3  A    between atoms: C_14  and  C_17
REMARK    4  A    between atoms: C_21  and  C_24
REMARK    5  A    between atoms: C_24  and  C_25
REMARK    6  A    between atoms: C_26  and  C_27
REMARK                            x       y       z     vdW  Elec       q    Type
REMARK                         _______ _______ _______ _____ _____    ______ ____
ROOT
ATOM      1  O   UNL     1     112.211 128.812 135.457  0.00  0.00    +0.000 OA
ATOM      2  O   UNL     1     111.264 130.307 137.701  0.00  0.00    +0.000 OA
ATOM      3  C   UNL     1     111.737 129.559 136.579  0.00  0.00    +0.000 A 
ATOM      4  C   UNL     1     112.253 128.999 136.259  0.00  0.00    +0.000 A 
ATOM      5  C   UNL     1     111.779 129.746 137.381  0.00  0.00    +0.000 A 
ATOM      6  C   UNL     1     112.809 128.627 136.741  0.00  0.00    +0.000 A 
ATOM      7  C   UNL     1     112.335 129.374 137.864  0.00  0.00    +0.000 A 
ATOM      8  C   UNL     1     112.850 128.815 137.544  0.00  0.00    +0.000 A 
ENDROOT
BRANCH   6  10
ATOM      9  O   UNL     1     113.908 128.301 135.888  0.00  0.00    +0.000 OA
ATOM     10  C   UNL     1     113.323 128.067 136.422  0.00  0.00    +0.000 C 
BRANCH  10  11
ATOM     11  C   UNL     1     113.253 127.274 136.635  0.00  0.00    +0.000 C 
ATOM     12  C   UNL     1     113.802 126.722 136.359  0.00  0.00    +0.000 C 
BRANCH  12  15
ATOM     13  O   UNL     1     114.882 124.391 137.613  0.00  0.00    +0.000 OA
ATOM     14  O   UNL     1     113.523 123.546 137.212  0.00  0.00    +0.000 OA
ATOM     15  C   UNL     1     113.732 125.928 136.573  0.00  0.00    +0.000 A 
ATOM     16  C   UNL     1     114.342 125.557 136.986  0.00  0.00    +0.000 A 
ATOM     17  C   UNL     1     113.052 125.506 136.372  0.00  0.00    +0.000 A 
ATOM     18  C   UNL     1     114.272 124.763 137.199  0.00  0.00    +0.000 A 
ATOM     19  C   UNL     1     112.982 124.712 136.585  0.00  0.00    +0.000 A 
ATOM     20  C   UNL     1     113.592 124.340 136.999  0.00  0.00    +0.000 A 
ENDBRANCH  12  15
ENDBRANCH  10  11
ENDBRANCH   6  10
BRANCH   3  21
ATOM     21  O   UNL     1     111.181 129.931 136.096  0.00  0.00    +0.000 OA
BRANCH  21  30
ATOM     22  O   UNL     1     110.246 128.879 136.343  0.00  0.00    +0.000 OA
ATOM     23  O   UNL     1     108.470 130.196 135.232  0.00  0.00    +0.000 OA
ATOM     24  O   UNL     1     108.128 128.706 135.849  0.00  0.00    +0.000 OA
ATOM     25  O   UNL     1     109.997 130.809 135.355  0.00  0.00    +0.000 OA
ATOM     26  C   UNL     1     109.062 129.757 135.602  0.00  0.00    +0.000 C 
ATOM     27  C   UNL     1     108.891 129.011 135.911  0.00  0.00    +0.000 C 
ATOM     28  C   UNL     1     109.483 128.572 136.282  0.00  0.00    +0.000 C 
ATOM     29  C   UNL     1     109.826 130.064 135.664  0.00  0.00    +0.000 C 
ATOM     30  C   UNL     1     110.418 129.625 136.035  0.00  0.00    +0.000 C 
BRANCH  28  32
ATOM     31  O   UNL     1     109.242 127.724 137.406  0.00  0.00    +0.000 OA
ATOM     32  C   UNL     1     109.312 127.828 136.590  0.00  0.00    +0.000 C 
ENDBRANCH  28  32
ENDBRANCH  21  30
ENDBRANCH   3  21
TORSDOF 6
ENDMDL
MODEL 3
REMARK VINA RESULT:      -8.8      7.133      8.111
REMARK  Name = 14213549
REMARK  6 active torsions:
REMARK  status: ('A' for Active; 'I' for Inactive)
REMARK    1  A    between atoms: O_2  and  C_16
REMARK    2  A    between atoms: O_2  and  C_18
REMARK    3  A    between atoms: C_14  and  C_17
REMARK    4  A    between atoms: C_21  and  C_24
REMARK    5  A    between atoms: C_24  and  C_25
REMARK    6  A    between atoms: C_26  and  C_27
REMARK                            x       y       z     vdW  Elec       q    Type
REMARK                         _______ _______ _______ _____ _____    ______ ____
ROOT
ATOM      1  O   UNL     1     105.257 124.348 142.276  0.00  0.00    +0.000 OA
ATOM      2  O   UNL     1     107.685 125.680 141.573  0.00  0.00    +0.000 OA
ATOM      3  C   UNL     1     106.471 125.014 141.925  0.00  0.00    +0.000 A 
ATOM      4  C   UNL     1     105.839 124.524 141.719  0.00  0.00    +0.000 A 
ATOM      5  C   UNL     1     107.053 125.190 141.368  0.00  0.00    +0.000 A 
ATOM      6  C   UNL     1     105.790 124.211 140.957  0.00  0.00    +0.000 A 
ATOM      7  C   UNL     1     107.004 124.878 140.606  0.00  0.00    +0.000 A 
ATOM      8  C   UNL     1     106.373 124.389 140.401  0.00  0.00    +0.000 A 
ENDROOT
BRANCH   6  10
ATOM      9  O   UNL     1     104.927 123.113 141.258  0.00  0.00    +0.000 OA
ATOM     10  C   UNL     1     105.159 123.722 140.752  0.00  0.00    +0.000 C 
BRANCH  10  11
ATOM     11  C   UNL     1     104.758 123.842 140.041  0.00  0.00    +0.000 C 
ATOM     12  C   UNL     1     104.164 123.318 139.808  0.00  0.00    +0.000 C 
BRANCH  12  15
ATOM     13  O   UNL     1     101.728 123.780 138.387  0.00  0.00    +0.000 OA
ATOM     14  O   UNL     1     102.562 123.798 136.963  0.00  0.00    +0.000 OA
ATOM     15  C   UNL     1     103.764 123.438 139.097  0.00  0.00    +0.000 A 
ATOM     16  C   UNL     1     102.947 123.549 139.098  0.00  0.00    +0.000 A 
ATOM     17  C   UNL     1     104.181 123.447 138.385  0.00  0.00    +0.000 A 
ATOM     18  C   UNL     1     102.546 123.669 138.387  0.00  0.00    +0.000 A 
ATOM     19  C   UNL     1     103.781 123.567 137.674  0.00  0.00    +0.000 A 
ATOM     20  C   UNL     1     102.962 123.678 137.675  0.00  0.00    +0.000 A 
ENDBRANCH  12  15
ENDBRANCH  10  11
ENDBRANCH   6  10
BRANCH   3  21
ATOM     21  O   UNL     1     106.520 125.327 142.686  0.00  0.00    +0.000 OA
BRANCH  21  30
ATOM     22  O   UNL     1     105.871 126.521 142.246  0.00  0.00    +0.000 OA
ATOM     23  O   UNL     1     105.728 127.308 144.588  0.00  0.00    +0.000 OA
ATOM     24  O   UNL     1     105.127 128.239 143.367  0.00  0.00    +0.000 OA
ATOM     25  O   UNL     1     106.425 125.851 144.248  0.00  0.00    +0.000 OA
ATOM     26  C   UNL     1     105.776 127.045 143.807  0.00  0.00    +0.000 C 
ATOM     27  C   UNL     1     105.475 127.511 143.197  0.00  0.00    +0.000 C 
ATOM     28  C   UNL     1     105.522 127.249 142.416  0.00  0.00    +0.000 C 
ATOM     29  C   UNL     1     106.124 126.317 143.637  0.00  0.00    +0.000 C 
ATOM     30  C   UNL     1     106.172 126.054 142.856  0.00  0.00    +0.000 C 
BRANCH  28  32
ATOM     31  O   UNL     1     104.551 127.470 141.391  0.00  0.00    +0.000 OA
ATOM     32  C   UNL     1     105.222 127.714 141.806  0.00  0.00    +0.000 C 
ENDBRANCH  28  32
ENDBRANCH  21  30
ENDBRANCH   3  21
TORSDOF 6
ENDMDL
MODEL 4
REMARK VINA RESULT:      -8.8      9.721     10.499
REMARK  Name = 14213549
REMARK  6 active torsions:
REMARK  status: ('A' for Active; 'I' for Inactive)
REMARK    1  A    between atoms: O_2  and  C_16
REMARK    2  A    between atoms: O_2  and  C_18
REMARK    3  A    between atoms: C_14  and  C_17
REMARK    4  A    between atoms: C_21  and  C_24
REMARK    5  A    between atoms: C_24  and  C_25
REMARK    6  A    between atoms: C_26  and  C_27
REMARK                            x       y       z     vdW  Elec       q    Type
REMARK                         _______ _______ _______ _____ _____    ______ ____
ROOT
ATOM      1  O   UNL     1     106.838 124.742 145.419  0.00  0.00    +0.000 OA
ATOM      2  O   UNL     1     106.549 127.266 146.728  0.00  0.00    +0.000 OA
ATOM      3  C   UNL     1     106.693 126.004 146.074  0.00  0.00    +0.000 A 
ATOM      4  C   UNL     1     106.472 125.479 145.476  0.00  0.00    +0.000 A 
ATOM      5  C   UNL     1     106.328 126.741 146.130  0.00  0.00    +0.000 A 
ATOM      6  C   UNL     1     105.886 125.692 144.936  0.00  0.00    +0.000 A 
ATOM      7  C   UNL     1     105.742 126.954 145.590  0.00  0.00    +0.000 A 
ATOM      8  C   UNL     1     105.521 126.430 144.993  0.00  0.00    +0.000 A 
ENDROOT
BRANCH   6  10
ATOM      9  O   UNL     1     105.168 124.532 144.510  0.00  0.00    +0.000 OA
ATOM     10  C   UNL     1     105.666 125.168 144.339  0.00  0.00    +0.000 C 
BRANCH  10  11
ATOM     11  C   UNL     1     105.943 125.278 143.570  0.00  0.00    +0.000 C 
ATOM     12  C   UNL     1     105.686 124.781 142.962  0.00  0.00    +0.000 C 
BRANCH  12  15
ATOM     13  O   UNL     1     105.326 125.831 140.329  0.00  0.00    +0.000 OA
ATOM     14  O   UNL     1     106.795 125.224 139.886  0.00  0.00    +0.000 OA
ATOM     15  C   UNL     1     105.964 124.892 142.193  0.00  0.00    +0.000 A 
ATOM     16  C   UNL     1     105.506 125.306 141.646  0.00  0.00    +0.000 A 
ATOM     17  C   UNL     1     106.698 124.588 141.973  0.00  0.00    +0.000 A 
ATOM     18  C   UNL     1     105.784 125.416 140.877  0.00  0.00    +0.000 A 
ATOM     19  C   UNL     1     106.976 124.699 141.204  0.00  0.00    +0.000 A 
ATOM     20  C   UNL     1     106.518 125.113 140.655  0.00  0.00    +0.000 A 
ENDBRANCH  12  15
ENDBRANCH  10  11
ENDBRANCH   6  10
BRANCH   3  21
ATOM     21  O   UNL     1     107.280 125.791 146.614  0.00  0.00    +0.000 OA
BRANCH  21  30
ATOM     22  O   UNL     1     106.280 125.319 147.519  0.00  0.00    +0.000 OA
ATOM     23  O   UNL     1     108.048 124.448 149.017  0.00  0.00    +0.000 OA
ATOM     24  O   UNL     1     106.460 124.266 149.422  0.00  0.00    +0.000 OA
ATOM     25  O   UNL     1     108.458 125.210 147.612  0.00  0.00    +0.000 OA
ATOM     26  C   UNL     1     107.459 124.738 148.517  0.00  0.00    +0.000 C 
ATOM     27  C   UNL     1     106.664 124.647 148.720  0.00  0.00    +0.000 C 
ATOM     28  C   UNL     1     106.075 124.938 148.221  0.00  0.00    +0.000 C 
ATOM     29  C   UNL     1     107.664 125.120 147.815  0.00  0.00    +0.000 C 
ATOM     30  C   UNL     1     107.074 125.410 147.315  0.00  0.00    +0.000 C 
BRANCH  28  32
ATOM     31  O   UNL     1     104.799 124.336 147.990  0.00  0.00    +0.000 OA
ATOM     32  C   UNL     1     105.281 124.847 148.424  0.00  0.00    +0.000 C 
ENDBRANCH  28  32
ENDBRANCH  21  30
ENDBRANCH   3  21
TORSDOF 6
ENDMDL
MODEL 5
REMARK VINA RESULT:      -8.6      2.210      3.993
REMARK  Name = 14213549
REMARK  6 active torsions:
REMARK  status: ('A' for Active; 'I' for Inactive)
REMARK    1  A    between atoms: O_2  and  C_16
REMARK    2  A    between atoms: O_2  and  C_18
REMARK    3  A    between atoms: C_14  and  C_17
REMARK    4  A    between atoms: C_21  and  C_24
REMARK    5  A    between atoms: C_24  and  C_25
REMARK    6  A    between atoms: C_26  and  C_27
REMARK                            x       y       z     vdW  Elec       q    Type
REMARK                         _______ _______ _______ _____ _____    ______ ____
ROOT
ATOM      1  O   UNL     1     110.122 126.397 135.455  0.00  0.00    +0.000 OA
ATOM      2  O   UNL     1     108.842 127.371 137.817  0.00  0.00    +0.000 OA
ATOM      3  C   UNL     1     109.482 126.884 136.636  0.00  0.00    +0.000 A 
ATOM      4  C   UNL     1     110.026 126.380 136.275  0.00  0.00    +0.000 A 
ATOM      5  C   UNL     1     109.386 126.867 137.456  0.00  0.00    +0.000 A 
ATOM      6  C   UNL     1     110.474 125.859 136.732  0.00  0.00    +0.000 A 
ATOM      7  C   UNL     1     109.834 126.347 137.913  0.00  0.00    +0.000 A 
ATOM      8  C   UNL     1     110.377 125.843 137.551  0.00  0.00    +0.000 A 
ENDROOT
BRANCH   6  10
ATOM      9  O   UNL     1     110.777 124.862 135.754  0.00  0.00    +0.000 OA
ATOM     10  C   UNL     1     111.018 125.356 136.370  0.00  0.00    +0.000 C 
BRANCH  10  11
ATOM     11  C   UNL     1     111.802 125.345 136.625  0.00  0.00    +0.000 C 
ATOM     12  C   UNL     1     112.349 124.847 136.257  0.00  0.00    +0.000 C 
BRANCH  12  15
ATOM     13  O   UNL     1     114.992 125.931 136.175  0.00  0.00    +0.000 OA
ATOM     14  O   UNL     1     115.488 124.804 137.274  0.00  0.00    +0.000 OA
ATOM     15  C   UNL     1     113.133 124.836 136.511  0.00  0.00    +0.000 A 
ATOM     16  C   UNL     1     113.670 125.388 136.216  0.00  0.00    +0.000 A 
ATOM     17  C   UNL     1     113.381 124.273 137.061  0.00  0.00    +0.000 A 
ATOM     18  C   UNL     1     114.454 125.378 136.471  0.00  0.00    +0.000 A 
ATOM     19  C   UNL     1     114.166 124.262 137.315  0.00  0.00    +0.000 A 
ATOM     20  C   UNL     1     114.703 124.815 137.020  0.00  0.00    +0.000 A 
ENDBRANCH  12  15
ENDBRANCH  10  11
ENDBRANCH   6  10
BRANCH   3  21
ATOM     21  O   UNL     1     109.034 127.405 136.179  0.00  0.00    +0.000 OA
BRANCH  21  30
ATOM     22  O   UNL     1     110.053 128.404 136.259  0.00  0.00    +0.000 OA
ATOM     23  O   UNL     1     108.430 130.118 135.514  0.00  0.00    +0.000 OA
ATOM     24  O   UNL     1     109.988 130.545 135.843  0.00  0.00    +0.000 OA
ATOM     25  O   UNL     1     107.952 128.547 135.682  0.00  0.00    +0.000 OA
ATOM     26  C   UNL     1     108.971 129.546 135.763  0.00  0.00    +0.000 C 
ATOM     27  C   UNL     1     109.750 129.760 135.927  0.00  0.00    +0.000 C 
ATOM     28  C   UNL     1     110.291 129.188 136.175  0.00  0.00    +0.000 C 
ATOM     29  C   UNL     1     108.732 128.760 135.847  0.00  0.00    +0.000 C 
ATOM     30  C   UNL     1     109.273 128.189 136.095  0.00  0.00    +0.000 C 
BRANCH  28  32
ATOM     31  O   UNL     1     111.683 129.134 135.857  0.00  0.00    +0.000 OA
ATOM     32  C   UNL     1     111.070 129.402 136.340  0.00  0.00    +0.000 C 
ENDBRANCH  28  32
ENDBRANCH  21  30
ENDBRANCH   3  21
TORSDOF 6
ENDMDL
MODEL 6
REMARK VINA RESULT:      -8.6      9.667     10.758
REMARK  Name = 14213549
REMARK  6 active torsions:
REMARK  status: ('A' for Active; 'I' for Inactive)
REMARK    1  A    between atoms: O_2  and  C_16
REMARK    2  A    between atoms: O_2  and  C_18
REMARK    3  A    between atoms: C_14  and  C_17
REMARK    4  A    between atoms: C_21  and  C_24
REMARK    5  A    between atoms: C_24  and  C_25
REMARK    6  A    between atoms: C_26  and  C_27
REMARK                            x       y       z     vdW  Elec       q    Type
REMARK                         _______ _______ _______ _____ _____    ______ ____
ROOT
ATOM      1  O   UNL     1     105.243 126.828 145.754  0.00  0.00    +0.000 OA
ATOM      2  O   UNL     1     105.528 124.027 145.260  0.00  0.00    +0.000 OA
ATOM      3  C   UNL     1     105.386 125.428 145.507  0.00  0.00    +0.000 A 
ATOM      4  C   UNL     1     105.466 126.210 145.255  0.00  0.00    +0.000 A 
ATOM      5  C   UNL     1     105.608 124.810 145.008  0.00  0.00    +0.000 A 
ATOM      6  C   UNL     1     105.768 126.373 144.505  0.00  0.00    +0.000 A 
ATOM      7  C   UNL     1     105.911 124.973 144.258  0.00  0.00    +0.000 A 
ATOM      8  C   UNL     1     105.990 125.754 144.007  0.00  0.00    +0.000 A 
ENDROOT
BRANCH   6  10
ATOM      9  O   UNL     1     106.493 127.604 144.502  0.00  0.00    +0.000 OA
ATOM     10  C   UNL     1     105.848 127.154 144.253  0.00  0.00    +0.000 C 
BRANCH  10  11
ATOM     11  C   UNL     1     105.282 127.486 143.753  0.00  0.00    +0.000 C 
ATOM     12  C   UNL     1     105.459 128.171 143.327  0.00  0.00    +0.000 C 
BRANCH  12  15
ATOM     13  O   UNL     1     104.139 128.251 140.793  0.00  0.00    +0.000 OA
ATOM     14  O   UNL     1     103.197 129.498 141.324  0.00  0.00    +0.000 OA
ATOM     15  C   UNL     1     104.894 128.503 142.826  0.00  0.00    +0.000 A 
ATOM     16  C   UNL     1     104.799 128.211 142.061  0.00  0.00    +0.000 A 
ATOM     17  C   UNL     1     104.423 129.126 143.092  0.00  0.00    +0.000 A 
ATOM     18  C   UNL     1     104.234 128.543 141.560  0.00  0.00    +0.000 A 
ATOM     19  C   UNL     1     103.857 129.458 142.591  0.00  0.00    +0.000 A 
ATOM     20  C   UNL     1     103.763 129.166 141.824  0.00  0.00    +0.000 A 
ENDBRANCH  12  15
ENDBRANCH  10  11
ENDBRANCH   6  10
BRANCH   3  21
ATOM     21  O   UNL     1     105.084 125.265 146.257  0.00  0.00    +0.000 OA
BRANCH  21  30
ATOM     22  O   UNL     1     106.406 125.269 146.800  0.00  0.00    +0.000 OA
ATOM     23  O   UNL     1     105.523 124.434 148.956  0.00  0.00    +0.000 OA
ATOM     24  O   UNL     1     107.138 124.718 148.780  0.00  0.00    +0.000 OA
ATOM     25  O   UNL     1     104.495 124.708 147.694  0.00  0.00    +0.000 OA
ATOM     26  C   UNL     1     105.817 124.713 148.237  0.00  0.00    +0.000 C 
ATOM     27  C   UNL     1     106.625 124.854 148.149  0.00  0.00    +0.000 C 
ATOM     28  C   UNL     1     106.919 125.133 147.430  0.00  0.00    +0.000 C 
ATOM     29  C   UNL     1     105.303 124.850 147.606  0.00  0.00    +0.000 C 
ATOM     30  C   UNL     1     105.597 125.128 146.887  0.00  0.00    +0.000 C 
BRANCH  28  32
ATOM     31  O   UNL     1     108.003 126.046 147.247  0.00  0.00    +0.000 OA
ATOM     32  C   UNL     1     107.726 125.274 147.343  0.00  0.00    +0.000 C 
ENDBRANCH  28  32
ENDBRANCH  21  30
ENDBRANCH   3  21
TORSDOF 6
ENDMDL
MODEL 7
REMARK VINA RESULT:      -8.5      3.547      6.833
REMARK  Name = 14213549
REMARK  6 active torsions:
REMARK  status: ('A' for Active; 'I' for Inactive)
REMARK    1  A    between atoms: O_2  and  C_16
REMARK    2  A    between atoms: O_2  and  C_18
REMARK    3  A    between atoms: C_14  and  C_17
REMARK    4  A    between atoms: C_21  and  C_24
REMARK    5  A    between atoms: C_24  and  C_25
REMARK    6  A    between atoms: C_26  and  C_27
REMARK                            x       y       z     vdW  Elec       q    Type
REMARK                         _______ _______ _______ _____ _____    ______ ____
ROOT
ATOM      1  O   UNL     1     113.669 126.869 138.612  0.00  0.00    +0.000 OA
ATOM      2  O   UNL     1     112.068 127.576 136.352  0.00  0.00    +0.000 OA
ATOM      3  C   UNL     1     112.869 127.222 137.482  0.00  0.00    +0.000 A 
ATOM      4  C   UNL     1     113.104 127.357 138.262  0.00  0.00    +0.000 A 
ATOM      5  C   UNL     1     112.303 127.711 137.132  0.00  0.00    +0.000 A 
ATOM      6  C   UNL     1     112.773 127.979 138.691  0.00  0.00    +0.000 A 
ATOM      7  C   UNL     1     111.973 128.333 137.561  0.00  0.00    +0.000 A 
ATOM      8  C   UNL     1     112.208 128.467 138.340  0.00  0.00    +0.000 A 
ENDROOT
BRANCH   6  10
ATOM      9  O   UNL     1     112.849 127.551 140.052  0.00  0.00    +0.000 OA
ATOM     10  C   UNL     1     113.008 128.114 139.470  0.00  0.00    +0.000 C 
BRANCH  10  11
ATOM     11  C   UNL     1     113.402 128.811 139.667  0.00  0.00    +0.000 C 
ATOM     12  C   UNL     1     113.669 128.930 140.439  0.00  0.00    +0.000 C 
BRANCH  12  15
ATOM     13  O   UNL     1     113.721 131.443 141.799  0.00  0.00    +0.000 OA
ATOM     14  O   UNL     1     115.245 131.720 141.230  0.00  0.00    +0.000 OA
ATOM     15  C   UNL     1     114.063 129.627 140.637  0.00  0.00    +0.000 A 
ATOM     16  C   UNL     1     113.695 130.186 141.119  0.00  0.00    +0.000 A 
ATOM     17  C   UNL     1     114.825 129.765 140.352  0.00  0.00    +0.000 A 
ATOM     18  C   UNL     1     114.089 130.884 141.316  0.00  0.00    +0.000 A 
ATOM     19  C   UNL     1     115.219 130.463 140.549  0.00  0.00    +0.000 A 
ATOM     20  C   UNL     1     114.851 131.022 141.032  0.00  0.00    +0.000 A 
ENDBRANCH  12  15
ENDBRANCH  10  11
ENDBRANCH   6  10
BRANCH   3  21
ATOM     21  O   UNL     1     113.199 126.600 137.053  0.00  0.00    +0.000 OA
BRANCH  21  30
ATOM     22  O   UNL     1     112.124 125.747 137.451  0.00  0.00    +0.000 OA
ATOM     23  O   UNL     1     113.267 123.817 136.404  0.00  0.00    +0.000 OA
ATOM     24  O   UNL     1     111.811 123.609 137.151  0.00  0.00    +0.000 OA
ATOM     25  O   UNL     1     113.961 125.313 136.355  0.00  0.00    +0.000 OA
ATOM     26  C   UNL     1     112.886 124.461 136.753  0.00  0.00    +0.000 C 
ATOM     27  C   UNL     1     112.158 124.357 137.127  0.00  0.00    +0.000 C 
ATOM     28  C   UNL     1     111.777 125.000 137.475  0.00  0.00    +0.000 C 
ATOM     29  C   UNL     1     113.233 125.209 136.729  0.00  0.00    +0.000 C 
ATOM     30  C   UNL     1     112.852 125.853 137.078  0.00  0.00    +0.000 C 
BRANCH  28  32
ATOM     31  O   UNL     1     110.996 124.937 138.671  0.00  0.00    +0.000 OA
ATOM     32  C   UNL     1     111.049 124.895 137.848  0.00  0.00    +0.000 C 
ENDBRANCH  28  32
ENDBRANCH  21  30
ENDBRANCH   3  21
TORSDOF 6
ENDMDL
MODEL 8
REMARK VINA RESULT:      -8.5      1.766      4.810
REMARK  Name = 14213549
REMARK  6 active torsions:
REMARK  status: ('A' for Active; 'I' for Inactive)
REMARK    1  A    between atoms: O_2  and  C_16
REMARK    2  A    between atoms: O_2  and  C_18
REMARK    3  A    between atoms: C_14  and  C_17
REMARK    4  A    between atoms: C_21  and  C_24
REMARK    5  A    between atoms: C_24  and  C_25
REMARK    6  A    between atoms: C_26  and  C_27
REMARK                            x       y       z     vdW  Elec       q    Type
REMARK                         _______ _______ _______ _____ _____    ______ ____
ROOT
ATOM      1  O   UNL     1     109.671 126.588 137.326  0.00  0.00    +0.000 OA
ATOM      2  O   UNL     1     111.280 124.785 135.800  0.00  0.00    +0.000 OA
ATOM      3  C   UNL     1     110.475 125.686 136.563  0.00  0.00    +0.000 A 
ATOM      4  C   UNL     1     109.908 126.285 136.596  0.00  0.00    +0.000 A 
ATOM      5  C   UNL     1     110.712 125.384 135.833  0.00  0.00    +0.000 A 
ATOM      6  C   UNL     1     109.578 126.581 135.900  0.00  0.00    +0.000 A 
ATOM      7  C   UNL     1     110.383 125.679 135.137  0.00  0.00    +0.000 A 
ATOM      8  C   UNL     1     109.816 126.277 135.170  0.00  0.00    +0.000 A 
ENDROOT
BRANCH   6  10
ATOM      9  O   UNL     1     108.219 126.990 136.060  0.00  0.00    +0.000 OA
ATOM     10  C   UNL     1     109.012 127.179 135.933  0.00  0.00    +0.000 C 
BRANCH  10  11
ATOM     11  C   UNL     1     109.238 127.966 135.840  0.00  0.00    +0.000 C 
ATOM     12  C   UNL     1     108.665 128.550 135.729  0.00  0.00    +0.000 C 
BRANCH  12  15
ATOM     13  O   UNL     1     108.588 131.268 136.609  0.00  0.00    +0.000 OA
ATOM     14  O   UNL     1     109.569 131.702 135.355  0.00  0.00    +0.000 OA
ATOM     15  C   UNL     1     108.891 129.338 135.635  0.00  0.00    +0.000 A 
ATOM     16  C   UNL     1     108.627 129.909 136.168  0.00  0.00    +0.000 A 
ATOM     17  C   UNL     1     109.382 129.554 135.008  0.00  0.00    +0.000 A 
ATOM     18  C   UNL     1     108.853 130.697 136.075  0.00  0.00    +0.000 A 
ATOM     19  C   UNL     1     109.608 130.342 134.915  0.00  0.00    +0.000 A 
ATOM     20  C   UNL     1     109.343 130.914 135.448  0.00  0.00    +0.000 A 
ENDBRANCH  12  15
ENDBRANCH  10  11
ENDBRANCH   6  10
BRANCH   3  21
ATOM     21  O   UNL     1     110.805 125.391 137.259  0.00  0.00    +0.000 OA
BRANCH  21  30
ATOM     22  O   UNL     1     111.944 126.246 137.148  0.00  0.00    +0.000 OA
ATOM     23  O   UNL     1     112.373 125.989 139.572  0.00  0.00    +0.000 OA
ATOM     24  O   UNL     1     113.369 126.930 138.653  0.00  0.00    +0.000 OA
ATOM     25  O   UNL     1     111.091 125.219 138.875  0.00  0.00    +0.000 OA
ATOM     26  C   UNL     1     112.230 126.075 138.764  0.00  0.00    +0.000 C 
ATOM     27  C   UNL     1     112.728 126.545 138.304  0.00  0.00    +0.000 C 
ATOM     28  C   UNL     1     112.585 126.631 137.496  0.00  0.00    +0.000 C 
ATOM     29  C   UNL     1     111.589 125.690 138.415  0.00  0.00    +0.000 C 
ATOM     30  C   UNL     1     111.446 125.775 137.607  0.00  0.00    +0.000 C 
BRANCH  28  32
ATOM     31  O   UNL     1     112.819 127.831 136.756  0.00  0.00    +0.000 OA
ATOM     32  C   UNL     1     113.083 127.101 137.037  0.00  0.00    +0.000 C 
ENDBRANCH  28  32
ENDBRANCH  21  30
ENDBRANCH   3  21
TORSDOF 6
ENDMDL
MODEL 9
REMARK VINA RESULT:      -8.5      3.061      6.494
REMARK  Name = 14213549
REMARK  6 active torsions:
REMARK  status: ('A' for Active; 'I' for Inactive)
REMARK    1  A    between atoms: O_2  and  C_16
REMARK    2  A    between atoms: O_2  and  C_18
REMARK    3  A    between atoms: C_14  and  C_17
REMARK    4  A    between atoms: C_21  and  C_24
REMARK    5  A    between atoms: C_24  and  C_25
REMARK    6  A    between atoms: C_26  and  C_27
REMARK                            x       y       z     vdW  Elec       q    Type
REMARK                         _______ _______ _______ _____ _____    ______ ____
ROOT
ATOM      1  O   UNL     1     111.913 126.032 138.596  0.00  0.00    +0.000 OA
ATOM      2  O   UNL     1     113.682 124.903 136.656  0.00  0.00    +0.000 OA
ATOM      3  C   UNL     1     112.797 125.468 137.626  0.00  0.00    +0.000 A 
ATOM      4  C   UNL     1     112.679 125.898 138.321  0.00  0.00    +0.000 A 
ATOM      5  C   UNL     1     113.563 125.334 137.350  0.00  0.00    +0.000 A 
ATOM      6  C   UNL     1     113.326 126.194 138.738  0.00  0.00    +0.000 A 
ATOM      7  C   UNL     1     114.210 125.630 137.768  0.00  0.00    +0.000 A 
ATOM      8  C   UNL     1     114.091 126.060 138.461  0.00  0.00    +0.000 A 
ENDROOT
BRANCH   6  10
ATOM      9  O   UNL     1     112.841 126.269 140.080  0.00  0.00    +0.000 OA
ATOM     10  C   UNL     1     113.207 126.624 139.431  0.00  0.00    +0.000 C 
BRANCH  10  11
ATOM     11  C   UNL     1     113.454 127.410 139.477  0.00  0.00    +0.000 C 
ATOM     12  C   UNL     1     113.333 127.841 140.170  0.00  0.00    +0.000 C 
BRANCH  12  15
ATOM     13  O   UNL     1     112.874 130.614 139.651  0.00  0.00    +0.000 OA
ATOM     14  O   UNL     1     114.321 130.985 140.352  0.00  0.00    +0.000 OA
ATOM     15  C   UNL     1     113.580 128.627 140.216  0.00  0.00    +0.000 A 
ATOM     16  C   UNL     1     113.104 129.227 139.911  0.00  0.00    +0.000 A 
ATOM     17  C   UNL     1     114.304 128.812 140.567  0.00  0.00    +0.000 A 
ATOM     18  C   UNL     1     113.351 130.013 139.957  0.00  0.00    +0.000 A 
ATOM     19  C   UNL     1     114.551 129.598 140.612  0.00  0.00    +0.000 A 
ATOM     20  C   UNL     1     114.074 130.199 140.307  0.00  0.00    +0.000 A 
ENDBRANCH  12  15
ENDBRANCH  10  11
ENDBRANCH   6  10
BRANCH   3  21
ATOM     21  O   UNL     1     112.150 125.172 137.208  0.00  0.00    +0.000 OA
BRANCH  21  30
ATOM     22  O   UNL     1     112.055 126.393 136.472  0.00  0.00    +0.000 OA
ATOM     23  O   UNL     1     110.363 125.365 134.987  0.00  0.00    +0.000 OA
ATOM     24  O   UNL     1     110.831 126.928 134.747  0.00  0.00    +0.000 OA
ATOM     25  O   UNL     1     111.022 124.486 136.218  0.00  0.00    +0.000 OA
ATOM     26  C   UNL     1     110.927 125.708 135.482  0.00  0.00    +0.000 C 
ATOM     27  C   UNL     1     111.161 126.489 135.362  0.00  0.00    +0.000 C 
ATOM     28  C   UNL     1     111.725 126.832 135.858  0.00  0.00    +0.000 C 
ATOM     29  C   UNL     1     111.257 125.268 136.098  0.00  0.00    +0.000 C 
ATOM     30  C   UNL     1     111.821 125.611 136.593  0.00  0.00    +0.000 C 
BRANCH  28  32
ATOM     31  O   UNL     1     111.718 128.202 136.262  0.00  0.00    +0.000 OA
ATOM     32  C   UNL     1     111.959 127.613 135.737  0.00  0.00    +0.000 C 
ENDBRANCH  28  32
ENDBRANCH  21  30
ENDBRANCH   3  21
TORSDOF 6
ENDMDL
MODEL 10
REMARK VINA RESULT:      -8.4      2.018      5.156
REMARK  Name = 14213549
REMARK  6 active torsions:
REMARK  status: ('A' for Active; 'I' for Inactive)
REMARK    1  A    between atoms: O_2  and  C_16
REMARK    2  A    between atoms: O_2  and  C_18
REMARK    3  A    between atoms: C_14  and  C_17
REMARK    4  A    between atoms: C_21  and  C_24
REMARK    5  A    between atoms: C_24  and  C_25
REMARK    6  A    between atoms: C_26  and  C_27
REMARK                            x       y       z     vdW  Elec       q    Type
REMARK                         _______ _______ _______ _____ _____    ______ ____
ROOT
ATOM      1  O   UNL     1     112.215 127.367 136.045  0.00  0.00    +0.000 OA
ATOM      2  O   UNL     1     111.167 124.708 136.046  0.00  0.00    +0.000 OA
ATOM      3  C   UNL     1     111.691 126.038 136.046  0.00  0.00    +0.000 A 
ATOM      4  C   UNL     1     111.617 126.835 135.844  0.00  0.00    +0.000 A 
ATOM      5  C   UNL     1     111.094 125.506 135.845  0.00  0.00    +0.000 A 
ATOM      6  C   UNL     1     110.947 127.099 135.442  0.00  0.00    +0.000 A 
ATOM      7  C   UNL     1     110.423 125.770 135.443  0.00  0.00    +0.000 A 
ATOM      8  C   UNL     1     110.350 126.566 135.242  0.00  0.00    +0.000 A 
ENDROOT
BRANCH   6  10
ATOM      9  O   UNL     1     111.310 128.205 134.613  0.00  0.00    +0.000 OA
ATOM     10  C   UNL     1     110.874 127.895 135.241  0.00  0.00    +0.000 C 
BRANCH  10  11
ATOM     11  C   UNL     1     110.364 128.383 135.669  0.00  0.00    +0.000 C 
ATOM     12  C   UNL     1     110.207 129.149 135.404  0.00  0.00    +0.000 C 
BRANCH  12  15
ATOM     13  O   UNL     1     107.602 130.247 135.822  0.00  0.00    +0.000 OA
ATOM     14  O   UNL     1     108.169 131.102 137.114  0.00  0.00    +0.000 OA
ATOM     15  C   UNL     1     109.697 129.637 135.832  0.00  0.00    +0.000 A 
ATOM     16  C   UNL     1     108.905 129.698 135.613  0.00  0.00    +0.000 A 
ATOM     17  C   UNL     1     109.982 130.065 136.478  0.00  0.00    +0.000 A 
ATOM     18  C   UNL     1     108.395 130.186 136.041  0.00  0.00    +0.000 A 
ATOM     19  C   UNL     1     109.472 130.553 136.905  0.00  0.00    +0.000 A 
ATOM     20  C   UNL     1     108.678 130.614 136.687  0.00  0.00    +0.000 A 
ENDBRANCH  12  15
ENDBRANCH  10  11
ENDBRANCH   6  10
BRANCH   3  21
ATOM     21  O   UNL     1     112.361 125.774 136.447  0.00  0.00    +0.000 OA
BRANCH  21  30
ATOM     22  O   UNL     1     111.729 125.921 137.720  0.00  0.00    +0.000 OA
ATOM     23  O   UNL     1     113.948 126.033 138.810  0.00  0.00    +0.000 OA
ATOM     24  O   UNL     1     112.576 126.142 139.719  0.00  0.00    +0.000 OA
ATOM     25  O   UNL     1     113.841 125.849 137.174  0.00  0.00    +0.000 OA
ATOM     26  C   UNL     1     113.208 125.996 138.447  0.00  0.00    +0.000 C 
ATOM     27  C   UNL     1     112.522 126.050 138.901  0.00  0.00    +0.000 C 
ATOM     28  C   UNL     1     111.782 126.013 138.538  0.00  0.00    +0.000 C 
ATOM     29  C   UNL     1     113.155 125.904 137.628  0.00  0.00    +0.000 C 
ATOM     30  C   UNL     1     112.415 125.866 137.265  0.00  0.00    +0.000 C 
BRANCH  28  32
ATOM     31  O   UNL     1     110.635 125.396 139.126  0.00  0.00    +0.000 OA
ATOM     32  C   UNL     1     111.097 126.067 138.992  0.00  0.00    +0.000 C 
ENDBRANCH  28  32
ENDBRANCH  21  30
ENDBRANCH   3  21
TORSDOF 6
ENDMDL
