MODEL 1
REMARK VINA RESULT:      -9.9      0.000      0.000
REMARK  Name = 44257658
REMARK  2 active torsions:
REMARK  status: ('A' for Active; 'I' for Inactive)
REMARK    1  A    between atoms: C_10  and  C_14
REMARK    2  A    between atoms: C_22  and  C_24
REMARK                            x       y       z     vdW  Elec       q    Type
REMARK                         _______ _______ _______ _____ _____    ______ ____
ROOT
ATOM      1  O   UNL     1     105.978 123.885 140.893  0.00  0.00    +0.000 OA
ATOM      2  O   UNL     1     104.956 126.542 140.636  0.00  0.00    +0.000 OA
ATOM      3  O   UNL     1     104.198 124.541 138.707  0.00  0.00    +0.000 OA
ATOM      4  O   UNL     1     105.622 122.854 139.948  0.00  0.00    +0.000 OA
ATOM      5  C   UNL     1     105.467 125.213 140.764  0.00  0.00    +0.000 A 
ATOM      6  C   UNL     1     105.514 124.436 140.491  0.00  0.00    +0.000 A 
ATOM      7  C   UNL     1     105.003 125.765 140.362  0.00  0.00    +0.000 A 
ATOM      8  C   UNL     1     105.098 124.211 139.814  0.00  0.00    +0.000 A 
ATOM      9  C   UNL     1     104.635 124.763 139.412  0.00  0.00    +0.000 A 
ATOM     10  C   UNL     1     104.588 125.539 139.686  0.00  0.00    +0.000 A 
ATOM     11  C   UNL     1     105.156 123.399 139.539  0.00  0.00    +0.000 A 
ATOM     12  C   UNL     1     104.243 123.733 138.416  0.00  0.00    +0.000 A 
ATOM     13  C   UNL     1     104.726 123.158 138.835  0.00  0.00    +0.000 A 
ENDROOT
BRANCH   5  18
ATOM     14  O   UNL     1     105.543 125.337 142.186  0.00  0.00    +0.000 OA
ATOM     15  O   UNL     1     107.806 126.317 141.978  0.00  0.00    +0.000 OA
ATOM     16  O   UNL     1     107.129 126.114 143.469  0.00  0.00    +0.000 OA
ATOM     17  C   UNL     1     107.052 125.990 142.047  0.00  0.00    +0.000 C 
ATOM     18  C   UNL     1     105.883 125.439 141.441  0.00  0.00    +0.000 C 
ATOM     19  C   UNL     1     106.714 125.889 142.792  0.00  0.00    +0.000 C 
ATOM     20  C   UNL     1     106.637 125.766 141.372  0.00  0.00    +0.000 C 
ATOM     21  C   UNL     1     105.959 125.562 142.861  0.00  0.00    +0.000 C 
ATOM     22  C   UNL     1     105.620 125.460 143.607  0.00  0.00    +0.000 C 
ENDBRANCH   5  18
BRANCH  12  24
ATOM     23  O   UNL     1     102.578 122.842 135.711  0.00  0.00    +0.000 OA
ATOM     24  C   UNL     1     103.827 123.510 137.740  0.00  0.00    +0.000 A 
ATOM     25  C   UNL     1     103.002 123.492 137.750  0.00  0.00    +0.000 A 
ATOM     26  C   UNL     1     104.235 123.305 137.053  0.00  0.00    +0.000 A 
ATOM     27  C   UNL     1     102.586 123.269 137.074  0.00  0.00    +0.000 A 
ATOM     28  C   UNL     1     103.819 123.083 136.377  0.00  0.00    +0.000 A 
ATOM     29  C   UNL     1     102.994 123.064 136.386  0.00  0.00    +0.000 A 
ENDBRANCH  12  24
TORSDOF 2
ENDMDL
MODEL 2
REMARK VINA RESULT:      -9.7      7.661      8.990
REMARK  Name = 44257658
REMARK  2 active torsions:
REMARK  status: ('A' for Active; 'I' for Inactive)
REMARK    1  A    between atoms: C_10  and  C_14
REMARK    2  A    between atoms: C_22  and  C_24
REMARK                            x       y       z     vdW  Elec       q    Type
REMARK                         _______ _______ _______ _____ _____    ______ ____
ROOT
ATOM      1  O   UNL     1     112.862 129.069 139.023  0.00  0.00    +0.000 OA
ATOM      2  O   UNL     1     114.284 127.667 141.067  0.00  0.00    +0.000 OA
ATOM      3  O   UNL     1     113.150 126.193 138.867  0.00  0.00    +0.000 OA
ATOM      4  O   UNL     1     112.279 128.367 137.905  0.00  0.00    +0.000 OA
ATOM      5  C   UNL     1     113.573 128.367 140.045  0.00  0.00    +0.000 A 
ATOM      6  C   UNL     1     113.147 128.362 139.339  0.00  0.00    +0.000 A 
ATOM      7  C   UNL     1     113.858 127.660 140.361  0.00  0.00    +0.000 A 
ATOM      8  C   UNL     1     113.006 127.648 138.948  0.00  0.00    +0.000 A 
ATOM      9  C   UNL     1     113.290 126.941 139.264  0.00  0.00    +0.000 A 
ATOM     10  C   UNL     1     113.717 126.948 139.971  0.00  0.00    +0.000 A 
ATOM     11  C   UNL     1     112.561 127.655 138.214  0.00  0.00    +0.000 A 
ATOM     12  C   UNL     1     112.707 126.180 138.131  0.00  0.00    +0.000 A 
ATOM     13  C   UNL     1     112.410 126.916 137.802  0.00  0.00    +0.000 A 
ENDROOT
BRANCH   5  18
ATOM     14  O   UNL     1     114.385 129.524 140.253  0.00  0.00    +0.000 OA
ATOM     15  O   UNL     1     112.797 130.331 141.971  0.00  0.00    +0.000 OA
ATOM     16  O   UNL     1     114.138 131.219 141.606  0.00  0.00    +0.000 OA
ATOM     17  C   UNL     1     113.326 130.062 141.398  0.00  0.00    +0.000 C 
ATOM     18  C   UNL     1     113.714 129.081 140.436  0.00  0.00    +0.000 C 
ATOM     19  C   UNL     1     113.996 130.506 141.216  0.00  0.00    +0.000 C 
ATOM     20  C   UNL     1     113.185 129.349 141.008  0.00  0.00    +0.000 C 
ATOM     21  C   UNL     1     114.526 130.237 140.643  0.00  0.00    +0.000 C 
ATOM     22  C   UNL     1     115.198 130.681 140.461  0.00  0.00    +0.000 C 
ENDBRANCH   5  18
BRANCH  12  24
ATOM     23  O   UNL     1     112.146 123.323 136.578  0.00  0.00    +0.000 OA
ATOM     24  C   UNL     1     112.567 125.465 137.742  0.00  0.00    +0.000 A 
ATOM     25  C   UNL     1     113.166 125.111 137.301  0.00  0.00    +0.000 A 
ATOM     26  C   UNL     1     111.826 125.105 137.796  0.00  0.00    +0.000 A 
ATOM     27  C   UNL     1     113.026 124.397 136.912  0.00  0.00    +0.000 A 
ATOM     28  C   UNL     1     111.686 124.391 137.408  0.00  0.00    +0.000 A 
ATOM     29  C   UNL     1     112.286 124.036 136.966  0.00  0.00    +0.000 A 
ENDBRANCH  12  24
TORSDOF 2
ENDMDL
MODEL 3
REMARK VINA RESULT:      -9.4      4.825      7.668
REMARK  Name = 44257658
REMARK  2 active torsions:
REMARK  status: ('A' for Active; 'I' for Inactive)
REMARK    1  A    between atoms: C_10  and  C_14
REMARK    2  A    between atoms: C_22  and  C_24
REMARK                            x       y       z     vdW  Elec       q    Type
REMARK                         _______ _______ _______ _____ _____    ______ ____
ROOT
ATOM      1  O   UNL     1     106.599 128.033 144.763  0.00  0.00    +0.000 OA
ATOM      2  O   UNL     1     105.581 125.713 143.439  0.00  0.00    +0.000 OA
ATOM      3  O   UNL     1     106.459 125.510 146.176  0.00  0.00    +0.000 OA
ATOM      4  O   UNL     1     107.049 127.972 146.133  0.00  0.00    +0.000 OA
ATOM      5  C   UNL     1     106.090 126.872 144.101  0.00  0.00    +0.000 A 
ATOM      6  C   UNL     1     106.406 127.231 144.774  0.00  0.00    +0.000 A 
ATOM      7  C   UNL     1     105.897 126.070 144.113  0.00  0.00    +0.000 A 
ATOM      8  C   UNL     1     106.529 126.786 145.459  0.00  0.00    +0.000 A 
ATOM      9  C   UNL     1     106.336 125.984 145.470  0.00  0.00    +0.000 A 
ATOM     10  C   UNL     1     106.019 125.627 144.796  0.00  0.00    +0.000 A 
ATOM     11  C   UNL     1     106.858 127.170 146.153  0.00  0.00    +0.000 A 
ATOM     12  C   UNL     1     106.788 125.877 146.880  0.00  0.00    +0.000 A 
ATOM     13  C   UNL     1     106.989 126.712 146.869  0.00  0.00    +0.000 A 
ENDROOT
BRANCH   5  18
ATOM     14  O   UNL     1     105.271 127.751 143.327  0.00  0.00    +0.000 OA
ATOM     15  O   UNL     1     106.990 127.783 141.546  0.00  0.00    +0.000 OA
ATOM     16  O   UNL     1     105.598 128.651 141.365  0.00  0.00    +0.000 OA
ATOM     17  C   UNL     1     106.417 127.772 142.140  0.00  0.00    +0.000 C 
ATOM     18  C   UNL     1     105.967 127.317 143.417  0.00  0.00    +0.000 C 
ATOM     19  C   UNL     1     105.722 128.206 142.049  0.00  0.00    +0.000 C 
ATOM     20  C   UNL     1     106.540 127.328 142.823  0.00  0.00    +0.000 C 
ATOM     21  C   UNL     1     105.149 128.195 142.643  0.00  0.00    +0.000 C 
ATOM     22  C   UNL     1     104.452 128.629 142.552  0.00  0.00    +0.000 C 
ENDBRANCH   5  18
BRANCH  12  24
ATOM     23  O   UNL     1     107.273 124.091 149.612  0.00  0.00    +0.000 OA
ATOM     24  C   UNL     1     106.909 125.430 147.563  0.00  0.00    +0.000 A 
ATOM     25  C   UNL     1     107.670 125.186 147.767  0.00  0.00    +0.000 A 
ATOM     26  C   UNL     1     106.270 125.228 148.043  0.00  0.00    +0.000 A 
ATOM     27  C   UNL     1     107.792 124.739 148.449  0.00  0.00    +0.000 A 
ATOM     28  C   UNL     1     106.391 124.782 148.725  0.00  0.00    +0.000 A 
ATOM     29  C   UNL     1     107.152 124.537 148.929  0.00  0.00    +0.000 A 
ENDBRANCH  12  24
TORSDOF 2
ENDMDL
MODEL 4
REMARK VINA RESULT:      -9.4      4.990      6.645
REMARK  Name = 44257658
REMARK  2 active torsions:
REMARK  status: ('A' for Active; 'I' for Inactive)
REMARK    1  A    between atoms: C_10  and  C_14
REMARK    2  A    between atoms: C_22  and  C_24
REMARK                            x       y       z     vdW  Elec       q    Type
REMARK                         _______ _______ _______ _____ _____    ______ ____
ROOT
ATOM      1  O   UNL     1     106.542 124.786 145.940  0.00  0.00    +0.000 OA
ATOM      2  O   UNL     1     106.788 127.140 147.543  0.00  0.00    +0.000 OA
ATOM      3  O   UNL     1     106.194 127.395 144.735  0.00  0.00    +0.000 OA
ATOM      4  O   UNL     1     106.245 124.872 144.530  0.00  0.00    +0.000 OA
ATOM      5  C   UNL     1     106.665 125.963 146.741  0.00  0.00    +0.000 A 
ATOM      6  C   UNL     1     106.526 125.608 146.010  0.00  0.00    +0.000 A 
ATOM      7  C   UNL     1     106.649 126.785 146.810  0.00  0.00    +0.000 A 
ATOM      8  C   UNL     1     106.370 126.076 145.347  0.00  0.00    +0.000 A 
ATOM      9  C   UNL     1     106.354 126.898 145.417  0.00  0.00    +0.000 A 
ATOM     10  C   UNL     1     106.494 127.252 146.149  0.00  0.00    +0.000 A 
ATOM     11  C   UNL     1     106.227 125.694 144.591  0.00  0.00    +0.000 A 
ATOM     12  C   UNL     1     106.048 127.031 143.970  0.00  0.00    +0.000 A 
ATOM     13  C   UNL     1     106.065 126.175 143.897  0.00  0.00    +0.000 A 
ENDROOT
BRANCH   5  18
ATOM     14  O   UNL     1     106.197 125.215 147.865  0.00  0.00    +0.000 OA
ATOM     15  O   UNL     1     108.532 124.657 148.466  0.00  0.00    +0.000 OA
ATOM     16  O   UNL     1     107.285 124.095 149.389  0.00  0.00    +0.000 OA
ATOM     17  C   UNL     1     107.753 124.843 148.265  0.00  0.00    +0.000 C 
ATOM     18  C   UNL     1     106.820 125.496 147.404  0.00  0.00    +0.000 C 
ATOM     19  C   UNL     1     107.131 124.562 148.727  0.00  0.00    +0.000 C 
ATOM     20  C   UNL     1     107.599 125.310 147.604  0.00  0.00    +0.000 C 
ATOM     21  C   UNL     1     106.352 124.748 148.526  0.00  0.00    +0.000 C 
ATOM     22  C   UNL     1     105.728 124.466 148.988  0.00  0.00    +0.000 C 
ENDBRANCH   5  18
BRANCH  12  24
ATOM     23  O   UNL     1     105.427 128.909 141.329  0.00  0.00    +0.000 OA
ATOM     24  C   UNL     1     105.893 127.500 143.309  0.00  0.00    +0.000 A 
ATOM     25  C   UNL     1     106.499 127.683 142.781  0.00  0.00    +0.000 A 
ATOM     26  C   UNL     1     105.131 127.788 143.177  0.00  0.00    +0.000 A 
ATOM     27  C   UNL     1     106.344 128.152 142.120  0.00  0.00    +0.000 A 
ATOM     28  C   UNL     1     104.976 128.257 142.517  0.00  0.00    +0.000 A 
ATOM     29  C   UNL     1     105.582 128.440 141.988  0.00  0.00    +0.000 A 
ENDBRANCH  12  24
TORSDOF 2
ENDMDL
MODEL 5
REMARK VINA RESULT:      -9.3      7.726      9.228
REMARK  Name = 44257658
REMARK  2 active torsions:
REMARK  status: ('A' for Active; 'I' for Inactive)
REMARK    1  A    between atoms: C_10  and  C_14
REMARK    2  A    between atoms: C_22  and  C_24
REMARK                            x       y       z     vdW  Elec       q    Type
REMARK                         _______ _______ _______ _____ _____    ______ ____
ROOT
ATOM      1  O   UNL     1     110.970 129.231 136.867  0.00  0.00    +0.000 OA
ATOM      2  O   UNL     1     109.963 127.776 134.623  0.00  0.00    +0.000 OA
ATOM      3  O   UNL     1     112.199 126.723 136.105  0.00  0.00    +0.000 OA
ATOM      4  O   UNL     1     112.088 128.737 137.635  0.00  0.00    +0.000 OA
ATOM      5  C   UNL     1     110.467 128.502 135.745  0.00  0.00    +0.000 A 
ATOM      6  C   UNL     1     111.004 128.575 136.367  0.00  0.00    +0.000 A 
ATOM      7  C   UNL     1     110.501 127.847 135.245  0.00  0.00    +0.000 A 
ATOM      8  C   UNL     1     111.575 127.992 136.489  0.00  0.00    +0.000 A 
ATOM      9  C   UNL     1     111.609 127.337 135.988  0.00  0.00    +0.000 A 
ATOM     10  C   UNL     1     111.071 127.265 135.367  0.00  0.00    +0.000 A 
ATOM     11  C   UNL     1     112.129 128.079 137.139  0.00  0.00    +0.000 A 
ATOM     12  C   UNL     1     112.762 126.792 136.751  0.00  0.00    +0.000 A 
ATOM     13  C   UNL     1     112.726 127.475 137.272  0.00  0.00    +0.000 A 
ENDROOT
BRANCH   5  18
ATOM     14  O   UNL     1     110.080 129.756 135.179  0.00  0.00    +0.000 OA
ATOM     15  O   UNL     1     107.817 129.494 136.146  0.00  0.00    +0.000 OA
ATOM     16  O   UNL     1     108.184 130.835 135.258  0.00  0.00    +0.000 OA
ATOM     17  C   UNL     1     108.571 129.581 135.824  0.00  0.00    +0.000 C 
ATOM     18  C   UNL     1     109.896 129.086 135.623  0.00  0.00    +0.000 C 
ATOM     19  C   UNL     1     108.754 130.251 135.380  0.00  0.00    +0.000 C 
ATOM     20  C   UNL     1     109.141 128.998 135.945  0.00  0.00    +0.000 C 
ATOM     21  C   UNL     1     109.509 130.339 135.058  0.00  0.00    +0.000 C 
ATOM     22  C   UNL     1     109.693 131.010 134.614  0.00  0.00    +0.000 C 
ENDBRANCH   5  18
BRANCH  12  24
ATOM     23  O   UNL     1     115.042 124.456 137.228  0.00  0.00    +0.000 OA
ATOM     24  C   UNL     1     113.331 126.208 136.870  0.00  0.00    +0.000 A 
ATOM     25  C   UNL     1     113.163 125.559 137.351  0.00  0.00    +0.000 A 
ATOM     26  C   UNL     1     114.070 126.272 136.509  0.00  0.00    +0.000 A 
ATOM     27  C   UNL     1     113.733 124.975 137.470  0.00  0.00    +0.000 A 
ATOM     28  C   UNL     1     114.640 125.689 136.628  0.00  0.00    +0.000 A 
ATOM     29  C   UNL     1     114.472 125.039 137.109  0.00  0.00    +0.000 A 
ENDBRANCH  12  24
TORSDOF 2
ENDMDL
MODEL 6
REMARK VINA RESULT:      -9.3      8.734     10.351
REMARK  Name = 44257658
REMARK  2 active torsions:
REMARK  status: ('A' for Active; 'I' for Inactive)
REMARK    1  A    between atoms: C_10  and  C_14
REMARK    2  A    between atoms: C_22  and  C_24
REMARK                            x       y       z     vdW  Elec       q    Type
REMARK                         _______ _______ _______ _____ _____    ______ ____
ROOT
ATOM      1  O   UNL     1     111.756 126.944 136.261  0.00  0.00    +0.000 OA
ATOM      2  O   UNL     1     114.097 125.755 137.391  0.00  0.00    +0.000 OA
ATOM      3  O   UNL     1     114.286 128.345 136.144  0.00  0.00    +0.000 OA
ATOM      4  O   UNL     1     111.809 128.240 135.628  0.00  0.00    +0.000 OA
ATOM      5  C   UNL     1     112.927 126.350 136.826  0.00  0.00    +0.000 A 
ATOM      6  C   UNL     1     112.563 126.976 136.430  0.00  0.00    +0.000 A 
ATOM      7  C   UNL     1     113.734 126.382 136.995  0.00  0.00    +0.000 A 
ATOM      8  C   UNL     1     113.007 127.634 136.204  0.00  0.00    +0.000 A 
ATOM      9  C   UNL     1     113.813 127.666 136.374  0.00  0.00    +0.000 A 
ATOM     10  C   UNL     1     114.176 127.039 136.769  0.00  0.00    +0.000 A 
ATOM     11  C   UNL     1     112.617 128.279 135.793  0.00  0.00    +0.000 A 
ATOM     12  C   UNL     1     113.913 129.001 135.731  0.00  0.00    +0.000 A 
ATOM     13  C   UNL     1     113.073 128.968 135.555  0.00  0.00    +0.000 A 
ENDROOT
BRANCH   5  18
ATOM     14  O   UNL     1     112.446 125.031 136.560  0.00  0.00    +0.000 OA
ATOM     15  O   UNL     1     111.227 125.040 138.713  0.00  0.00    +0.000 OA
ATOM     16  O   UNL     1     111.153 123.718 137.729  0.00  0.00    +0.000 OA
ATOM     17  C   UNL     1     111.634 125.037 137.996  0.00  0.00    +0.000 C 
ATOM     18  C   UNL     1     112.483 125.691 137.052  0.00  0.00    +0.000 C 
ATOM     19  C   UNL     1     111.596 124.376 137.504  0.00  0.00    +0.000 C 
ATOM     20  C   UNL     1     112.077 125.695 137.770  0.00  0.00    +0.000 C 
ATOM     21  C   UNL     1     112.003 124.373 136.786  0.00  0.00    +0.000 C 
ATOM     22  C   UNL     1     111.966 123.712 136.293  0.00  0.00    +0.000 C 
ENDBRANCH   5  18
BRANCH  12  24
ATOM     23  O   UNL     1     115.696 131.627 134.831  0.00  0.00    +0.000 OA
ATOM     24  C   UNL     1     114.359 129.658 135.506  0.00  0.00    +0.000 A 
ATOM     25  C   UNL     1     114.324 130.352 135.950  0.00  0.00    +0.000 A 
ATOM     26  C   UNL     1     114.840 129.620 134.837  0.00  0.00    +0.000 A 
ATOM     27  C   UNL     1     114.769 131.009 135.725  0.00  0.00    +0.000 A 
ATOM     28  C   UNL     1     115.285 130.276 134.612  0.00  0.00    +0.000 A 
ATOM     29  C   UNL     1     115.251 130.972 135.056  0.00  0.00    +0.000 A 
ENDBRANCH  12  24
TORSDOF 2
ENDMDL
MODEL 7
REMARK VINA RESULT:      -9.3      6.918      7.979
REMARK  Name = 44257658
REMARK  2 active torsions:
REMARK  status: ('A' for Active; 'I' for Inactive)
REMARK    1  A    between atoms: C_10  and  C_14
REMARK    2  A    between atoms: C_22  and  C_24
REMARK                            x       y       z     vdW  Elec       q    Type
REMARK                         _______ _______ _______ _____ _____    ______ ____
ROOT
ATOM      1  O   UNL     1     108.537 128.530 136.083  0.00  0.00    +0.000 OA
ATOM      2  O   UNL     1     110.980 129.938 136.546  0.00  0.00    +0.000 OA
ATOM      3  O   UNL     1     110.967 127.059 136.639  0.00  0.00    +0.000 OA
ATOM      4  O   UNL     1     108.489 127.088 136.121  0.00  0.00    +0.000 OA
ATOM      5  C   UNL     1     109.759 129.234 136.315  0.00  0.00    +0.000 A 
ATOM      6  C   UNL     1     109.344 128.524 136.252  0.00  0.00    +0.000 A 
ATOM      7  C   UNL     1     110.567 129.227 136.483  0.00  0.00    +0.000 A 
ATOM      8  C   UNL     1     109.738 127.806 136.358  0.00  0.00    +0.000 A 
ATOM      9  C   UNL     1     110.546 127.799 136.526  0.00  0.00    +0.000 A 
ATOM     10  C   UNL     1     110.960 128.510 136.589  0.00  0.00    +0.000 A 
ATOM     11  C   UNL     1     109.296 127.073 136.290  0.00  0.00    +0.000 A 
ATOM     12  C   UNL     1     110.541 126.315 136.574  0.00  0.00    +0.000 A 
ATOM     13  C   UNL     1     109.700 126.322 136.399  0.00  0.00    +0.000 A 
ENDROOT
BRANCH   5  18
ATOM     14  O   UNL     1     109.345 130.304 135.463  0.00  0.00    +0.000 OA
ATOM     15  O   UNL     1     108.225 131.397 137.381  0.00  0.00    +0.000 OA
ATOM     16  O   UNL     1     108.185 132.103 135.891  0.00  0.00    +0.000 OA
ATOM     17  C   UNL     1     108.599 131.033 136.742  0.00  0.00    +0.000 C 
ATOM     18  C   UNL     1     109.365 129.952 136.209  0.00  0.00    +0.000 C 
ATOM     19  C   UNL     1     108.578 131.386 135.997  0.00  0.00    +0.000 C 
ATOM     20  C   UNL     1     108.992 130.316 136.848  0.00  0.00    +0.000 C 
ATOM     21  C   UNL     1     108.952 131.022 135.358  0.00  0.00    +0.000 C 
ATOM     22  C   UNL     1     108.931 131.375 134.612  0.00  0.00    +0.000 C 
ENDBRANCH   5  18
BRANCH  12  24
ATOM     23  O   UNL     1     112.124 123.451 136.998  0.00  0.00    +0.000 OA
ATOM     24  C   UNL     1     110.937 125.599 136.681  0.00  0.00    +0.000 A 
ATOM     25  C   UNL     1     111.125 125.340 137.440  0.00  0.00    +0.000 A 
ATOM     26  C   UNL     1     111.145 125.141 136.026  0.00  0.00    +0.000 A 
ATOM     27  C   UNL     1     111.521 124.624 137.547  0.00  0.00    +0.000 A 
ATOM     28  C   UNL     1     111.540 124.426 136.132  0.00  0.00    +0.000 A 
ATOM     29  C   UNL     1     111.729 124.166 136.892  0.00  0.00    +0.000 A 
ENDBRANCH  12  24
TORSDOF 2
ENDMDL
MODEL 8
REMARK VINA RESULT:      -9.3      7.595     10.278
REMARK  Name = 44257658
REMARK  2 active torsions:
REMARK  status: ('A' for Active; 'I' for Inactive)
REMARK    1  A    between atoms: C_10  and  C_14
REMARK    2  A    between atoms: C_22  and  C_24
REMARK                            x       y       z     vdW  Elec       q    Type
REMARK                         _______ _______ _______ _____ _____    ______ ____
ROOT
ATOM      1  O   UNL     1     113.516 125.983 139.340  0.00  0.00    +0.000 OA
ATOM      2  O   UNL     1     112.429 127.437 137.133  0.00  0.00    +0.000 OA
ATOM      3  O   UNL     1     113.450 128.876 139.410  0.00  0.00    +0.000 OA
ATOM      4  O   UNL     1     114.037 126.667 140.499  0.00  0.00    +0.000 OA
ATOM      5  C   UNL     1     112.972 126.711 138.236  0.00  0.00    +0.000 A 
ATOM      6  C   UNL     1     113.323 126.702 138.983  0.00  0.00    +0.000 A 
ATOM      7  C   UNL     1     112.780 127.429 137.879  0.00  0.00    +0.000 A 
ATOM      8  C   UNL     1     113.482 127.412 139.372  0.00  0.00    +0.000 A 
ATOM      9  C   UNL     1     113.290 128.131 139.015  0.00  0.00    +0.000 A 
ATOM     10  C   UNL     1     112.939 128.139 138.269  0.00  0.00    +0.000 A 
ATOM     11  C   UNL     1     113.848 127.390 140.149  0.00  0.00    +0.000 A 
ATOM     12  C   UNL     1     113.816 128.874 140.188  0.00  0.00    +0.000 A 
ATOM     13  C   UNL     1     114.016 128.126 140.560  0.00  0.00    +0.000 A 
ENDROOT
BRANCH   5  18
ATOM     14  O   UNL     1     113.386 125.661 137.360  0.00  0.00    +0.000 OA
ATOM     15  O   UNL     1     111.193 124.551 137.654  0.00  0.00    +0.000 OA
ATOM     16  O   UNL     1     112.338 123.872 136.679  0.00  0.00    +0.000 OA
ATOM     17  C   UNL     1     111.924 124.921 137.556  0.00  0.00    +0.000 C 
ATOM     18  C   UNL     1     112.813 126.001 137.847  0.00  0.00    +0.000 C 
ATOM     19  C   UNL     1     112.496 124.582 137.069  0.00  0.00    +0.000 C 
ATOM     20  C   UNL     1     112.082 125.631 137.945  0.00  0.00    +0.000 C 
ATOM     21  C   UNL     1     113.226 124.952 136.971  0.00  0.00    +0.000 C 
ATOM     22  C   UNL     1     113.799 124.612 136.483  0.00  0.00    +0.000 C 
ENDBRANCH   5  18
BRANCH  12  24
ATOM     23  O   UNL     1     114.446 131.719 141.737  0.00  0.00    +0.000 OA
ATOM     24  C   UNL     1     113.974 129.585 140.575  0.00  0.00    +0.000 A 
ATOM     25  C   UNL     1     114.675 129.992 140.423  0.00  0.00    +0.000 A 
ATOM     26  C   UNL     1     113.430 129.890 141.116  0.00  0.00    +0.000 A 
ATOM     27  C   UNL     1     114.832 130.703 140.810  0.00  0.00    +0.000 A 
ATOM     28  C   UNL     1     113.587 130.600 141.503  0.00  0.00    +0.000 A 
ATOM     29  C   UNL     1     114.289 131.008 141.350  0.00  0.00    +0.000 A 
ENDBRANCH  12  24
TORSDOF 2
ENDMDL
MODEL 9
REMARK VINA RESULT:      -9.3      4.314      6.290
REMARK  Name = 44257658
REMARK  2 active torsions:
REMARK  status: ('A' for Active; 'I' for Inactive)
REMARK    1  A    between atoms: C_10  and  C_14
REMARK    2  A    between atoms: C_22  and  C_24
REMARK                            x       y       z     vdW  Elec       q    Type
REMARK                         _______ _______ _______ _____ _____    ______ ____
ROOT
ATOM      1  O   UNL     1     104.601 127.838 141.199  0.00  0.00    +0.000 OA
ATOM      2  O   UNL     1     105.566 128.654 143.762  0.00  0.00    +0.000 OA
ATOM      3  O   UNL     1     103.539 130.224 142.447  0.00  0.00    +0.000 OA
ATOM      4  O   UNL     1     103.587 128.597 140.507  0.00  0.00    +0.000 OA
ATOM      5  C   UNL     1     105.083 128.246 142.481  0.00  0.00    +0.000 A 
ATOM      6  C   UNL     1     104.588 128.366 141.832  0.00  0.00    +0.000 A 
ATOM      7  C   UNL     1     105.069 128.775 143.114  0.00  0.00    +0.000 A 
ATOM      8  C   UNL     1     104.078 129.016 141.817  0.00  0.00    +0.000 A 
ATOM      9  C   UNL     1     104.065 129.544 142.451  0.00  0.00    +0.000 A 
ATOM     10  C   UNL     1     104.561 129.423 143.099  0.00  0.00    +0.000 A 
ATOM     11  C   UNL     1     103.567 129.130 141.137  0.00  0.00    +0.000 A 
ATOM     12  C   UNL     1     103.020 130.355 141.775  0.00  0.00    +0.000 A 
ATOM     13  C   UNL     1     103.034 129.805 141.115  0.00  0.00    +0.000 A 
ENDROOT
BRANCH   5  18
ATOM     14  O   UNL     1     106.347 127.658 142.168  0.00  0.00    +0.000 OA
ATOM     15  O   UNL     1     105.611 125.530 143.196  0.00  0.00    +0.000 OA
ATOM     16  O   UNL     1     107.120 125.651 142.540  0.00  0.00    +0.000 OA
ATOM     17  C   UNL     1     105.856 126.239 142.853  0.00  0.00    +0.000 C 
ATOM     18  C   UNL     1     105.592 127.597 142.496  0.00  0.00    +0.000 C 
ATOM     19  C   UNL     1     106.610 126.299 142.525  0.00  0.00    +0.000 C 
ATOM     20  C   UNL     1     105.347 126.888 142.838  0.00  0.00    +0.000 C 
ATOM     21  C   UNL     1     106.855 127.009 142.183  0.00  0.00    +0.000 C 
ATOM     22  C   UNL     1     107.611 127.069 141.854  0.00  0.00    +0.000 C 
ENDBRANCH   5  18
BRANCH  12  24
ATOM     23  O   UNL     1     100.989 132.954 141.725  0.00  0.00    +0.000 OA
ATOM     24  C   UNL     1     102.512 131.005 141.762  0.00  0.00    +0.000 A 
ATOM     25  C   UNL     1     101.728 130.921 142.005  0.00  0.00    +0.000 A 
ATOM     26  C   UNL     1     102.788 131.739 141.507  0.00  0.00    +0.000 A 
ATOM     27  C   UNL     1     101.220 131.571 141.992  0.00  0.00    +0.000 A 
ATOM     28  C   UNL     1     102.280 132.389 141.495  0.00  0.00    +0.000 A 
ATOM     29  C   UNL     1     101.496 132.305 141.737  0.00  0.00    +0.000 A 
ENDBRANCH  12  24
TORSDOF 2
ENDMDL
MODEL 10
REMARK VINA RESULT:      -9.2      7.510      8.483
REMARK  Name = 44257658
REMARK  2 active torsions:
REMARK  status: ('A' for Active; 'I' for Inactive)
REMARK    1  A    between atoms: C_10  and  C_14
REMARK    2  A    between atoms: C_22  and  C_24
REMARK                            x       y       z     vdW  Elec       q    Type
REMARK                         _______ _______ _______ _____ _____    ______ ____
ROOT
ATOM      1  O   UNL     1     112.001 126.888 137.227  0.00  0.00    +0.000 OA
ATOM      2  O   UNL     1     110.862 125.293 135.146  0.00  0.00    +0.000 OA
ATOM      3  O   UNL     1     110.105 128.063 135.382  0.00  0.00    +0.000 OA
ATOM      4  O   UNL     1     111.647 128.279 137.378  0.00  0.00    +0.000 OA
ATOM      5  C   UNL     1     111.431 126.091 136.186  0.00  0.00    +0.000 A 
ATOM      6  C   UNL     1     111.499 126.815 136.576  0.00  0.00    +0.000 A 
ATOM      7  C   UNL     1     110.929 126.018 135.535  0.00  0.00    +0.000 A 
ATOM      8  C   UNL     1     111.064 127.466 136.314  0.00  0.00    +0.000 A 
ATOM      9  C   UNL     1     110.562 127.393 135.663  0.00  0.00    +0.000 A 
ATOM     10  C   UNL     1     110.495 126.668 135.274  0.00  0.00    +0.000 A 
ATOM     11  C   UNL     1     111.143 128.214 136.728  0.00  0.00    +0.000 A 
ATOM     12  C   UNL     1     110.171 128.820 135.783  0.00  0.00    +0.000 A 
ATOM     13  C   UNL     1     110.693 128.897 136.461  0.00  0.00    +0.000 A 
ENDROOT
BRANCH   5  18
ATOM     14  O   UNL     1     112.654 125.353 136.221  0.00  0.00    +0.000 OA
ATOM     15  O   UNL     1     111.593 123.663 137.685  0.00  0.00    +0.000 OA
ATOM     16  O   UNL     1     113.170 123.488 137.232  0.00  0.00    +0.000 OA
ATOM     17  C   UNL     1     111.946 124.226 137.197  0.00  0.00    +0.000 C 
ATOM     18  C   UNL     1     111.866 125.440 136.448  0.00  0.00    +0.000 C 
ATOM     19  C   UNL     1     112.734 124.139 136.971  0.00  0.00    +0.000 C 
ATOM     20  C   UNL     1     111.512 124.876 136.936  0.00  0.00    +0.000 C 
ATOM     21  C   UNL     1     113.088 124.702 136.483  0.00  0.00    +0.000 C 
ATOM     22  C   UNL     1     113.877 124.615 136.256  0.00  0.00    +0.000 C 
ENDBRANCH   5  18
BRANCH  12  24
ATOM     23  O   UNL     1     108.428 131.417 134.730  0.00  0.00    +0.000 OA
ATOM     24  C   UNL     1     109.735 129.469 135.520  0.00  0.00    +0.000 A 
ATOM     25  C   UNL     1     110.000 129.911 134.876  0.00  0.00    +0.000 A 
ATOM     26  C   UNL     1     109.033 129.677 135.900  0.00  0.00    +0.000 A 
ATOM     27  C   UNL     1     109.565 130.560 134.612  0.00  0.00    +0.000 A 
ATOM     28  C   UNL     1     108.598 130.326 135.637  0.00  0.00    +0.000 A 
ATOM     29  C   UNL     1     108.863 130.768 134.993  0.00  0.00    +0.000 A 
ENDBRANCH  12  24
TORSDOF 2
ENDMDL
