MODEL 1
REMARK VINA RESULT:     -10.3      0.000      0.000
REMARK  Name = 74977543
REMARK  6 active torsions:
REMARK  status: ('A' for Active; 'I' for Inactive)
REMARK    1  A    between atoms: O_15  and  C_42
REMARK    2  A    between atoms: C_16  and  C_26
REMARK    3  A    between atoms: C_18  and  C_27
REMARK    4  A    between atoms: C_24  and  C_29
REMARK    5  A    between atoms: C_25  and  C_32
REMARK    6  A    between atoms: C_33  and  C_37
REMARK                            x       y       z     vdW  Elec       q    Type
REMARK                         _______ _______ _______ _____ _____    ______ ____
ROOT
ATOM      1  O   UNL     1     111.881 127.897 136.001  0.00  0.00    +0.000 OA
ATOM      2  O   UNL     1     109.987 129.492 137.490  0.00  0.00    +0.000 OA
ATOM      3  O   UNL     1     110.291 129.905 134.615  0.00  0.00    +0.000 OA
ATOM      4  O   UNL     1     110.791 128.488 138.143  0.00  0.00    +0.000 OA
ATOM      5  C   UNL     1     111.729 127.699 137.408  0.00  0.00    +0.000 A 
ATOM      6  C   UNL     1     110.121 129.717 136.054  0.00  0.00    +0.000 A 
ATOM      7  C   UNL     1     110.944 128.686 136.736  0.00  0.00    +0.000 A 
ATOM      8  C   UNL     1     110.344 129.302 136.772  0.00  0.00    +0.000 A 
ATOM      9  C   UNL     1     111.154 128.291 137.429  0.00  0.00    +0.000 A 
ATOM     10  C   UNL     1     112.092 127.502 136.694  0.00  0.00    +0.000 A 
ATOM     11  C   UNL     1     111.308 128.489 136.022  0.00  0.00    +0.000 A 
ATOM     12  C   UNL     1     110.500 129.511 135.309  0.00  0.00    +0.000 A 
ATOM     13  C   UNL     1     111.097 128.894 135.294  0.00  0.00    +0.000 A 
ENDROOT
BRANCH   5  18
ATOM     14  O   UNL     1     112.599 127.550 138.532  0.00  0.00    +0.000 OA
ATOM     15  O   UNL     1     110.832 126.417 137.933  0.00  0.00    +0.000 OA
ATOM     16  O   UNL     1     111.253 125.629 139.320  0.00  0.00    +0.000 OA
ATOM     17  O   UNL     1     112.571 126.121 140.181  0.00  0.00    +0.000 OA
ATOM     18  C   UNL     1     111.939 127.304 138.101  0.00  0.00    +0.000 C 
ATOM     19  C   UNL     1     111.490 126.663 138.364  0.00  0.00    +0.000 C 
ATOM     20  C   UNL     1     111.702 126.269 139.057  0.00  0.00    +0.000 C 
ATOM     21  C   UNL     1     112.360 126.515 139.488  0.00  0.00    +0.000 C 
ATOM     22  C   UNL     1     112.809 127.156 139.225  0.00  0.00    +0.000 C 
BRANCH  22  24
ATOM     23  O   UNL     1     113.516 128.180 139.927  0.00  0.00    +0.000 OA
ATOM     24  C   UNL     1     113.469 127.402 139.656  0.00  0.00    +0.000 C 
ENDBRANCH  22  24
ENDBRANCH   5  18
BRANCH   6  29
ATOM     25  O   UNL     1     109.762 131.085 136.254  0.00  0.00    +0.000 OA
ATOM     26  O   UNL     1     108.542 129.347 135.749  0.00  0.00    +0.000 OA
ATOM     27  O   UNL     1     107.394 130.530 135.797  0.00  0.00    +0.000 OA
ATOM     28  O   UNL     1     107.823 132.084 136.149  0.00  0.00    +0.000 OA
ATOM     29  C   UNL     1     109.547 130.309 136.078  0.00  0.00    +0.000 C 
ATOM     30  C   UNL     1     108.757 130.124 135.925  0.00  0.00    +0.000 C 
ATOM     31  C   UNL     1     108.183 130.715 135.949  0.00  0.00    +0.000 C 
ATOM     32  C   UNL     1     108.398 131.492 136.125  0.00  0.00    +0.000 C 
ATOM     33  C   UNL     1     109.188 131.677 136.278  0.00  0.00    +0.000 C 
BRANCH  33  35
ATOM     34  O   UNL     1     110.199 132.668 136.474  0.00  0.00    +0.000 OA
ATOM     35  C   UNL     1     109.402 132.454 136.453  0.00  0.00    +0.000 C 
ENDBRANCH  33  35
ENDBRANCH   6  29
BRANCH  10  36
ATOM     36  C   UNL     1     112.666 126.910 136.673  0.00  0.00    +0.000 A 
ATOM     37  C   UNL     1     112.446 126.126 136.534  0.00  0.00    +0.000 A 
ATOM     38  C   UNL     1     113.460 127.101 136.791  0.00  0.00    +0.000 A 
ATOM     39  C   UNL     1     113.020 125.535 136.513  0.00  0.00    +0.000 A 
ATOM     40  C   UNL     1     114.034 126.508 136.771  0.00  0.00    +0.000 A 
ATOM     41  C   UNL     1     113.814 125.725 136.631  0.00  0.00    +0.000 A 
BRANCH  41  42
ATOM     42  O   UNL     1     114.388 125.133 136.611  0.00  0.00    +0.000 OA
ATOM     43  C   UNL     1     114.565 124.705 137.294  0.00  0.00    +0.000 C 
ENDBRANCH  41  42
ENDBRANCH  10  36
TORSDOF 6
ENDMDL
MODEL 2
REMARK VINA RESULT:     -10.1      1.722      2.613
REMARK  Name = 74977543
REMARK  6 active torsions:
REMARK  status: ('A' for Active; 'I' for Inactive)
REMARK    1  A    between atoms: O_15  and  C_42
REMARK    2  A    between atoms: C_16  and  C_26
REMARK    3  A    between atoms: C_18  and  C_27
REMARK    4  A    between atoms: C_24  and  C_29
REMARK    5  A    between atoms: C_25  and  C_32
REMARK    6  A    between atoms: C_33  and  C_37
REMARK                            x       y       z     vdW  Elec       q    Type
REMARK                         _______ _______ _______ _____ _____    ______ ____
ROOT
ATOM      1  O   UNL     1     113.175 128.430 137.606  0.00  0.00    +0.000 OA
ATOM      2  O   UNL     1     110.516 129.558 137.604  0.00  0.00    +0.000 OA
ATOM      3  O   UNL     1     112.806 131.240 138.277  0.00  0.00    +0.000 OA
ATOM      4  O   UNL     1     110.736 128.171 137.277  0.00  0.00    +0.000 OA
ATOM      5  C   UNL     1     112.051 127.611 137.278  0.00  0.00    +0.000 A 
ATOM      6  C   UNL     1     111.645 130.419 137.944  0.00  0.00    +0.000 A 
ATOM      7  C   UNL     1     111.861 128.989 137.606  0.00  0.00    +0.000 A 
ATOM      8  C   UNL     1     111.327 129.654 137.716  0.00  0.00    +0.000 A 
ATOM      9  C   UNL     1     111.549 128.257 137.387  0.00  0.00    +0.000 A 
ATOM     10  C   UNL     1     112.864 127.697 137.387  0.00  0.00    +0.000 A 
ATOM     11  C   UNL     1     112.674 129.075 137.715  0.00  0.00    +0.000 A 
ATOM     12  C   UNL     1     112.492 130.509 138.058  0.00  0.00    +0.000 A 
ATOM     13  C   UNL     1     113.010 129.833 137.943  0.00  0.00    +0.000 A 
ENDROOT
BRANCH   5  18
ATOM     14  O   UNL     1     111.594 126.305 137.633  0.00  0.00    +0.000 OA
ATOM     15  O   UNL     1     111.717 127.296 135.693  0.00  0.00    +0.000 OA
ATOM     16  O   UNL     1     111.093 125.832 135.256  0.00  0.00    +0.000 OA
ATOM     17  O   UNL     1     110.804 124.683 136.404  0.00  0.00    +0.000 OA
ATOM     18  C   UNL     1     111.739 126.880 137.059  0.00  0.00    +0.000 C 
ATOM     19  C   UNL     1     111.572 126.722 136.266  0.00  0.00    +0.000 C 
ATOM     20  C   UNL     1     111.260 125.990 136.049  0.00  0.00    +0.000 C 
ATOM     21  C   UNL     1     111.116 125.416 136.622  0.00  0.00    +0.000 C 
ATOM     22  C   UNL     1     111.282 125.573 137.415  0.00  0.00    +0.000 C 
BRANCH  22  24
ATOM     23  O   UNL     1     110.759 125.205 138.692  0.00  0.00    +0.000 OA
ATOM     24  C   UNL     1     111.137 124.998 137.989  0.00  0.00    +0.000 C 
ENDBRANCH  22  24
ENDBRANCH   5  18
BRANCH   6  29
ATOM     25  O   UNL     1     110.961 131.558 137.417  0.00  0.00    +0.000 OA
ATOM     26  O   UNL     1     110.995 130.717 139.431  0.00  0.00    +0.000 OA
ATOM     27  O   UNL     1     109.987 132.005 139.648  0.00  0.00    +0.000 OA
ATOM     28  O   UNL     1     109.628 132.995 138.378  0.00  0.00    +0.000 OA
ATOM     29  C   UNL     1     111.141 131.063 138.052  0.00  0.00    +0.000 C 
ATOM     30  C   UNL     1     110.816 131.212 138.796  0.00  0.00    +0.000 C 
ATOM     31  C   UNL     1     110.312 131.856 138.904  0.00  0.00    +0.000 C 
ATOM     32  C   UNL     1     110.133 132.351 138.269  0.00  0.00    +0.000 C 
ATOM     33  C   UNL     1     110.457 132.202 137.525  0.00  0.00    +0.000 C 
BRANCH  33  35
ATOM     34  O   UNL     1     110.051 132.374 136.166  0.00  0.00    +0.000 OA
ATOM     35  C   UNL     1     110.277 132.697 136.891  0.00  0.00    +0.000 C 
ENDBRANCH  33  35
ENDBRANCH   6  29
BRANCH  10  36
ATOM     36  C   UNL     1     113.365 127.052 137.278  0.00  0.00    +0.000 A 
ATOM     37  C   UNL     1     113.537 126.551 137.911  0.00  0.00    +0.000 A 
ATOM     38  C   UNL     1     113.696 126.907 136.536  0.00  0.00    +0.000 A 
ATOM     39  C   UNL     1     114.039 125.906 137.802  0.00  0.00    +0.000 A 
ATOM     40  C   UNL     1     114.198 126.261 136.427  0.00  0.00    +0.000 A 
ATOM     41  C   UNL     1     114.369 125.761 137.060  0.00  0.00    +0.000 A 
BRANCH  41  42
ATOM     42  O   UNL     1     114.871 125.114 136.950  0.00  0.00    +0.000 OA
ATOM     43  C   UNL     1     114.691 124.388 137.298  0.00  0.00    +0.000 C 
ENDBRANCH  41  42
ENDBRANCH  10  36
TORSDOF 6
ENDMDL
MODEL 3
REMARK VINA RESULT:     -10.0      8.563     10.723
REMARK  Name = 74977543
REMARK  6 active torsions:
REMARK  status: ('A' for Active; 'I' for Inactive)
REMARK    1  A    between atoms: O_15  and  C_42
REMARK    2  A    between atoms: C_16  and  C_26
REMARK    3  A    between atoms: C_18  and  C_27
REMARK    4  A    between atoms: C_24  and  C_29
REMARK    5  A    between atoms: C_25  and  C_32
REMARK    6  A    between atoms: C_33  and  C_37
REMARK                            x       y       z     vdW  Elec       q    Type
REMARK                         _______ _______ _______ _____ _____    ______ ____
ROOT
ATOM      1  O   UNL     1     105.666 126.867 144.821  0.00  0.00    +0.000 OA
ATOM      2  O   UNL     1     106.260 124.276 143.691  0.00  0.00    +0.000 OA
ATOM      3  O   UNL     1     105.698 126.535 141.928  0.00  0.00    +0.000 OA
ATOM      4  O   UNL     1     106.235 124.477 145.119  0.00  0.00    +0.000 OA
ATOM      5  C   UNL     1     105.942 125.759 145.680  0.00  0.00    +0.000 A 
ATOM      6  C   UNL     1     105.982 125.390 142.790  0.00  0.00    +0.000 A 
ATOM      7  C   UNL     1     105.960 125.586 144.261  0.00  0.00    +0.000 A 
ATOM      8  C   UNL     1     106.071 125.070 143.582  0.00  0.00    +0.000 A 
ATOM      9  C   UNL     1     106.046 125.274 145.020  0.00  0.00    +0.000 A 
ATOM     10  C   UNL     1     105.752 126.556 145.580  0.00  0.00    +0.000 A 
ATOM     11  C   UNL     1     105.770 126.383 144.162  0.00  0.00    +0.000 A 
ATOM     12  C   UNL     1     105.785 126.220 142.686  0.00  0.00    +0.000 A 
ATOM     13  C   UNL     1     105.678 126.720 143.376  0.00  0.00    +0.000 A 
ENDROOT
BRANCH   5  18
ATOM     14  O   UNL     1     105.362 125.201 146.861  0.00  0.00    +0.000 OA
ATOM     15  O   UNL     1     107.442 125.624 146.352  0.00  0.00    +0.000 OA
ATOM     16  O   UNL     1     107.613 124.999 147.870  0.00  0.00    +0.000 OA
ATOM     17  O   UNL     1     106.283 124.508 148.714  0.00  0.00    +0.000 OA
ATOM     18  C   UNL     1     106.028 125.446 146.438  0.00  0.00    +0.000 C 
ATOM     19  C   UNL     1     106.778 125.379 146.775  0.00  0.00    +0.000 C 
ATOM     20  C   UNL     1     106.863 125.066 147.533  0.00  0.00    +0.000 C 
ATOM     21  C   UNL     1     106.198 124.821 147.956  0.00  0.00    +0.000 C 
ATOM     22  C   UNL     1     105.448 124.888 147.619  0.00  0.00    +0.000 C 
BRANCH  22  24
ATOM     23  O   UNL     1     104.209 124.179 147.673  0.00  0.00    +0.000 OA
ATOM     24  C   UNL     1     104.782 124.643 148.042  0.00  0.00    +0.000 C 
ENDBRANCH  22  24
ENDBRANCH   5  18
BRANCH   6  29
ATOM     25  O   UNL     1     105.453 124.463 141.839  0.00  0.00    +0.000 OA
ATOM     26  O   UNL     1     107.459 125.296 142.059  0.00  0.00    +0.000 OA
ATOM     27  O   UNL     1     107.668 124.323 140.743  0.00  0.00    +0.000 OA
ATOM     28  O   UNL     1     106.401 123.442 140.158  0.00  0.00    +0.000 OA
ATOM     29  C   UNL     1     106.087 124.903 142.132  0.00  0.00    +0.000 C 
ATOM     30  C   UNL     1     106.825 124.856 141.766  0.00  0.00    +0.000 C 
ATOM     31  C   UNL     1     106.930 124.369 141.109  0.00  0.00    +0.000 C 
ATOM     32  C   UNL     1     106.296 123.929 140.816  0.00  0.00    +0.000 C 
ATOM     33  C   UNL     1     105.558 123.976 141.182  0.00  0.00    +0.000 C 
BRANCH  33  35
ATOM     34  O   UNL     1     104.517 123.017 141.385  0.00  0.00    +0.000 OA
ATOM     35  C   UNL     1     104.925 123.536 140.889  0.00  0.00    +0.000 C 
ENDBRANCH  33  35
ENDBRANCH   6  29
BRANCH  10  36
ATOM     36  C   UNL     1     105.648 127.040 146.240  0.00  0.00    +0.000 A 
ATOM     37  C   UNL     1     106.290 127.450 146.556  0.00  0.00    +0.000 A 
ATOM     38  C   UNL     1     104.902 127.114 146.583  0.00  0.00    +0.000 A 
ATOM     39  C   UNL     1     106.186 127.934 147.216  0.00  0.00    +0.000 A 
ATOM     40  C   UNL     1     104.797 127.599 147.243  0.00  0.00    +0.000 A 
ATOM     41  C   UNL     1     105.440 128.009 147.559  0.00  0.00    +0.000 A 
BRANCH  41  42
ATOM     42  O   UNL     1     105.335 128.494 148.219  0.00  0.00    +0.000 OA
ATOM     43  C   UNL     1     104.807 128.274 148.813  0.00  0.00    +0.000 C 
ENDBRANCH  41  42
ENDBRANCH  10  36
TORSDOF 6
ENDMDL
MODEL 4
REMARK VINA RESULT:     -10.0      2.602      4.846
REMARK  Name = 74977543
REMARK  6 active torsions:
REMARK  status: ('A' for Active; 'I' for Inactive)
REMARK    1  A    between atoms: O_15  and  C_42
REMARK    2  A    between atoms: C_16  and  C_26
REMARK    3  A    between atoms: C_18  and  C_27
REMARK    4  A    between atoms: C_24  and  C_29
REMARK    5  A    between atoms: C_25  and  C_32
REMARK    6  A    between atoms: C_33  and  C_37
REMARK                            x       y       z     vdW  Elec       q    Type
REMARK                         _______ _______ _______ _____ _____    ______ ____
ROOT
ATOM      1  O   UNL     1     113.006 126.395 138.913  0.00  0.00    +0.000 OA
ATOM      2  O   UNL     1     112.583 129.236 139.218  0.00  0.00    +0.000 OA
ATOM      3  O   UNL     1     114.280 127.808 141.117  0.00  0.00    +0.000 OA
ATOM      4  O   UNL     1     111.968 128.504 138.138  0.00  0.00    +0.000 OA
ATOM      5  C   UNL     1     112.176 127.098 137.986  0.00  0.00    +0.000 A 
ATOM      6  C   UNL     1     113.436 128.544 140.180  0.00  0.00    +0.000 A 
ATOM      7  C   UNL     1     112.797 127.800 139.065  0.00  0.00    +0.000 A 
ATOM      8  C   UNL     1     112.933 128.539 139.483  0.00  0.00    +0.000 A 
ATOM      9  C   UNL     1     112.314 127.801 138.396  0.00  0.00    +0.000 A 
ATOM     10  C   UNL     1     112.522 126.395 138.244  0.00  0.00    +0.000 A 
ATOM     11  C   UNL     1     113.143 127.097 139.323  0.00  0.00    +0.000 A 
ATOM     12  C   UNL     1     113.796 127.811 140.449  0.00  0.00    +0.000 A 
ATOM     13  C   UNL     1     113.649 127.083 140.018  0.00  0.00    +0.000 A 
ENDROOT
BRANCH   5  18
ATOM     14  O   UNL     1     110.897 126.886 137.384  0.00  0.00    +0.000 OA
ATOM     15  O   UNL     1     112.797 127.525 136.518  0.00  0.00    +0.000 OA
ATOM     16  O   UNL     1     111.828 127.527 135.182  0.00  0.00    +0.000 OA
ATOM     17  O   UNL     1     110.239 127.102 135.314  0.00  0.00    +0.000 OA
ATOM     18  C   UNL     1     111.693 127.099 137.318  0.00  0.00    +0.000 C 
ATOM     19  C   UNL     1     112.003 127.313 136.584  0.00  0.00    +0.000 C 
ATOM     20  C   UNL     1     111.518 127.314 135.916  0.00  0.00    +0.000 C 
ATOM     21  C   UNL     1     110.724 127.101 135.982  0.00  0.00    +0.000 C 
ATOM     22  C   UNL     1     110.414 126.888 136.716  0.00  0.00    +0.000 C 
BRANCH  22  24
ATOM     23  O   UNL     1     109.119 127.100 137.282  0.00  0.00    +0.000 OA
ATOM     24  C   UNL     1     109.619 126.675 136.782  0.00  0.00    +0.000 C 
ENDBRANCH  22  24
ENDBRANCH   5  18
BRANCH   6  29
ATOM     25  O   UNL     1     114.212 129.727 140.384  0.00  0.00    +0.000 OA
ATOM     26  O   UNL     1     112.427 128.995 141.405  0.00  0.00    +0.000 OA
ATOM     27  O   UNL     1     112.699 130.402 142.222  0.00  0.00    +0.000 OA
ATOM     28  O   UNL     1     113.979 131.360 141.814  0.00  0.00    +0.000 OA
ATOM     29  C   UNL     1     113.571 129.248 140.588  0.00  0.00    +0.000 C 
ATOM     30  C   UNL     1     113.067 129.473 141.201  0.00  0.00    +0.000 C 
ATOM     31  C   UNL     1     113.203 130.177 141.609  0.00  0.00    +0.000 C 
ATOM     32  C   UNL     1     113.843 130.656 141.405  0.00  0.00    +0.000 C 
ATOM     33  C   UNL     1     114.348 130.430 140.792  0.00  0.00    +0.000 C 
BRANCH  33  35
ATOM     34  O   UNL     1     115.710 130.568 140.382  0.00  0.00    +0.000 OA
ATOM     35  C   UNL     1     114.987 130.909 140.589  0.00  0.00    +0.000 C 
ENDBRANCH  33  35
ENDBRANCH   6  29
BRANCH  10  36
ATOM     36  C   UNL     1     112.385 125.693 137.834  0.00  0.00    +0.000 A 
ATOM     37  C   UNL     1     111.728 125.228 138.019  0.00  0.00    +0.000 A 
ATOM     38  C   UNL     1     112.903 125.455 137.238  0.00  0.00    +0.000 A 
ATOM     39  C   UNL     1     111.591 124.526 137.609  0.00  0.00    +0.000 A 
ATOM     40  C   UNL     1     112.766 124.752 136.827  0.00  0.00    +0.000 A 
ATOM     41  C   UNL     1     112.109 124.288 137.013  0.00  0.00    +0.000 A 
BRANCH  41  42
ATOM     42  O   UNL     1     111.972 123.586 136.602  0.00  0.00    +0.000 OA
ATOM     43  C   UNL     1     111.952 122.867 137.008  0.00  0.00    +0.000 C 
ENDBRANCH  41  42
ENDBRANCH  10  36
TORSDOF 6
ENDMDL
MODEL 5
REMARK VINA RESULT:     -10.0      2.576      4.859
REMARK  Name = 74977543
REMARK  6 active torsions:
REMARK  status: ('A' for Active; 'I' for Inactive)
REMARK    1  A    between atoms: O_15  and  C_42
REMARK    2  A    between atoms: C_16  and  C_26
REMARK    3  A    between atoms: C_18  and  C_27
REMARK    4  A    between atoms: C_24  and  C_29
REMARK    5  A    between atoms: C_25  and  C_32
REMARK    6  A    between atoms: C_33  and  C_37
REMARK                            x       y       z     vdW  Elec       q    Type
REMARK                         _______ _______ _______ _____ _____    ______ ____
ROOT
ATOM      1  O   UNL     1     113.267 126.645 138.891  0.00  0.00    +0.000 OA
ATOM      2  O   UNL     1     112.415 129.355 139.412  0.00  0.00    +0.000 OA
ATOM      3  O   UNL     1     114.415 128.105 141.133  0.00  0.00    +0.000 OA
ATOM      4  O   UNL     1     111.868 128.602 138.310  0.00  0.00    +0.000 OA
ATOM      5  C   UNL     1     112.289 127.261 138.051  0.00  0.00    +0.000 A 
ATOM      6  C   UNL     1     113.416 128.752 140.287  0.00  0.00    +0.000 A 
ATOM      7  C   UNL     1     112.846 127.985 139.149  0.00  0.00    +0.000 A 
ATOM      8  C   UNL     1     112.885 128.708 139.613  0.00  0.00    +0.000 A 
ATOM      9  C   UNL     1     112.334 127.950 138.504  0.00  0.00    +0.000 A 
ATOM     10  C   UNL     1     112.755 126.608 138.245  0.00  0.00    +0.000 A 
ATOM     11  C   UNL     1     113.313 127.332 139.343  0.00  0.00    +0.000 A 
ATOM     12  C   UNL     1     113.902 128.071 140.488  0.00  0.00    +0.000 A 
ATOM     13  C   UNL     1     113.850 127.358 140.013  0.00  0.00    +0.000 A 
ENDROOT
BRANCH   5  18
ATOM     14  O   UNL     1     111.027 126.890 137.492  0.00  0.00    +0.000 OA
ATOM     15  O   UNL     1     112.761 127.859 136.588  0.00  0.00    +0.000 OA
ATOM     16  O   UNL     1     111.736 127.787 135.297  0.00  0.00    +0.000 OA
ATOM     17  O   UNL     1     110.237 127.118 135.470  0.00  0.00    +0.000 OA
ATOM     18  C   UNL     1     111.776 127.225 137.406  0.00  0.00    +0.000 C 
ATOM     19  C   UNL     1     112.013 127.524 136.674  0.00  0.00    +0.000 C 
ATOM     20  C   UNL     1     111.499 127.488 136.029  0.00  0.00    +0.000 C 
ATOM     21  C   UNL     1     110.751 127.154 136.115  0.00  0.00    +0.000 C 
ATOM     22  C   UNL     1     110.514 126.855 136.847  0.00  0.00    +0.000 C 
BRANCH  22  24
ATOM     23  O   UNL     1     109.238 126.828 137.489  0.00  0.00    +0.000 OA
ATOM     24  C   UNL     1     109.765 126.520 136.933  0.00  0.00    +0.000 C 
ENDBRANCH  22  24
ENDBRANCH   5  18
BRANCH   6  29
ATOM     25  O   UNL     1     112.925 129.566 141.353  0.00  0.00    +0.000 OA
ATOM     26  O   UNL     1     114.573 129.881 139.956  0.00  0.00    +0.000 OA
ATOM     27  O   UNL     1     114.660 131.260 140.858  0.00  0.00    +0.000 OA
ATOM     28  O   UNL     1     113.592 131.511 142.089  0.00  0.00    +0.000 OA
ATOM     29  C   UNL     1     113.460 129.441 140.737  0.00  0.00    +0.000 C 
ATOM     30  C   UNL     1     114.038 130.006 140.572  0.00  0.00    +0.000 C 
ATOM     31  C   UNL     1     114.082 130.695 141.023  0.00  0.00    +0.000 C 
ATOM     32  C   UNL     1     113.547 130.820 141.639  0.00  0.00    +0.000 C 
ATOM     33  C   UNL     1     112.969 130.256 141.804  0.00  0.00    +0.000 C 
BRANCH  33  35
ATOM     34  O   UNL     1     112.132 129.740 142.841  0.00  0.00    +0.000 OA
ATOM     35  C   UNL     1     112.435 130.381 142.419  0.00  0.00    +0.000 C 
ENDBRANCH  33  35
ENDBRANCH   6  29
BRANCH  10  36
ATOM     36  C   UNL     1     112.709 125.920 137.792  0.00  0.00    +0.000 A 
ATOM     37  C   UNL     1     113.223 125.809 137.156  0.00  0.00    +0.000 A 
ATOM     38  C   UNL     1     112.149 125.343 137.976  0.00  0.00    +0.000 A 
ATOM     39  C   UNL     1     113.177 125.121 136.704  0.00  0.00    +0.000 A 
ATOM     40  C   UNL     1     112.103 124.654 137.523  0.00  0.00    +0.000 A 
ATOM     41  C   UNL     1     112.617 124.544 136.887  0.00  0.00    +0.000 A 
BRANCH  41  42
ATOM     42  O   UNL     1     112.571 123.855 136.435  0.00  0.00    +0.000 OA
ATOM     43  C   UNL     1     111.891 123.388 136.462  0.00  0.00    +0.000 C 
ENDBRANCH  41  42
ENDBRANCH  10  36
TORSDOF 6
ENDMDL
MODEL 6
REMARK VINA RESULT:     -10.0      1.712      5.652
REMARK  Name = 74977543
REMARK  6 active torsions:
REMARK  status: ('A' for Active; 'I' for Inactive)
REMARK    1  A    between atoms: O_15  and  C_42
REMARK    2  A    between atoms: C_16  and  C_26
REMARK    3  A    between atoms: C_18  and  C_27
REMARK    4  A    between atoms: C_24  and  C_29
REMARK    5  A    between atoms: C_25  and  C_32
REMARK    6  A    between atoms: C_33  and  C_37
REMARK                            x       y       z     vdW  Elec       q    Type
REMARK                         _______ _______ _______ _____ _____    ______ ____
ROOT
ATOM      1  O   UNL     1     110.156 128.136 135.388  0.00  0.00    +0.000 OA
ATOM      2  O   UNL     1     112.030 126.943 137.234  0.00  0.00    +0.000 OA
ATOM      3  O   UNL     1     110.850 125.322 135.111  0.00  0.00    +0.000 OA
ATOM      4  O   UNL     1     111.663 128.334 137.341  0.00  0.00    +0.000 OA
ATOM      5  C   UNL     1     110.736 128.926 136.428  0.00  0.00    +0.000 A 
ATOM      6  C   UNL     1     111.454 126.112 136.181  0.00  0.00    +0.000 A 
ATOM      7  C   UNL     1     111.082 127.545 136.300  0.00  0.00    +0.000 A 
ATOM      8  C   UNL     1     111.531 126.868 136.583  0.00  0.00    +0.000 A 
ATOM      9  C   UNL     1     111.161 128.268 136.690  0.00  0.00    +0.000 A 
ATOM     10  C   UNL     1     110.233 128.860 135.777  0.00  0.00    +0.000 A 
ATOM     11  C   UNL     1     110.580 127.479 135.649  0.00  0.00    +0.000 A 
ATOM     12  C   UNL     1     110.930 126.044 135.503  0.00  0.00    +0.000 A 
ATOM     13  C   UNL     1     110.490 126.731 135.235  0.00  0.00    +0.000 A 
ENDROOT
BRANCH   5  18
ATOM     14  O   UNL     1     110.262 129.870 137.391  0.00  0.00    +0.000 OA
ATOM     15  O   UNL     1     111.995 129.928 136.065  0.00  0.00    +0.000 OA
ATOM     16  O   UNL     1     112.150 131.373 136.846  0.00  0.00    +0.000 OA
ATOM     17  O   UNL     1     111.047 131.816 137.990  0.00  0.00    +0.000 OA
ATOM     18  C   UNL     1     110.814 129.648 136.818  0.00  0.00    +0.000 C 
ATOM     19  C   UNL     1     111.444 130.149 136.637  0.00  0.00    +0.000 C 
ATOM     20  C   UNL     1     111.521 130.872 137.028  0.00  0.00    +0.000 C 
ATOM     21  C   UNL     1     110.970 131.093 137.599  0.00  0.00    +0.000 C 
ATOM     22  C   UNL     1     110.340 130.592 137.781  0.00  0.00    +0.000 C 
BRANCH  22  24
ATOM     23  O   UNL     1     109.662 130.333 139.011  0.00  0.00    +0.000 OA
ATOM     24  C   UNL     1     109.788 130.814 138.353  0.00  0.00    +0.000 C 
ENDBRANCH  22  24
ENDBRANCH   5  18
BRANCH   6  29
ATOM     25  O   UNL     1     112.651 125.332 136.181  0.00  0.00    +0.000 OA
ATOM     26  O   UNL     1     110.762 125.049 137.237  0.00  0.00    +0.000 OA
ATOM     27  O   UNL     1     111.613 123.738 137.764  0.00  0.00    +0.000 OA
ATOM     28  O   UNL     1     113.156 123.489 137.236  0.00  0.00    +0.000 OA
ATOM     29  C   UNL     1     111.879 125.456 136.445  0.00  0.00    +0.000 C 
ATOM     30  C   UNL     1     111.533 124.925 136.973  0.00  0.00    +0.000 C 
ATOM     31  C   UNL     1     111.959 124.269 137.236  0.00  0.00    +0.000 C 
ATOM     32  C   UNL     1     112.731 124.145 136.972  0.00  0.00    +0.000 C 
ATOM     33  C   UNL     1     113.077 124.677 136.444  0.00  0.00    +0.000 C 
BRANCH  33  35
ATOM     34  O   UNL     1     114.369 125.187 136.112  0.00  0.00    +0.000 OA
ATOM     35  C   UNL     1     113.848 124.552 136.180  0.00  0.00    +0.000 C 
ENDBRANCH  33  35
ENDBRANCH   6  29
BRANCH  10  36
ATOM     36  C   UNL     1     109.809 129.517 135.516  0.00  0.00    +0.000 A 
ATOM     37  C   UNL     1     110.125 130.007 134.933  0.00  0.00    +0.000 A 
ATOM     38  C   UNL     1     109.068 129.684 135.839  0.00  0.00    +0.000 A 
ATOM     39  C   UNL     1     109.701 130.664 134.672  0.00  0.00    +0.000 A 
ATOM     40  C   UNL     1     108.643 130.342 135.577  0.00  0.00    +0.000 A 
ATOM     41  C   UNL     1     108.960 130.831 134.994  0.00  0.00    +0.000 A 
BRANCH  41  42
ATOM     42  O   UNL     1     108.535 131.489 134.733  0.00  0.00    +0.000 OA
ATOM     43  C   UNL     1     108.884 132.237 134.743  0.00  0.00    +0.000 C 
ENDBRANCH  41  42
ENDBRANCH  10  36
TORSDOF 6
ENDMDL
MODEL 7
REMARK VINA RESULT:      -9.9      1.403      2.012
REMARK  Name = 74977543
REMARK  6 active torsions:
REMARK  status: ('A' for Active; 'I' for Inactive)
REMARK    1  A    between atoms: O_15  and  C_42
REMARK    2  A    between atoms: C_16  and  C_26
REMARK    3  A    between atoms: C_18  and  C_27
REMARK    4  A    between atoms: C_24  and  C_29
REMARK    5  A    between atoms: C_25  and  C_32
REMARK    6  A    between atoms: C_33  and  C_37
REMARK                            x       y       z     vdW  Elec       q    Type
REMARK                         _______ _______ _______ _____ _____    ______ ____
ROOT
ATOM      1  O   UNL     1     110.095 126.731 136.445  0.00  0.00    +0.000 OA
ATOM      2  O   UNL     1     110.711 129.545 136.666  0.00  0.00    +0.000 OA
ATOM      3  O   UNL     1     108.063 128.703 135.765  0.00  0.00    +0.000 OA
ATOM      4  O   UNL     1     111.692 128.540 136.994  0.00  0.00    +0.000 OA
ATOM      5  C   UNL     1     111.389 127.147 136.885  0.00  0.00    +0.000 A 
ATOM      6  C   UNL     1     109.381 129.149 136.213  0.00  0.00    +0.000 A 
ATOM      7  C   UNL     1     110.398 128.122 136.553  0.00  0.00    +0.000 A 
ATOM      8  C   UNL     1     110.172 128.949 136.480  0.00  0.00    +0.000 A 
ATOM      9  C   UNL     1     111.160 127.937 136.811  0.00  0.00    +0.000 A 
ATOM     10  C   UNL     1     110.857 126.544 136.702  0.00  0.00    +0.000 A 
ATOM     11  C   UNL     1     109.866 127.519 136.370  0.00  0.00    +0.000 A 
ATOM     12  C   UNL     1     108.826 128.520 136.023  0.00  0.00    +0.000 A 
ATOM     13  C   UNL     1     109.070 127.701 136.102  0.00  0.00    +0.000 A 
ENDROOT
BRANCH   5  18
ATOM     14  O   UNL     1     112.286 126.787 137.937  0.00  0.00    +0.000 OA
ATOM     15  O   UNL     1     112.641 127.125 135.810  0.00  0.00    +0.000 OA
ATOM     16  O   UNL     1     114.164 126.754 136.326  0.00  0.00    +0.000 OA
ATOM     17  O   UNL     1     114.435 126.405 137.916  0.00  0.00    +0.000 OA
ATOM     18  C   UNL     1     112.151 126.962 137.142  0.00  0.00    +0.000 C 
ATOM     19  C   UNL     1     112.777 126.951 136.605  0.00  0.00    +0.000 C 
ATOM     20  C   UNL     1     113.538 126.765 136.863  0.00  0.00    +0.000 C 
ATOM     21  C   UNL     1     113.674 126.591 137.657  0.00  0.00    +0.000 C 
ATOM     22  C   UNL     1     113.047 126.602 138.195  0.00  0.00    +0.000 C 
BRANCH  22  24
ATOM     23  O   UNL     1     112.985 126.978 139.572  0.00  0.00    +0.000 OA
ATOM     24  C   UNL     1     113.183 126.428 138.990  0.00  0.00    +0.000 C 
ENDBRANCH  22  24
ENDBRANCH   5  18
BRANCH   6  29
ATOM     25  O   UNL     1     108.857 130.345 136.794  0.00  0.00    +0.000 OA
ATOM     26  O   UNL     1     109.521 129.916 134.759  0.00  0.00    +0.000 OA
ATOM     27  O   UNL     1     109.068 131.496 134.613  0.00  0.00    +0.000 OA
ATOM     28  O   UNL     1     108.475 132.309 135.920  0.00  0.00    +0.000 OA
ATOM     29  C   UNL     1     109.154 129.939 136.140  0.00  0.00    +0.000 C 
ATOM     30  C   UNL     1     109.224 130.322 135.413  0.00  0.00    +0.000 C 
ATOM     31  C   UNL     1     108.998 131.112 135.340  0.00  0.00    +0.000 C 
ATOM     32  C   UNL     1     108.701 131.519 135.994  0.00  0.00    +0.000 C 
ATOM     33  C   UNL     1     108.631 131.135 136.721  0.00  0.00    +0.000 C 
BRANCH  33  35
ATOM     34  O   UNL     1     108.254 131.157 138.099  0.00  0.00    +0.000 OA
ATOM     35  C   UNL     1     108.334 131.542 137.374  0.00  0.00    +0.000 C 
ENDBRANCH  33  35
ENDBRANCH   6  29
BRANCH  10  36
ATOM     36  C   UNL     1     111.086 125.756 136.776  0.00  0.00    +0.000 A 
ATOM     37  C   UNL     1     111.017 125.372 137.503  0.00  0.00    +0.000 A 
ATOM     38  C   UNL     1     111.384 125.350 136.122  0.00  0.00    +0.000 A 
ATOM     39  C   UNL     1     111.246 124.584 137.577  0.00  0.00    +0.000 A 
ATOM     40  C   UNL     1     111.613 124.560 136.196  0.00  0.00    +0.000 A 
ATOM     41  C   UNL     1     111.544 124.178 136.924  0.00  0.00    +0.000 A 
BRANCH  41  42
ATOM     42  O   UNL     1     111.774 123.388 136.997  0.00  0.00    +0.000 OA
ATOM     43  C   UNL     1     112.561 123.200 137.159  0.00  0.00    +0.000 C 
ENDBRANCH  41  42
ENDBRANCH  10  36
TORSDOF 6
ENDMDL
MODEL 8
REMARK VINA RESULT:      -9.7      7.875     10.175
REMARK  Name = 74977543
REMARK  6 active torsions:
REMARK  status: ('A' for Active; 'I' for Inactive)
REMARK    1  A    between atoms: O_15  and  C_42
REMARK    2  A    between atoms: C_16  and  C_26
REMARK    3  A    between atoms: C_18  and  C_27
REMARK    4  A    between atoms: C_24  and  C_29
REMARK    5  A    between atoms: C_25  and  C_32
REMARK    6  A    between atoms: C_33  and  C_37
REMARK                            x       y       z     vdW  Elec       q    Type
REMARK                         _______ _______ _______ _____ _____    ______ ____
ROOT
ATOM      1  O   UNL     1     105.659 124.684 143.311  0.00  0.00    +0.000 OA
ATOM      2  O   UNL     1     106.348 126.251 145.637  0.00  0.00    +0.000 OA
ATOM      3  O   UNL     1     104.954 123.706 145.961  0.00  0.00    +0.000 OA
ATOM      4  O   UNL     1     106.681 126.705 144.309  0.00  0.00    +0.000 OA
ATOM      5  C   UNL     1     106.340 125.931 143.157  0.00  0.00    +0.000 A 
ATOM      6  C   UNL     1     105.651 124.982 145.825  0.00  0.00    +0.000 A 
ATOM      7  C   UNL     1     105.999 125.458 144.462  0.00  0.00    +0.000 A 
ATOM      8  C   UNL     1     106.005 125.575 145.314  0.00  0.00    +0.000 A 
ATOM      9  C   UNL     1     106.340 126.032 143.977  0.00  0.00    +0.000 A 
ATOM     10  C   UNL     1     106.000 125.257 142.824  0.00  0.00    +0.000 A 
ATOM     11  C   UNL     1     105.658 124.785 144.129  0.00  0.00    +0.000 A 
ATOM     12  C   UNL     1     105.296 124.280 145.478  0.00  0.00    +0.000 A 
ATOM     13  C   UNL     1     105.300 124.181 144.625  0.00  0.00    +0.000 A 
ENDROOT
BRANCH   5  18
ATOM     14  O   UNL     1     107.457 126.409 142.405  0.00  0.00    +0.000 OA
ATOM     15  O   UNL     1     105.474 127.265 142.720  0.00  0.00    +0.000 OA
ATOM     16  O   UNL     1     106.158 128.411 141.749  0.00  0.00    +0.000 OA
ATOM     17  O   UNL     1     107.708 128.222 141.216  0.00  0.00    +0.000 OA
ATOM     18  C   UNL     1     106.682 126.504 142.672  0.00  0.00    +0.000 C 
ATOM     19  C   UNL     1     106.248 127.171 142.453  0.00  0.00    +0.000 C 
ATOM     20  C   UNL     1     106.591 127.744 141.968  0.00  0.00    +0.000 C 
ATOM     21  C   UNL     1     107.365 127.650 141.701  0.00  0.00    +0.000 C 
ATOM     22  C   UNL     1     107.798 126.982 141.920  0.00  0.00    +0.000 C 
BRANCH  22  24
ATOM     23  O   UNL     1     109.198 126.887 142.192  0.00  0.00    +0.000 OA
ATOM     24  C   UNL     1     108.574 126.888 141.653  0.00  0.00    +0.000 C 
ENDBRANCH  22  24
ENDBRANCH   5  18
BRANCH   6  29
ATOM     25  O   UNL     1     106.293 124.822 147.092  0.00  0.00    +0.000 OA
ATOM     26  O   UNL     1     104.372 125.716 146.565  0.00  0.00    +0.000 OA
ATOM     27  O   UNL     1     104.374 125.922 148.202  0.00  0.00    +0.000 OA
ATOM     28  O   UNL     1     105.655 125.396 149.099  0.00  0.00    +0.000 OA
ATOM     29  C   UNL     1     105.652 125.086 146.643  0.00  0.00    +0.000 C 
ATOM     30  C   UNL     1     105.013 125.452 147.014  0.00  0.00    +0.000 C 
ATOM     31  C   UNL     1     105.014 125.555 147.832  0.00  0.00    +0.000 C 
ATOM     32  C   UNL     1     105.654 125.292 148.280  0.00  0.00    +0.000 C 
ATOM     33  C   UNL     1     106.294 124.925 147.910  0.00  0.00    +0.000 C 
BRANCH  33  35
ATOM     34  O   UNL     1     107.702 124.734 148.066  0.00  0.00    +0.000 OA
ATOM     35  C   UNL     1     106.934 124.662 148.359  0.00  0.00    +0.000 C 
ENDBRANCH  33  35
ENDBRANCH   6  29
BRANCH  10  36
ATOM     36  C   UNL     1     106.000 125.157 142.006  0.00  0.00    +0.000 A 
ATOM     37  C   UNL     1     106.623 124.759 141.638  0.00  0.00    +0.000 A 
ATOM     38  C   UNL     1     105.377 125.453 141.554  0.00  0.00    +0.000 A 
ATOM     39  C   UNL     1     106.624 124.659 140.820  0.00  0.00    +0.000 A 
ATOM     40  C   UNL     1     105.377 125.353 140.734  0.00  0.00    +0.000 A 
ATOM     41  C   UNL     1     106.001 124.956 140.368  0.00  0.00    +0.000 A 
BRANCH  41  42
ATOM     42  O   UNL     1     106.001 124.855 139.548  0.00  0.00    +0.000 OA
ATOM     43  C   UNL     1     105.331 124.560 139.169  0.00  0.00    +0.000 C 
ENDBRANCH  41  42
ENDBRANCH  10  36
TORSDOF 6
ENDMDL
MODEL 9
REMARK VINA RESULT:      -9.7      2.595      4.722
REMARK  Name = 74977543
REMARK  6 active torsions:
REMARK  status: ('A' for Active; 'I' for Inactive)
REMARK    1  A    between atoms: O_15  and  C_42
REMARK    2  A    between atoms: C_16  and  C_26
REMARK    3  A    between atoms: C_18  and  C_27
REMARK    4  A    between atoms: C_24  and  C_29
REMARK    5  A    between atoms: C_25  and  C_32
REMARK    6  A    between atoms: C_33  and  C_37
REMARK                            x       y       z     vdW  Elec       q    Type
REMARK                         _______ _______ _______ _____ _____    ______ ____
ROOT
ATOM      1  O   UNL     1     113.503 127.867 139.338  0.00  0.00    +0.000 OA
ATOM      2  O   UNL     1     111.204 128.769 140.836  0.00  0.00    +0.000 OA
ATOM      3  O   UNL     1     113.860 129.787 141.498  0.00  0.00    +0.000 OA
ATOM      4  O   UNL     1     111.064 127.819 139.760  0.00  0.00    +0.000 OA
ATOM      5  C   UNL     1     112.201 127.372 139.017  0.00  0.00    +0.000 A 
ATOM      6  C   UNL     1     112.521 129.292 141.185  0.00  0.00    +0.000 A 
ATOM      7  C   UNL     1     112.367 128.314 140.079  0.00  0.00    +0.000 A 
ATOM      8  C   UNL     1     112.017 128.792 140.703  0.00  0.00    +0.000 A 
ATOM      9  C   UNL     1     111.877 127.835 139.619  0.00  0.00    +0.000 A 
ATOM     10  C   UNL     1     113.014 127.387 138.877  0.00  0.00    +0.000 A 
ATOM     11  C   UNL     1     113.180 128.329 139.938  0.00  0.00    +0.000 A 
ATOM     12  C   UNL     1     113.368 129.309 141.039  0.00  0.00    +0.000 A 
ATOM     13  C   UNL     1     113.699 128.824 140.411  0.00  0.00    +0.000 A 
ENDROOT
BRANCH   5  18
ATOM     14  O   UNL     1     111.439 127.164 137.827  0.00  0.00    +0.000 OA
ATOM     15  O   UNL     1     111.768 125.873 139.556  0.00  0.00    +0.000 OA
ATOM     16  O   UNL     1     110.788 124.917 138.635  0.00  0.00    +0.000 OA
ATOM     17  O   UNL     1     110.242 125.459 137.175  0.00  0.00    +0.000 OA
ATOM     18  C   UNL     1     111.712 126.893 138.557  0.00  0.00    +0.000 C 
ATOM     19  C   UNL     1     111.495 126.144 138.827  0.00  0.00    +0.000 C 
ATOM     20  C   UNL     1     111.005 125.666 138.365  0.00  0.00    +0.000 C 
ATOM     21  C   UNL     1     110.732 125.937 137.636  0.00  0.00    +0.000 C 
ATOM     22  C   UNL     1     110.949 126.686 137.367  0.00  0.00    +0.000 C 
BRANCH  22  24
ATOM     23  O   UNL     1     110.259 127.667 136.590  0.00  0.00    +0.000 OA
ATOM     24  C   UNL     1     110.676 126.957 136.636  0.00  0.00    +0.000 C 
ENDBRANCH  22  24
ENDBRANCH   5  18
BRANCH   6  29
ATOM     25  O   UNL     1     112.098 129.439 142.542  0.00  0.00    +0.000 OA
ATOM     26  O   UNL     1     112.063 130.846 140.874  0.00  0.00    +0.000 OA
ATOM     27  O   UNL     1     111.411 131.771 142.075  0.00  0.00    +0.000 OA
ATOM     28  O   UNL     1     111.216 131.141 143.588  0.00  0.00    +0.000 OA
ATOM     29  C   UNL     1     112.195 129.754 141.786  0.00  0.00    +0.000 C 
ATOM     30  C   UNL     1     111.966 130.531 141.630  0.00  0.00    +0.000 C 
ATOM     31  C   UNL     1     111.640 130.993 142.231  0.00  0.00    +0.000 C 
ATOM     32  C   UNL     1     111.542 130.678 142.987  0.00  0.00    +0.000 C 
ATOM     33  C   UNL     1     111.771 129.901 143.143  0.00  0.00    +0.000 C 
BRANCH  33  35
ATOM     34  O   UNL     1     111.649 128.770 144.007  0.00  0.00    +0.000 OA
ATOM     35  C   UNL     1     111.674 129.587 143.899  0.00  0.00    +0.000 C 
ENDBRANCH  33  35
ENDBRANCH   6  29
BRANCH  10  36
ATOM     36  C   UNL     1     113.337 126.925 138.276  0.00  0.00    +0.000 A 
ATOM     37  C   UNL     1     113.386 127.221 137.507  0.00  0.00    +0.000 A 
ATOM     38  C   UNL     1     113.612 126.165 138.443  0.00  0.00    +0.000 A 
ATOM     39  C   UNL     1     113.710 126.758 136.906  0.00  0.00    +0.000 A 
ATOM     40  C   UNL     1     113.935 125.701 137.841  0.00  0.00    +0.000 A 
ATOM     41  C   UNL     1     113.984 125.998 137.073  0.00  0.00    +0.000 A 
BRANCH  41  42
ATOM     42  O   UNL     1     114.308 125.534 136.472  0.00  0.00    +0.000 OA
ATOM     43  C   UNL     1     114.052 124.757 136.367  0.00  0.00    +0.000 C 
ENDBRANCH  41  42
ENDBRANCH  10  36
TORSDOF 6
ENDMDL
MODEL 10
REMARK VINA RESULT:      -9.6      2.391      4.435
REMARK  Name = 74977543
REMARK  6 active torsions:
REMARK  status: ('A' for Active; 'I' for Inactive)
REMARK    1  A    between atoms: O_15  and  C_42
REMARK    2  A    between atoms: C_16  and  C_26
REMARK    3  A    between atoms: C_18  and  C_27
REMARK    4  A    between atoms: C_24  and  C_29
REMARK    5  A    between atoms: C_25  and  C_32
REMARK    6  A    between atoms: C_33  and  C_37
REMARK                            x       y       z     vdW  Elec       q    Type
REMARK                         _______ _______ _______ _____ _____    ______ ____
ROOT
ATOM      1  O   UNL     1     111.680 128.615 137.220  0.00  0.00    +0.000 OA
ATOM      2  O   UNL     1     113.364 128.369 139.554  0.00  0.00    +0.000 OA
ATOM      3  O   UNL     1     112.459 131.007 138.687  0.00  0.00    +0.000 OA
ATOM      4  O   UNL     1     112.959 127.207 138.803  0.00  0.00    +0.000 OA
ATOM      5  C   UNL     1     112.125 127.327 137.647  0.00  0.00    +0.000 A 
ATOM      6  C   UNL     1     112.924 129.698 139.140  0.00  0.00    +0.000 A 
ATOM      7  C   UNL     1     112.513 128.495 138.374  0.00  0.00    +0.000 A 
ATOM      8  C   UNL     1     112.941 128.847 139.032  0.00  0.00    +0.000 A 
ATOM      9  C   UNL     1     112.532 127.676 138.275  0.00  0.00    +0.000 A 
ATOM     10  C   UNL     1     111.699 127.796 137.120  0.00  0.00    +0.000 A 
ATOM     11  C   UNL     1     112.086 128.964 137.846  0.00  0.00    +0.000 A 
ATOM     12  C   UNL     1     112.480 130.188 138.590  0.00  0.00    +0.000 A 
ATOM     13  C   UNL     1     112.058 129.819 137.939  0.00  0.00    +0.000 A 
ENDROOT
BRANCH   5  18
ATOM     14  O   UNL     1     112.684 126.170 137.022  0.00  0.00    +0.000 OA
ATOM     15  O   UNL     1     111.090 126.366 138.500  0.00  0.00    +0.000 OA
ATOM     16  O   UNL     1     111.131 124.729 138.302  0.00  0.00    +0.000 OA
ATOM     17  O   UNL     1     112.207 124.052 137.250  0.00  0.00    +0.000 OA
ATOM     18  C   UNL     1     112.145 126.508 137.548  0.00  0.00    +0.000 C 
ATOM     19  C   UNL     1     111.627 126.028 137.975  0.00  0.00    +0.000 C 
ATOM     20  C   UNL     1     111.648 125.209 137.875  0.00  0.00    +0.000 C 
ATOM     21  C   UNL     1     112.186 124.871 137.350  0.00  0.00    +0.000 C 
ATOM     22  C   UNL     1     112.704 125.351 136.923  0.00  0.00    +0.000 C 
BRANCH  22  24
ATOM     23  O   UNL     1     114.049 125.163 136.479  0.00  0.00    +0.000 OA
ATOM     24  C   UNL     1     113.242 125.012 136.397  0.00  0.00    +0.000 C 
ENDBRANCH  22  24
ENDBRANCH   5  18
BRANCH   6  29
ATOM     25  O   UNL     1     112.973 130.108 140.509  0.00  0.00    +0.000 OA
ATOM     26  O   UNL     1     114.457 130.267 138.915  0.00  0.00    +0.000 OA
ATOM     27  O   UNL     1     115.272 130.960 140.171  0.00  0.00    +0.000 OA
ATOM     28  O   UNL     1     114.556 131.085 141.652  0.00  0.00    +0.000 OA
ATOM     29  C   UNL     1     113.332 130.045 139.768  0.00  0.00    +0.000 C 
ATOM     30  C   UNL     1     114.098 130.329 139.656  0.00  0.00    +0.000 C 
ATOM     31  C   UNL     1     114.506 130.676 140.283  0.00  0.00    +0.000 C 
ATOM     32  C   UNL     1     114.148 130.738 141.024  0.00  0.00    +0.000 C 
ATOM     33  C   UNL     1     113.381 130.454 141.136  0.00  0.00    +0.000 C 
BRANCH  33  35
ATOM     34  O   UNL     1     112.202 130.478 141.944  0.00  0.00    +0.000 OA
ATOM     35  C   UNL     1     113.024 130.517 141.877  0.00  0.00    +0.000 C 
ENDBRANCH  33  35
ENDBRANCH   6  29
BRANCH  10  36
ATOM     36  C   UNL     1     111.292 127.447 136.493  0.00  0.00    +0.000 A 
ATOM     37  C   UNL     1     111.671 127.329 135.770  0.00  0.00    +0.000 A 
ATOM     38  C   UNL     1     110.506 127.216 136.590  0.00  0.00    +0.000 A 
ATOM     39  C   UNL     1     111.264 126.980 135.143  0.00  0.00    +0.000 A 
ATOM     40  C   UNL     1     110.099 126.866 135.962  0.00  0.00    +0.000 A 
ATOM     41  C   UNL     1     110.478 126.748 135.240  0.00  0.00    +0.000 A 
BRANCH  41  42
ATOM     42  O   UNL     1     110.071 126.399 134.612  0.00  0.00    +0.000 OA
ATOM     43  C   UNL     1     109.725 125.656 134.708  0.00  0.00    +0.000 C 
ENDBRANCH  41  42
ENDBRANCH  10  36
TORSDOF 6
ENDMDL
