MODEL 1
REMARK VINA RESULT:      -9.2      0.000      0.000
REMARK  Name = 5281602
REMARK  8 active torsions:
REMARK  status: ('A' for Active; 'I' for Inactive)
REMARK    1  A    between atoms: O_2  and  C_18
REMARK    2  A    between atoms: O_2  and  C_20
REMARK    3  A    between atoms: O_6  and  C_19
REMARK    4  A    between atoms: O_6  and  C_23
REMARK    5  A    between atoms: C_16  and  C_19
REMARK    6  A    between atoms: C_23  and  C_27
REMARK    7  A    between atoms: C_27  and  C_32
REMARK    8  A    between atoms: C_29  and  C_31
REMARK                            x       y       z     vdW  Elec       q    Type
REMARK                         _______ _______ _______ _____ _____    ______ ____
ROOT
ATOM      1  O   UNL     1     111.665 125.955 136.972  0.00  0.00    +0.000 OA
ATOM      2  O   UNL     1     109.275 126.235 138.573  0.00  0.00    +0.000 OA
ATOM      3  O   UNL     1     110.432 125.534 139.077  0.00  0.00    +0.000 OA
ATOM      4  C   UNL     1     109.726 126.963 136.503  0.00  0.00    +0.000 A 
ATOM      5  C   UNL     1     110.530 126.670 136.416  0.00  0.00    +0.000 A 
ATOM      6  C   UNL     1     109.299 126.817 137.233  0.00  0.00    +0.000 A 
ATOM      7  C   UNL     1     110.894 126.234 137.061  0.00  0.00    +0.000 A 
ATOM      8  C   UNL     1     110.483 126.094 137.762  0.00  0.00    +0.000 A 
ATOM      9  C   UNL     1     109.679 126.380 137.867  0.00  0.00    +0.000 A 
ATOM     10  C   UNL     1     110.843 125.675 138.375  0.00  0.00    +0.000 A 
ATOM     11  C   UNL     1     112.025 125.536 137.584  0.00  0.00    +0.000 A 
ATOM     12  C   UNL     1     111.614 125.396 138.286  0.00  0.00    +0.000 A 
ENDROOT
BRANCH  11  14
ATOM     13  O   UNL     1     115.110 124.420 137.229  0.00  0.00    +0.000 OA
ATOM     14  C   UNL     1     112.797 125.257 137.496  0.00  0.00    +0.000 A 
ATOM     15  C   UNL     1     112.938 124.562 137.073  0.00  0.00    +0.000 A 
ATOM     16  C   UNL     1     113.426 125.672 137.830  0.00  0.00    +0.000 A 
ATOM     17  C   UNL     1     113.709 124.284 136.985  0.00  0.00    +0.000 A 
ATOM     18  C   UNL     1     114.198 125.393 137.741  0.00  0.00    +0.000 A 
ATOM     19  C   UNL     1     114.339 124.699 137.318  0.00  0.00    +0.000 A 
ENDBRANCH  11  14
BRANCH   4  20
ATOM     20  O   UNL     1     109.369 127.383 135.888  0.00  0.00    +0.000 OA
BRANCH  20  29
ATOM     21  O   UNL     1     110.174 128.563 135.900  0.00  0.00    +0.000 OA
ATOM     22  O   UNL     1     109.623 130.671 135.768  0.00  0.00    +0.000 OA
ATOM     23  O   UNL     1     108.139 129.954 135.686  0.00  0.00    +0.000 OA
ATOM     24  O   UNL     1     108.012 128.310 135.746  0.00  0.00    +0.000 OA
ATOM     25  C   UNL     1     109.559 129.848 135.798  0.00  0.00    +0.000 C 
ATOM     26  C   UNL     1     108.817 129.490 135.757  0.00  0.00    +0.000 C 
ATOM     27  C   UNL     1     110.238 129.384 135.869  0.00  0.00    +0.000 C 
ATOM     28  C   UNL     1     108.754 128.668 135.787  0.00  0.00    +0.000 C 
ATOM     29  C   UNL     1     109.432 128.204 135.858  0.00  0.00    +0.000 C 
BRANCH  27  30
ATOM     30  C   UNL     1     110.980 129.743 135.911  0.00  0.00    +0.000 C 
BRANCH  30  31
ATOM     31  O   UNL     1     111.659 129.309 135.738  0.00  0.00    +0.000 OA
BRANCH  31  33
ATOM     32  O   UNL     1     112.535 130.155 136.484  0.00  0.00    +0.000 OA
ATOM     33  C   UNL     1     112.404 129.645 135.849  0.00  0.00    +0.000 C 
BRANCH  33  34
ATOM     34  C   UNL     1     113.018 129.471 135.327  0.00  0.00    +0.000 C 
BRANCH  34  37
ATOM     35  O   UNL     1     114.367 129.662 135.759  0.00  0.00    +0.000 OA
ATOM     36  O   UNL     1     113.798 128.352 135.751  0.00  0.00    +0.000 OA
ATOM     37  C   UNL     1     113.727 129.162 135.612  0.00  0.00    +0.000 C 
ENDBRANCH  34  37
ENDBRANCH  33  34
ENDBRANCH  31  33
ENDBRANCH  30  31
ENDBRANCH  27  30
ENDBRANCH  20  29
ENDBRANCH   4  20
TORSDOF 8
ENDMDL
MODEL 2
REMARK VINA RESULT:      -9.1      1.781      3.312
REMARK  Name = 5281602
REMARK  8 active torsions:
REMARK  status: ('A' for Active; 'I' for Inactive)
REMARK    1  A    between atoms: O_2  and  C_18
REMARK    2  A    between atoms: O_2  and  C_20
REMARK    3  A    between atoms: O_6  and  C_19
REMARK    4  A    between atoms: O_6  and  C_23
REMARK    5  A    between atoms: C_16  and  C_19
REMARK    6  A    between atoms: C_23  and  C_27
REMARK    7  A    between atoms: C_27  and  C_32
REMARK    8  A    between atoms: C_29  and  C_31
REMARK                            x       y       z     vdW  Elec       q    Type
REMARK                         _______ _______ _______ _____ _____    ______ ____
ROOT
ATOM      1  O   UNL     1     112.876 127.265 136.039  0.00  0.00    +0.000 OA
ATOM      2  O   UNL     1     113.453 129.992 135.273  0.00  0.00    +0.000 OA
ATOM      3  O   UNL     1     114.461 129.161 135.884  0.00  0.00    +0.000 OA
ATOM      4  C   UNL     1     111.563 128.802 135.084  0.00  0.00    +0.000 A 
ATOM      5  C   UNL     1     111.824 128.058 135.427  0.00  0.00    +0.000 A 
ATOM      6  C   UNL     1     112.114 129.459 135.031  0.00  0.00    +0.000 A 
ATOM      7  C   UNL     1     112.632 127.982 135.711  0.00  0.00    +0.000 A 
ATOM      8  C   UNL     1     113.160 128.614 135.659  0.00  0.00    +0.000 A 
ATOM      9  C   UNL     1     112.917 129.365 135.320  0.00  0.00    +0.000 A 
ATOM     10  C   UNL     1     113.932 128.529 135.935  0.00  0.00    +0.000 A 
ATOM     11  C   UNL     1     113.649 127.181 136.315  0.00  0.00    +0.000 A 
ATOM     12  C   UNL     1     114.177 127.812 136.263  0.00  0.00    +0.000 A 
ENDROOT
BRANCH  11  14
ATOM     13  O   UNL     1     114.628 124.315 137.627  0.00  0.00    +0.000 OA
ATOM     14  C   UNL     1     113.894 126.464 136.643  0.00  0.00    +0.000 A 
ATOM     15  C   UNL     1     114.360 125.946 136.201  0.00  0.00    +0.000 A 
ATOM     16  C   UNL     1     113.672 126.266 137.413  0.00  0.00    +0.000 A 
ATOM     17  C   UNL     1     114.604 125.230 136.529  0.00  0.00    +0.000 A 
ATOM     18  C   UNL     1     113.917 125.550 137.741  0.00  0.00    +0.000 A 
ATOM     19  C   UNL     1     114.383 125.032 137.299  0.00  0.00    +0.000 A 
ENDBRANCH  11  14
BRANCH   4  20
ATOM     20  O   UNL     1     110.790 128.884 134.809  0.00  0.00    +0.000 OA
BRANCH  20  29
ATOM     21  O   UNL     1     110.256 129.623 135.909  0.00  0.00    +0.000 OA
ATOM     22  O   UNL     1     108.335 129.470 136.935  0.00  0.00    +0.000 OA
ATOM     23  O   UNL     1     108.176 128.285 135.798  0.00  0.00    +0.000 OA
ATOM     24  O   UNL     1     109.404 127.992 134.735  0.00  0.00    +0.000 OA
ATOM     25  C   UNL     1     108.950 129.323 136.403  0.00  0.00    +0.000 C 
ATOM     26  C   UNL     1     108.869 128.731 135.835  0.00  0.00    +0.000 C 
ATOM     27  C   UNL     1     109.643 129.769 136.441  0.00  0.00    +0.000 C 
ATOM     28  C   UNL     1     109.484 128.584 135.303  0.00  0.00    +0.000 C 
ATOM     29  C   UNL     1     110.177 129.030 135.340  0.00  0.00    +0.000 C 
BRANCH  27  30
ATOM     30  C   UNL     1     109.721 130.362 137.010  0.00  0.00    +0.000 C 
BRANCH  30  31
ATOM     31  O   UNL     1     110.001 131.107 136.794  0.00  0.00    +0.000 OA
BRANCH  31  33
ATOM     32  O   UNL     1     110.674 131.476 137.999  0.00  0.00    +0.000 OA
ATOM     33  C   UNL     1     110.170 131.668 137.374  0.00  0.00    +0.000 C 
BRANCH  33  34
ATOM     34  C   UNL     1     109.837 132.421 137.331  0.00  0.00    +0.000 C 
BRANCH  34  37
ATOM     35  O   UNL     1     110.725 133.439 136.864  0.00  0.00    +0.000 OA
ATOM     36  O   UNL     1     110.339 133.402 138.239  0.00  0.00    +0.000 OA
ATOM     37  C   UNL     1     110.300 133.087 137.478  0.00  0.00    +0.000 C 
ENDBRANCH  34  37
ENDBRANCH  33  34
ENDBRANCH  31  33
ENDBRANCH  30  31
ENDBRANCH  27  30
ENDBRANCH  20  29
ENDBRANCH   4  20
TORSDOF 8
ENDMDL
MODEL 3
REMARK VINA RESULT:      -9.1      1.744      3.821
REMARK  Name = 5281602
REMARK  8 active torsions:
REMARK  status: ('A' for Active; 'I' for Inactive)
REMARK    1  A    between atoms: O_2  and  C_18
REMARK    2  A    between atoms: O_2  and  C_20
REMARK    3  A    between atoms: O_6  and  C_19
REMARK    4  A    between atoms: O_6  and  C_23
REMARK    5  A    between atoms: C_16  and  C_19
REMARK    6  A    between atoms: C_23  and  C_27
REMARK    7  A    between atoms: C_27  and  C_32
REMARK    8  A    between atoms: C_29  and  C_31
REMARK                            x       y       z     vdW  Elec       q    Type
REMARK                         _______ _______ _______ _____ _____    ______ ____
ROOT
ATOM      1  O   UNL     1     111.722 126.780 135.914  0.00  0.00    +0.000 OA
ATOM      2  O   UNL     1     109.739 128.626 134.909  0.00  0.00    +0.000 OA
ATOM      3  O   UNL     1     109.362 127.325 135.404  0.00  0.00    +0.000 OA
ATOM      4  C   UNL     1     111.962 128.842 135.086  0.00  0.00    +0.000 A 
ATOM      5  C   UNL     1     112.157 128.077 135.427  0.00  0.00    +0.000 A 
ATOM      6  C   UNL     1     111.143 129.031 134.910  0.00  0.00    +0.000 A 
ATOM      7  C   UNL     1     111.529 127.512 135.587  0.00  0.00    +0.000 A 
ATOM      8  C   UNL     1     110.743 127.694 135.417  0.00  0.00    +0.000 A 
ATOM      9  C   UNL     1     110.529 128.453 135.076  0.00  0.00    +0.000 A 
ATOM     10  C   UNL     1     110.149 127.143 135.574  0.00  0.00    +0.000 A 
ATOM     11  C   UNL     1     111.128 126.229 136.071  0.00  0.00    +0.000 A 
ATOM     12  C   UNL     1     110.342 126.411 135.901  0.00  0.00    +0.000 A 
ENDROOT
BRANCH  11  14
ATOM     13  O   UNL     1     111.899 123.300 137.380  0.00  0.00    +0.000 OA
ATOM     14  C   UNL     1     111.321 125.497 136.398  0.00  0.00    +0.000 A 
ATOM     15  C   UNL     1     111.488 124.856 135.906  0.00  0.00    +0.000 A 
ATOM     16  C   UNL     1     111.347 125.406 137.218  0.00  0.00    +0.000 A 
ATOM     17  C   UNL     1     111.680 124.124 136.234  0.00  0.00    +0.000 A 
ATOM     18  C   UNL     1     111.540 124.673 137.546  0.00  0.00    +0.000 A 
ATOM     19  C   UNL     1     111.706 124.032 137.053  0.00  0.00    +0.000 A 
ENDBRANCH  11  14
BRANCH   4  20
ATOM     20  O   UNL     1     112.558 129.391 134.930  0.00  0.00    +0.000 OA
BRANCH  20  29
ATOM     21  O   UNL     1     112.445 130.185 136.113  0.00  0.00    +0.000 OA
ATOM     22  O   UNL     1     113.976 131.039 137.413  0.00  0.00    +0.000 OA
ATOM     23  O   UNL     1     114.912 130.275 136.289  0.00  0.00    +0.000 OA
ATOM     24  O   UNL     1     114.203 129.451 135.047  0.00  0.00    +0.000 OA
ATOM     25  C   UNL     1     113.621 130.627 136.792  0.00  0.00    +0.000 C 
ATOM     26  C   UNL     1     114.089 130.245 136.230  0.00  0.00    +0.000 C 
ATOM     27  C   UNL     1     112.799 130.596 136.733  0.00  0.00    +0.000 C 
ATOM     28  C   UNL     1     113.734 129.833 135.609  0.00  0.00    +0.000 C 
ATOM     29  C   UNL     1     112.912 129.803 135.550  0.00  0.00    +0.000 C 
BRANCH  27  30
ATOM     30  C   UNL     1     112.331 130.978 137.296  0.00  0.00    +0.000 C 
BRANCH  30  31
ATOM     31  O   UNL     1     111.635 131.355 137.067  0.00  0.00    +0.000 OA
BRANCH  31  33
ATOM     32  O   UNL     1     111.115 131.472 138.393  0.00  0.00    +0.000 OA
ATOM     33  C   UNL     1     111.183 131.764 137.624  0.00  0.00    +0.000 C 
BRANCH  33  34
ATOM     34  C   UNL     1     110.801 132.463 137.413  0.00  0.00    +0.000 C 
BRANCH  34  37
ATOM     35  O   UNL     1     110.156 133.223 138.437  0.00  0.00    +0.000 OA
ATOM     36  O   UNL     1     109.383 132.391 137.569  0.00  0.00    +0.000 OA
ATOM     37  C   UNL     1     110.114 132.692 137.807  0.00  0.00    +0.000 C 
ENDBRANCH  34  37
ENDBRANCH  33  34
ENDBRANCH  31  33
ENDBRANCH  30  31
ENDBRANCH  27  30
ENDBRANCH  20  29
ENDBRANCH   4  20
TORSDOF 8
ENDMDL
MODEL 4
REMARK VINA RESULT:      -9.0      1.611      2.804
REMARK  Name = 5281602
REMARK  8 active torsions:
REMARK  status: ('A' for Active; 'I' for Inactive)
REMARK    1  A    between atoms: O_2  and  C_18
REMARK    2  A    between atoms: O_2  and  C_20
REMARK    3  A    between atoms: O_6  and  C_19
REMARK    4  A    between atoms: O_6  and  C_23
REMARK    5  A    between atoms: C_16  and  C_19
REMARK    6  A    between atoms: C_23  and  C_27
REMARK    7  A    between atoms: C_27  and  C_32
REMARK    8  A    between atoms: C_29  and  C_31
REMARK                            x       y       z     vdW  Elec       q    Type
REMARK                         _______ _______ _______ _____ _____    ______ ____
ROOT
ATOM      1  O   UNL     1     112.273 126.509 136.224  0.00  0.00    +0.000 OA
ATOM      2  O   UNL     1     109.772 125.755 134.988  0.00  0.00    +0.000 OA
ATOM      3  O   UNL     1     110.681 124.758 135.499  0.00  0.00    +0.000 OA
ATOM      4  C   UNL     1     110.660 127.781 135.342  0.00  0.00    +0.000 A 
ATOM      5  C   UNL     1     111.395 127.554 135.727  0.00  0.00    +0.000 A 
ATOM      6  C   UNL     1     110.108 127.173 135.091  0.00  0.00    +0.000 A 
ATOM      7  C   UNL     1     111.566 126.722 135.855  0.00  0.00    +0.000 A 
ATOM      8  C   UNL     1     111.036 126.138 135.613  0.00  0.00    +0.000 A 
ATOM      9  C   UNL     1     110.297 126.346 135.227  0.00  0.00    +0.000 A 
ATOM     10  C   UNL     1     111.211 125.342 135.741  0.00  0.00    +0.000 A 
ATOM     11  C   UNL     1     112.448 125.713 136.352  0.00  0.00    +0.000 A 
ATOM     12  C   UNL     1     111.918 125.130 136.110  0.00  0.00    +0.000 A 
ENDROOT
BRANCH  11  14
ATOM     13  O   UNL     1     115.273 124.864 137.832  0.00  0.00    +0.000 OA
ATOM     14  C   UNL     1     113.155 125.501 136.722  0.00  0.00    +0.000 A 
ATOM     15  C   UNL     1     113.785 125.215 136.274  0.00  0.00    +0.000 A 
ATOM     16  C   UNL     1     113.230 125.575 137.541  0.00  0.00    +0.000 A 
ATOM     17  C   UNL     1     114.491 125.003 136.644  0.00  0.00    +0.000 A 
ATOM     18  C   UNL     1     113.936 125.362 137.911  0.00  0.00    +0.000 A 
ATOM     19  C   UNL     1     114.567 125.076 137.462  0.00  0.00    +0.000 A 
ENDBRANCH  11  14
BRANCH   4  20
ATOM     20  O   UNL     1     110.487 128.578 135.216  0.00  0.00    +0.000 OA
BRANCH  20  29
ATOM     21  O   UNL     1     110.002 128.827 136.537  0.00  0.00    +0.000 OA
ATOM     22  O   UNL     1     108.432 130.164 137.254  0.00  0.00    +0.000 OA
ATOM     23  O   UNL     1     108.375 130.458 135.631  0.00  0.00    +0.000 OA
ATOM     24  O   UNL     1     109.403 129.665 134.612  0.00  0.00    +0.000 OA
ATOM     25  C   UNL     1     108.946 129.767 136.744  0.00  0.00    +0.000 C 
ATOM     26  C   UNL     1     108.917 129.915 135.933  0.00  0.00    +0.000 C 
ATOM     27  C   UNL     1     109.488 129.223 137.046  0.00  0.00    +0.000 C 
ATOM     28  C   UNL     1     109.432 129.518 135.423  0.00  0.00    +0.000 C 
ATOM     29  C   UNL     1     109.974 128.974 135.725  0.00  0.00    +0.000 C 
BRANCH  27  30
ATOM     30  C   UNL     1     109.516 129.076 137.857  0.00  0.00    +0.000 C 
BRANCH  30  31
ATOM     31  O   UNL     1     109.485 128.302 138.138  0.00  0.00    +0.000 OA
BRANCH  31  33
ATOM     32  O   UNL     1     109.284 128.568 139.527  0.00  0.00    +0.000 OA
ATOM     33  C   UNL     1     109.658 128.142 138.929  0.00  0.00    +0.000 C 
BRANCH  33  34
ATOM     34  C   UNL     1     110.205 127.555 139.121  0.00  0.00    +0.000 C 
BRANCH  34  37
ATOM     35  O   UNL     1     109.891 126.173 138.942  0.00  0.00    +0.000 OA
ATOM     36  O   UNL     1     109.747 126.779 140.228  0.00  0.00    +0.000 OA
ATOM     37  C   UNL     1     109.948 126.836 139.430  0.00  0.00    +0.000 C 
ENDBRANCH  34  37
ENDBRANCH  33  34
ENDBRANCH  31  33
ENDBRANCH  30  31
ENDBRANCH  27  30
ENDBRANCH  20  29
ENDBRANCH   4  20
TORSDOF 8
ENDMDL
MODEL 5
REMARK VINA RESULT:      -8.9      1.307      1.792
REMARK  Name = 5281602
REMARK  8 active torsions:
REMARK  status: ('A' for Active; 'I' for Inactive)
REMARK    1  A    between atoms: O_2  and  C_18
REMARK    2  A    between atoms: O_2  and  C_20
REMARK    3  A    between atoms: O_6  and  C_19
REMARK    4  A    between atoms: O_6  and  C_23
REMARK    5  A    between atoms: C_16  and  C_19
REMARK    6  A    between atoms: C_23  and  C_27
REMARK    7  A    between atoms: C_27  and  C_32
REMARK    8  A    between atoms: C_29  and  C_31
REMARK                            x       y       z     vdW  Elec       q    Type
REMARK                         _______ _______ _______ _____ _____    ______ ____
ROOT
ATOM      1  O   UNL     1     110.966 126.160 136.744  0.00  0.00    +0.000 OA
ATOM      2  O   UNL     1     108.786 126.858 134.981  0.00  0.00    +0.000 OA
ATOM      3  O   UNL     1     109.589 125.683 134.743  0.00  0.00    +0.000 OA
ATOM      4  C   UNL     1     109.546 127.884 136.822  0.00  0.00    +0.000 A 
ATOM      5  C   UNL     1     110.190 127.354 137.030  0.00  0.00    +0.000 A 
ATOM      6  C   UNL     1     109.068 127.718 136.128  0.00  0.00    +0.000 A 
ATOM      7  C   UNL     1     110.347 126.666 136.540  0.00  0.00    +0.000 A 
ATOM      8  C   UNL     1     109.888 126.507 135.873  0.00  0.00    +0.000 A 
ATOM      9  C   UNL     1     109.240 127.025 135.650  0.00  0.00    +0.000 A 
ATOM     10  C   UNL     1     110.048 125.843 135.411  0.00  0.00    +0.000 A 
ATOM     11  C   UNL     1     111.127 125.496 136.281  0.00  0.00    +0.000 A 
ATOM     12  C   UNL     1     110.667 125.337 135.615  0.00  0.00    +0.000 A 
ENDROOT
BRANCH  11  14
ATOM     13  O   UNL     1     113.604 123.475 137.097  0.00  0.00    +0.000 OA
ATOM     14  C   UNL     1     111.746 124.991 136.486  0.00  0.00    +0.000 A 
ATOM     15  C   UNL     1     111.590 124.291 136.894  0.00  0.00    +0.000 A 
ATOM     16  C   UNL     1     112.521 125.186 136.281  0.00  0.00    +0.000 A 
ATOM     17  C   UNL     1     112.210 123.786 137.098  0.00  0.00    +0.000 A 
ATOM     18  C   UNL     1     113.141 124.680 136.485  0.00  0.00    +0.000 A 
ATOM     19  C   UNL     1     112.985 123.981 136.893  0.00  0.00    +0.000 A 
ENDBRANCH  11  14
BRANCH   4  20
ATOM     20  O   UNL     1     109.388 128.548 137.286  0.00  0.00    +0.000 OA
BRANCH  20  29
ATOM     21  O   UNL     1     110.416 129.377 136.740  0.00  0.00    +0.000 OA
ATOM     22  O   UNL     1     110.458 131.521 136.334  0.00  0.00    +0.000 OA
ATOM     23  O   UNL     1     108.937 131.350 136.951  0.00  0.00    +0.000 OA
ATOM     24  O   UNL     1     108.402 129.863 137.427  0.00  0.00    +0.000 OA
ATOM     25  C   UNL     1     110.190 130.777 136.572  0.00  0.00    +0.000 C 
ATOM     26  C   UNL     1     109.430 130.692 136.881  0.00  0.00    +0.000 C 
ATOM     27  C   UNL     1     110.683 130.119 136.502  0.00  0.00    +0.000 C 
ATOM     28  C   UNL     1     109.163 129.948 137.119  0.00  0.00    +0.000 C 
ATOM     29  C   UNL     1     109.656 129.290 137.048  0.00  0.00    +0.000 C 
BRANCH  27  30
ATOM     30  C   UNL     1     111.444 130.205 136.193  0.00  0.00    +0.000 C 
BRANCH  30  31
ATOM     31  O   UNL     1     112.021 129.639 136.353  0.00  0.00    +0.000 OA
BRANCH  31  33
ATOM     32  O   UNL     1     113.240 130.350 136.132  0.00  0.00    +0.000 OA
ATOM     33  C   UNL     1     112.763 129.692 135.995  0.00  0.00    +0.000 C 
BRANCH  33  34
ATOM     34  C   UNL     1     113.026 129.088 135.500  0.00  0.00    +0.000 C 
BRANCH  34  37
ATOM     35  O   UNL     1     114.410 128.951 135.168  0.00  0.00    +0.000 OA
ATOM     36  O   UNL     1     113.848 128.173 136.227  0.00  0.00    +0.000 OA
ATOM     37  C   UNL     1     113.761 128.738 135.631  0.00  0.00    +0.000 C 
ENDBRANCH  34  37
ENDBRANCH  33  34
ENDBRANCH  31  33
ENDBRANCH  30  31
ENDBRANCH  27  30
ENDBRANCH  20  29
ENDBRANCH   4  20
TORSDOF 8
ENDMDL
MODEL 6
REMARK VINA RESULT:      -8.9      3.197      4.278
REMARK  Name = 5281602
REMARK  8 active torsions:
REMARK  status: ('A' for Active; 'I' for Inactive)
REMARK    1  A    between atoms: O_2  and  C_18
REMARK    2  A    between atoms: O_2  and  C_20
REMARK    3  A    between atoms: O_6  and  C_19
REMARK    4  A    between atoms: O_6  and  C_23
REMARK    5  A    between atoms: C_16  and  C_19
REMARK    6  A    between atoms: C_23  and  C_27
REMARK    7  A    between atoms: C_27  and  C_32
REMARK    8  A    between atoms: C_29  and  C_31
REMARK                            x       y       z     vdW  Elec       q    Type
REMARK                         _______ _______ _______ _____ _____    ______ ____
ROOT
ATOM      1  O   UNL     1     113.530 126.353 138.818  0.00  0.00    +0.000 OA
ATOM      2  O   UNL     1     110.842 126.285 139.878  0.00  0.00    +0.000 OA
ATOM      3  O   UNL     1     111.160 125.668 138.613  0.00  0.00    +0.000 OA
ATOM      4  C   UNL     1     112.708 127.198 140.718  0.00  0.00    +0.000 A 
ATOM      5  C   UNL     1     113.265 126.990 140.096  0.00  0.00    +0.000 A 
ATOM      6  C   UNL     1     111.886 126.960 140.646  0.00  0.00    +0.000 A 
ATOM      7  C   UNL     1     112.991 126.549 139.412  0.00  0.00    +0.000 A 
ATOM      8  C   UNL     1     112.201 126.320 139.344  0.00  0.00    +0.000 A 
ATOM      9  C   UNL     1     111.631 126.518 139.955  0.00  0.00    +0.000 A 
ATOM     10  C   UNL     1     111.950 125.896 138.682  0.00  0.00    +0.000 A 
ATOM     11  C   UNL     1     113.278 125.929 138.157  0.00  0.00    +0.000 A 
ATOM     12  C   UNL     1     112.488 125.700 138.089  0.00  0.00    +0.000 A 
ENDROOT
BRANCH  11  14
ATOM     13  O   UNL     1     115.432 125.146 135.782  0.00  0.00    +0.000 OA
ATOM     14  C   UNL     1     113.817 125.733 137.563  0.00  0.00    +0.000 A 
ATOM     15  C   UNL     1     114.291 125.062 137.641  0.00  0.00    +0.000 A 
ATOM     16  C   UNL     1     113.880 126.208 136.891  0.00  0.00    +0.000 A 
ATOM     17  C   UNL     1     114.829 124.867 137.047  0.00  0.00    +0.000 A 
ATOM     18  C   UNL     1     114.419 126.012 136.298  0.00  0.00    +0.000 A 
ATOM     19  C   UNL     1     114.893 125.342 136.376  0.00  0.00    +0.000 A 
ENDBRANCH  11  14
BRANCH   4  20
ATOM     20  O   UNL     1     112.962 127.622 141.378  0.00  0.00    +0.000 OA
BRANCH  20  29
ATOM     21  O   UNL     1     113.087 128.929 140.815  0.00  0.00    +0.000 OA
ATOM     22  O   UNL     1     112.427 130.873 141.557  0.00  0.00    +0.000 OA
ATOM     23  O   UNL     1     111.911 129.884 142.772  0.00  0.00    +0.000 OA
ATOM     24  O   UNL     1     112.178 128.258 142.683  0.00  0.00    +0.000 OA
ATOM     25  C   UNL     1     112.561 130.060 141.512  0.00  0.00    +0.000 C 
ATOM     26  C   UNL     1     112.303 129.566 142.120  0.00  0.00    +0.000 C 
ATOM     27  C   UNL     1     112.953 129.741 140.859  0.00  0.00    +0.000 C 
ATOM     28  C   UNL     1     112.437 128.752 142.075  0.00  0.00    +0.000 C 
ATOM     29  C   UNL     1     112.829 128.434 141.422  0.00  0.00    +0.000 C 
BRANCH  27  30
ATOM     30  C   UNL     1     113.211 130.237 140.252  0.00  0.00    +0.000 C 
BRANCH  30  31
ATOM     31  O   UNL     1     113.364 129.927 139.503  0.00  0.00    +0.000 OA
BRANCH  31  33
ATOM     32  O   UNL     1     114.264 130.921 139.011  0.00  0.00    +0.000 OA
ATOM     33  C   UNL     1     113.617 130.423 138.895  0.00  0.00    +0.000 C 
BRANCH  33  34
ATOM     34  C   UNL     1     113.224 130.421 138.170  0.00  0.00    +0.000 C 
BRANCH  34  37
ATOM     35  O   UNL     1     113.842 129.591 137.185  0.00  0.00    +0.000 OA
ATOM     36  O   UNL     1     113.886 131.013 137.051  0.00  0.00    +0.000 OA
ATOM     37  C   UNL     1     113.650 130.342 137.469  0.00  0.00    +0.000 C 
ENDBRANCH  34  37
ENDBRANCH  33  34
ENDBRANCH  31  33
ENDBRANCH  30  31
ENDBRANCH  27  30
ENDBRANCH  20  29
ENDBRANCH   4  20
TORSDOF 8
ENDMDL
MODEL 7
REMARK VINA RESULT:      -8.8      1.836      2.842
REMARK  Name = 5281602
REMARK  8 active torsions:
REMARK  status: ('A' for Active; 'I' for Inactive)
REMARK    1  A    between atoms: O_2  and  C_18
REMARK    2  A    between atoms: O_2  and  C_20
REMARK    3  A    between atoms: O_6  and  C_19
REMARK    4  A    between atoms: O_6  and  C_23
REMARK    5  A    between atoms: C_16  and  C_19
REMARK    6  A    between atoms: C_23  and  C_27
REMARK    7  A    between atoms: C_27  and  C_32
REMARK    8  A    between atoms: C_29  and  C_31
REMARK                            x       y       z     vdW  Elec       q    Type
REMARK                         _______ _______ _______ _____ _____    ______ ____
ROOT
ATOM      1  O   UNL     1     111.672 126.643 136.215  0.00  0.00    +0.000 OA
ATOM      2  O   UNL     1     113.444 128.899 135.861  0.00  0.00    +0.000 OA
ATOM      3  O   UNL     1     113.941 127.627 136.329  0.00  0.00    +0.000 OA
ATOM      4  C   UNL     1     111.237 128.722 135.518  0.00  0.00    +0.000 A 
ATOM      5  C   UNL     1     111.120 127.900 135.742  0.00  0.00    +0.000 A 
ATOM      6  C   UNL     1     112.025 129.063 135.558  0.00  0.00    +0.000 A 
ATOM      7  C   UNL     1     111.791 127.431 136.002  0.00  0.00    +0.000 A 
ATOM      8  C   UNL     1     112.547 127.759 136.039  0.00  0.00    +0.000 A 
ATOM      9  C   UNL     1     112.684 128.579 135.820  0.00  0.00    +0.000 A 
ATOM     10  C   UNL     1     113.184 127.299 136.290  0.00  0.00    +0.000 A 
ATOM     11  C   UNL     1     112.310 126.183 136.466  0.00  0.00    +0.000 A 
ATOM     12  C   UNL     1     113.066 126.511 136.504  0.00  0.00    +0.000 A 
ENDROOT
BRANCH  11  14
ATOM     13  O   UNL     1     111.834 123.031 137.319  0.00  0.00    +0.000 OA
ATOM     14  C   UNL     1     112.191 125.395 136.679  0.00  0.00    +0.000 A 
ATOM     15  C   UNL     1     112.480 124.790 136.199  0.00  0.00    +0.000 A 
ATOM     16  C   UNL     1     111.782 125.213 137.373  0.00  0.00    +0.000 A 
ATOM     17  C   UNL     1     112.361 124.002 136.412  0.00  0.00    +0.000 A 
ATOM     18  C   UNL     1     111.664 124.425 137.586  0.00  0.00    +0.000 A 
ATOM     19  C   UNL     1     111.953 123.819 137.106  0.00  0.00    +0.000 A 
ENDBRANCH  11  14
BRANCH   4  20
ATOM     20  O   UNL     1     110.598 129.180 135.268  0.00  0.00    +0.000 OA
BRANCH  20  29
ATOM     21  O   UNL     1     110.343 129.834 136.512  0.00  0.00    +0.000 OA
ATOM     22  O   UNL     1     108.465 130.386 137.478  0.00  0.00    +0.000 OA
ATOM     23  O   UNL     1     107.909 129.680 136.094  0.00  0.00    +0.000 OA
ATOM     24  O   UNL     1     108.975 129.077 134.989  0.00  0.00    +0.000 OA
ATOM     25  C   UNL     1     108.999 130.084 136.925  0.00  0.00    +0.000 C 
ATOM     26  C   UNL     1     108.720 129.732 136.234  0.00  0.00    +0.000 C 
ATOM     27  C   UNL     1     109.810 130.136 137.064  0.00  0.00    +0.000 C 
ATOM     28  C   UNL     1     109.254 129.430 135.681  0.00  0.00    +0.000 C 
ATOM     29  C   UNL     1     110.065 129.481 135.820  0.00  0.00    +0.000 C 
BRANCH  27  30
ATOM     30  C   UNL     1     110.088 130.489 137.756  0.00  0.00    +0.000 C 
BRANCH  30  31
ATOM     31  O   UNL     1     110.736 130.168 138.152  0.00  0.00    +0.000 OA
BRANCH  31  33
ATOM     32  O   UNL     1     111.127 131.406 138.750  0.00  0.00    +0.000 OA
ATOM     33  C   UNL     1     111.087 130.582 138.774  0.00  0.00    +0.000 C 
BRANCH  33  34
ATOM     34  C   UNL     1     111.398 130.174 139.419  0.00  0.00    +0.000 C 
BRANCH  34  37
ATOM     35  O   UNL     1     112.689 129.614 139.166  0.00  0.00    +0.000 OA
ATOM     36  O   UNL     1     112.551 130.717 140.065  0.00  0.00    +0.000 OA
ATOM     37  C   UNL     1     112.212 130.168 139.550  0.00  0.00    +0.000 C 
ENDBRANCH  34  37
ENDBRANCH  33  34
ENDBRANCH  31  33
ENDBRANCH  30  31
ENDBRANCH  27  30
ENDBRANCH  20  29
ENDBRANCH   4  20
TORSDOF 8
ENDMDL
MODEL 8
REMARK VINA RESULT:      -8.8      1.494      3.684
REMARK  Name = 5281602
REMARK  8 active torsions:
REMARK  status: ('A' for Active; 'I' for Inactive)
REMARK    1  A    between atoms: O_2  and  C_18
REMARK    2  A    between atoms: O_2  and  C_20
REMARK    3  A    between atoms: O_6  and  C_19
REMARK    4  A    between atoms: O_6  and  C_23
REMARK    5  A    between atoms: C_16  and  C_19
REMARK    6  A    between atoms: C_23  and  C_27
REMARK    7  A    between atoms: C_27  and  C_32
REMARK    8  A    between atoms: C_29  and  C_31
REMARK                            x       y       z     vdW  Elec       q    Type
REMARK                         _______ _______ _______ _____ _____    ______ ____
ROOT
ATOM      1  O   UNL     1     112.555 127.325 137.095  0.00  0.00    +0.000 OA
ATOM      2  O   UNL     1     114.109 129.496 135.990  0.00  0.00    +0.000 OA
ATOM      3  O   UNL     1     114.377 128.127 135.624  0.00  0.00    +0.000 OA
ATOM      4  C   UNL     1     112.405 129.528 137.445  0.00  0.00    +0.000 A 
ATOM      5  C   UNL     1     112.242 128.685 137.498  0.00  0.00    +0.000 A 
ATOM      6  C   UNL     1     113.037 129.805 136.934  0.00  0.00    +0.000 A 
ATOM      7  C   UNL     1     112.715 128.132 137.040  0.00  0.00    +0.000 A 
ATOM      8  C   UNL     1     113.322 128.400 136.550  0.00  0.00    +0.000 A 
ATOM      9  C   UNL     1     113.499 129.238 136.484  0.00  0.00    +0.000 A 
ATOM     10  C   UNL     1     113.769 127.860 136.115  0.00  0.00    +0.000 A 
ATOM     11  C   UNL     1     113.002 126.785 136.661  0.00  0.00    +0.000 A 
ATOM     12  C   UNL     1     113.609 127.052 136.170  0.00  0.00    +0.000 A 
ENDROOT
BRANCH  11  14
ATOM     13  O   UNL     1     112.360 123.556 136.881  0.00  0.00    +0.000 OA
ATOM     14  C   UNL     1     112.842 125.977 136.716  0.00  0.00    +0.000 A 
ATOM     15  C   UNL     1     113.342 125.486 137.151  0.00  0.00    +0.000 A 
ATOM     16  C   UNL     1     112.181 125.662 136.336  0.00  0.00    +0.000 A 
ATOM     17  C   UNL     1     113.181 124.680 137.206  0.00  0.00    +0.000 A 
ATOM     18  C   UNL     1     112.020 124.854 136.391  0.00  0.00    +0.000 A 
ATOM     19  C   UNL     1     112.521 124.363 136.826  0.00  0.00    +0.000 A 
ENDBRANCH  11  14
BRANCH   4  20
ATOM     20  O   UNL     1     111.956 130.065 137.881  0.00  0.00    +0.000 OA
BRANCH  20  29
ATOM     21  O   UNL     1     110.753 130.033 137.111  0.00  0.00    +0.000 OA
ATOM     22  O   UNL     1     109.430 131.642 136.458  0.00  0.00    +0.000 OA
ATOM     23  O   UNL     1     110.574 132.495 137.287  0.00  0.00    +0.000 OA
ATOM     24  O   UNL     1     111.837 131.707 137.998  0.00  0.00    +0.000 OA
ATOM     25  C   UNL     1     110.062 131.248 136.814  0.00  0.00    +0.000 C 
ATOM     26  C   UNL     1     110.633 131.675 137.228  0.00  0.00    +0.000 C 
ATOM     27  C   UNL     1     110.122 130.427 136.755  0.00  0.00    +0.000 C 
ATOM     28  C   UNL     1     111.265 131.280 137.584  0.00  0.00    +0.000 C 
ATOM     29  C   UNL     1     111.325 130.459 137.525  0.00  0.00    +0.000 C 
BRANCH  27  30
ATOM     30  C   UNL     1     109.549 130.001 136.341  0.00  0.00    +0.000 C 
BRANCH  30  31
ATOM     31  O   UNL     1     109.349 129.238 136.579  0.00  0.00    +0.000 OA
BRANCH  31  33
ATOM     32  O   UNL     1     108.126 129.060 135.861  0.00  0.00    +0.000 OA
ATOM     33  C   UNL     1     108.860 128.772 136.106  0.00  0.00    +0.000 C 
BRANCH  33  34
ATOM     34  C   UNL     1     109.103 128.018 135.877  0.00  0.00    +0.000 C 
BRANCH  34  37
ATOM     35  O   UNL     1     108.131 126.975 135.785  0.00  0.00    +0.000 OA
ATOM     36  O   UNL     1     108.980 127.061 136.930  0.00  0.00    +0.000 OA
ATOM     37  C   UNL     1     108.738 127.352 136.197  0.00  0.00    +0.000 C 
ENDBRANCH  34  37
ENDBRANCH  33  34
ENDBRANCH  31  33
ENDBRANCH  30  31
ENDBRANCH  27  30
ENDBRANCH  20  29
ENDBRANCH   4  20
TORSDOF 8
ENDMDL
MODEL 9
REMARK VINA RESULT:      -8.7      1.718      4.755
REMARK  Name = 5281602
REMARK  8 active torsions:
REMARK  status: ('A' for Active; 'I' for Inactive)
REMARK    1  A    between atoms: O_2  and  C_18
REMARK    2  A    between atoms: O_2  and  C_20
REMARK    3  A    between atoms: O_6  and  C_19
REMARK    4  A    between atoms: O_6  and  C_23
REMARK    5  A    between atoms: C_16  and  C_19
REMARK    6  A    between atoms: C_23  and  C_27
REMARK    7  A    between atoms: C_27  and  C_32
REMARK    8  A    between atoms: C_29  and  C_31
REMARK                            x       y       z     vdW  Elec       q    Type
REMARK                         _______ _______ _______ _____ _____    ______ ____
ROOT
ATOM      1  O   UNL     1     112.704 128.273 135.457  0.00  0.00    +0.000 OA
ATOM      2  O   UNL     1     109.929 128.388 134.658  0.00  0.00    +0.000 OA
ATOM      3  O   UNL     1     110.766 129.562 134.612  0.00  0.00    +0.000 OA
ATOM      4  C   UNL     1     111.152 126.666 135.406  0.00  0.00    +0.000 A 
ATOM      5  C   UNL     1     111.906 127.061 135.522  0.00  0.00    +0.000 A 
ATOM      6  C   UNL     1     110.480 127.113 135.113  0.00  0.00    +0.000 A 
ATOM      7  C   UNL     1     111.977 127.899 135.344  0.00  0.00    +0.000 A 
ATOM      8  C   UNL     1     111.332 128.328 135.062  0.00  0.00    +0.000 A 
ATOM      9  C   UNL     1     110.570 127.950 134.940  0.00  0.00    +0.000 A 
ATOM     10  C   UNL     1     111.412 129.132 134.894  0.00  0.00    +0.000 A 
ATOM     11  C   UNL     1     112.784 129.077 135.289  0.00  0.00    +0.000 A 
ATOM     12  C   UNL     1     112.138 129.506 135.007  0.00  0.00    +0.000 A 
ENDROOT
BRANCH  11  14
ATOM     13  O   UNL     1     115.689 130.575 135.743  0.00  0.00    +0.000 OA
ATOM     14  C   UNL     1     113.511 129.451 135.402  0.00  0.00    +0.000 A 
ATOM     15  C   UNL     1     114.067 129.466 134.793  0.00  0.00    +0.000 A 
ATOM     16  C   UNL     1     113.681 129.811 136.125  0.00  0.00    +0.000 A 
ATOM     17  C   UNL     1     114.793 129.841 134.907  0.00  0.00    +0.000 A 
ATOM     18  C   UNL     1     114.407 130.185 136.239  0.00  0.00    +0.000 A 
ATOM     19  C   UNL     1     114.963 130.200 135.629  0.00  0.00    +0.000 A 
ENDBRANCH  11  14
BRANCH   4  20
ATOM     20  O   UNL     1     111.074 125.862 135.575  0.00  0.00    +0.000 OA
BRANCH  20  29
ATOM     21  O   UNL     1     110.755 126.060 136.954  0.00  0.00    +0.000 OA
ATOM     22  O   UNL     1     111.151 124.819 138.705  0.00  0.00    +0.000 OA
ATOM     23  O   UNL     1     111.826 123.900 137.513  0.00  0.00    +0.000 OA
ATOM     24  O   UNL     1     111.788 124.422 135.948  0.00  0.00    +0.000 OA
ATOM     25  C   UNL     1     111.131 125.080 137.922  0.00  0.00    +0.000 C 
ATOM     26  C   UNL     1     111.469 124.620 137.327  0.00  0.00    +0.000 C 
ATOM     27  C   UNL     1     110.774 125.800 137.736  0.00  0.00    +0.000 C 
ATOM     28  C   UNL     1     111.450 124.881 136.543  0.00  0.00    +0.000 C 
ATOM     29  C   UNL     1     111.093 125.601 136.357  0.00  0.00    +0.000 C 
BRANCH  27  30
ATOM     30  C   UNL     1     110.437 126.259 138.333  0.00  0.00    +0.000 C 
BRANCH  30  31
ATOM     31  O   UNL     1     109.964 126.906 138.139  0.00  0.00    +0.000 OA
BRANCH  31  33
ATOM     32  O   UNL     1     109.230 127.213 139.325  0.00  0.00    +0.000 OA
ATOM     33  C   UNL     1     109.742 127.446 138.722  0.00  0.00    +0.000 C 
BRANCH  33  34
ATOM     34  C   UNL     1     110.032 128.217 138.703  0.00  0.00    +0.000 C 
BRANCH  34  37
ATOM     35  O   UNL     1     109.299 129.168 137.928  0.00  0.00    +0.000 OA
ATOM     36  O   UNL     1     109.197 129.176 139.353  0.00  0.00    +0.000 OA
ATOM     37  C   UNL     1     109.510 128.853 138.661  0.00  0.00    +0.000 C 
ENDBRANCH  34  37
ENDBRANCH  33  34
ENDBRANCH  31  33
ENDBRANCH  30  31
ENDBRANCH  27  30
ENDBRANCH  20  29
ENDBRANCH   4  20
TORSDOF 8
ENDMDL
MODEL 10
REMARK VINA RESULT:      -8.7      1.903      4.143
REMARK  Name = 5281602
REMARK  8 active torsions:
REMARK  status: ('A' for Active; 'I' for Inactive)
REMARK    1  A    between atoms: O_2  and  C_18
REMARK    2  A    between atoms: O_2  and  C_20
REMARK    3  A    between atoms: O_6  and  C_19
REMARK    4  A    between atoms: O_6  and  C_23
REMARK    5  A    between atoms: C_16  and  C_19
REMARK    6  A    between atoms: C_23  and  C_27
REMARK    7  A    between atoms: C_27  and  C_32
REMARK    8  A    between atoms: C_29  and  C_31
REMARK                            x       y       z     vdW  Elec       q    Type
REMARK                         _______ _______ _______ _____ _____    ______ ____
ROOT
ATOM      1  O   UNL     1     112.466 129.521 137.284  0.00  0.00    +0.000 OA
ATOM      2  O   UNL     1     113.314 128.818 134.612  0.00  0.00    +0.000 OA
ATOM      3  O   UNL     1     114.243 128.806 135.716  0.00  0.00    +0.000 OA
ATOM      4  C   UNL     1     111.301 129.438 135.378  0.00  0.00    +0.000 A 
ATOM      5  C   UNL     1     111.490 129.550 136.210  0.00  0.00    +0.000 A 
ATOM      6  C   UNL     1     111.918 129.189 134.834  0.00  0.00    +0.000 A 
ATOM      7  C   UNL     1     112.292 129.412 136.485  0.00  0.00    +0.000 A 
ATOM      8  C   UNL     1     112.884 129.174 135.962  0.00  0.00    +0.000 A 
ATOM      9  C   UNL     1     112.715 129.057 135.128  0.00  0.00    +0.000 A 
ATOM     10  C   UNL     1     113.650 129.044 136.238  0.00  0.00    +0.000 A 
ATOM     11  C   UNL     1     113.233 129.392 137.560  0.00  0.00    +0.000 A 
ATOM     12  C   UNL     1     113.825 129.154 137.037  0.00  0.00    +0.000 A 
ENDROOT
BRANCH  11  14
ATOM     13  O   UNL     1     113.931 129.828 140.756  0.00  0.00    +0.000 OA
ATOM     14  C   UNL     1     113.408 129.501 138.359  0.00  0.00    +0.000 A 
ATOM     15  C   UNL     1     113.762 130.202 138.612  0.00  0.00    +0.000 A 
ATOM     16  C   UNL     1     113.228 128.909 138.905  0.00  0.00    +0.000 A 
ATOM     17  C   UNL     1     113.936 130.310 139.411  0.00  0.00    +0.000 A 
ATOM     18  C   UNL     1     113.402 129.018 139.704  0.00  0.00    +0.000 A 
ATOM     19  C   UNL     1     113.757 129.719 139.957  0.00  0.00    +0.000 A 
ENDBRANCH  11  14
BRANCH   4  20
ATOM     20  O   UNL     1     110.534 129.567 135.105  0.00  0.00    +0.000 OA
BRANCH  20  29
ATOM     21  O   UNL     1     110.061 128.233 135.301  0.00  0.00    +0.000 OA
ATOM     22  O   UNL     1     108.111 127.487 135.939  0.00  0.00    +0.000 OA
ATOM     23  O   UNL     1     107.845 129.116 135.963  0.00  0.00    +0.000 OA
ATOM     24  O   UNL     1     109.057 130.156 135.546  0.00  0.00    +0.000 OA
ATOM     25  C   UNL     1     108.718 128.008 135.730  0.00  0.00    +0.000 C 
ATOM     26  C   UNL     1     108.584 128.822 135.742  0.00  0.00    +0.000 C 
ATOM     27  C   UNL     1     109.456 127.714 135.510  0.00  0.00    +0.000 C 
ATOM     28  C   UNL     1     109.190 129.342 135.533  0.00  0.00    +0.000 C 
ATOM     29  C   UNL     1     109.929 129.048 135.313  0.00  0.00    +0.000 C 
BRANCH  27  30
ATOM     30  C   UNL     1     109.589 126.899 135.498  0.00  0.00    +0.000 C 
BRANCH  30  31
ATOM     31  O   UNL     1     110.315 126.595 135.743  0.00  0.00    +0.000 OA
BRANCH  31  33
ATOM     32  O   UNL     1     110.229 125.366 135.021  0.00  0.00    +0.000 OA
ATOM     33  C   UNL     1     110.462 125.785 135.692  0.00  0.00    +0.000 C 
BRANCH  33  34
ATOM     34  C   UNL     1     110.842 125.394 136.310  0.00  0.00    +0.000 C 
BRANCH  34  37
ATOM     35  O   UNL     1     112.258 125.468 136.127  0.00  0.00    +0.000 OA
ATOM     36  O   UNL     1     111.598 124.201 136.102  0.00  0.00    +0.000 OA
ATOM     37  C   UNL     1     111.566 125.021 136.180  0.00  0.00    +0.000 C 
ENDBRANCH  34  37
ENDBRANCH  33  34
ENDBRANCH  31  33
ENDBRANCH  30  31
ENDBRANCH  27  30
ENDBRANCH  20  29
ENDBRANCH   4  20
TORSDOF 8
ENDMDL
