MODEL 1
REMARK VINA RESULT:     -10.4      0.000      0.000
REMARK  Name = 44257892
REMARK  9 active torsions:
REMARK  status: ('A' for Active; 'I' for Inactive)
REMARK    1  A    between atoms: O_3  and  C_22
REMARK    2  A    between atoms: O_3  and  C_25
REMARK    3  A    between atoms: O_4  and  C_21
REMARK    4  A    between atoms: O_4  and  C_29
REMARK    5  A    between atoms: O_9  and  C_26
REMARK    6  A    between atoms: O_9  and  C_28
REMARK    7  A    between atoms: O_15  and  C_44
REMARK    8  A    between atoms: C_16  and  C_25
REMARK    9  A    between atoms: C_37  and  C_39
REMARK                            x       y       z     vdW  Elec       q    Type
REMARK                         _______ _______ _______ _____ _____    ______ ____
ROOT
ATOM      1  O   UNL     1     110.304 128.289 135.887  0.00  0.00    +0.000 OA
ATOM      2  O   UNL     1     108.454 127.210 136.306  0.00  0.00    +0.000 OA
ATOM      3  O   UNL     1     107.859 128.646 135.753  0.00  0.00    +0.000 OA
ATOM      4  O   UNL     1     108.894 129.844 135.289  0.00  0.00    +0.000 OA
ATOM      5  C   UNL     1     109.787 127.689 136.119  0.00  0.00    +0.000 C 
ATOM      6  C   UNL     1     108.972 127.809 136.074  0.00  0.00    +0.000 C 
ATOM      7  C   UNL     1     108.674 128.527 135.798  0.00  0.00    +0.000 C 
ATOM      8  C   UNL     1     109.192 129.126 135.566  0.00  0.00    +0.000 C 
ATOM      9  C   UNL     1     110.007 129.006 135.610  0.00  0.00    +0.000 C 
ENDROOT
BRANCH   9  10
ATOM     10  O   UNL     1     110.524 129.606 135.378  0.00  0.00    +0.000 OA
BRANCH  10  14
ATOM     11  O   UNL     1     112.661 129.825 137.344  0.00  0.00    +0.000 OA
ATOM     12  O   UNL     1     113.299 129.108 134.619  0.00  0.00    +0.000 OA
ATOM     13  O   UNL     1     114.332 129.225 135.620  0.00  0.00    +0.000 OA
ATOM     14  C   UNL     1     111.324 129.560 135.573  0.00  0.00    +0.000 A 
ATOM     15  C   UNL     1     111.583 129.720 136.377  0.00  0.00    +0.000 A 
ATOM     16  C   UNL     1     111.904 129.352 134.974  0.00  0.00    +0.000 A 
ATOM     17  C   UNL     1     112.419 129.670 136.571  0.00  0.00    +0.000 A 
ATOM     18  C   UNL     1     112.736 129.307 135.187  0.00  0.00    +0.000 A 
ATOM     19  C   UNL     1     112.976 129.470 135.996  0.00  0.00    +0.000 A 
ATOM     20  C   UNL     1     113.775 129.425 136.195  0.00  0.00    +0.000 A 
ATOM     21  C   UNL     1     113.461 129.780 137.543  0.00  0.00    +0.000 A 
ATOM     22  C   UNL     1     114.017 129.580 136.968  0.00  0.00    +0.000 A 
BRANCH  21  23
ATOM     23  C   UNL     1     113.703 129.935 138.316  0.00  0.00    +0.000 A 
ATOM     24  C   UNL     1     113.490 129.421 138.926  0.00  0.00    +0.000 A 
ATOM     25  C   UNL     1     114.159 130.602 138.479  0.00  0.00    +0.000 A 
ATOM     26  C   UNL     1     113.734 129.577 139.699  0.00  0.00    +0.000 A 
ATOM     27  C   UNL     1     114.402 130.757 139.252  0.00  0.00    +0.000 A 
ATOM     28  C   UNL     1     114.189 130.245 139.862  0.00  0.00    +0.000 A 
BRANCH  28  29
ATOM     29  O   UNL     1     114.432 130.400 140.635  0.00  0.00    +0.000 OA
ATOM     30  C   UNL     1     114.966 131.010 140.785  0.00  0.00    +0.000 C 
ENDBRANCH  28  29
ENDBRANCH  21  23
ENDBRANCH  10  14
ENDBRANCH   9  10
BRANCH   5  31
ATOM     31  C   UNL     1     110.084 126.972 136.395  0.00  0.00    +0.000 C 
BRANCH  31  32
ATOM     32  O   UNL     1     110.560 126.507 135.907  0.00  0.00    +0.000 OA
BRANCH  32  39
ATOM     33  O   UNL     1     111.636 126.270 136.816  0.00  0.00    +0.000 OA
ATOM     34  O   UNL     1     111.737 123.909 136.080  0.00  0.00    +0.000 OA
ATOM     35  O   UNL     1     110.627 124.933 135.417  0.00  0.00    +0.000 OA
ATOM     36  C   UNL     1     111.704 124.696 136.325  0.00  0.00    +0.000 C 
ATOM     37  C   UNL     1     111.149 125.207 135.994  0.00  0.00    +0.000 C 
ATOM     38  C   UNL     1     112.226 124.970 136.903  0.00  0.00    +0.000 C 
ATOM     39  C   UNL     1     111.115 125.994 136.239  0.00  0.00    +0.000 C 
ATOM     40  C   UNL     1     112.192 125.757 137.148  0.00  0.00    +0.000 C 
ATOM     41  C   UNL     1     112.713 126.032 137.725  0.00  0.00    +0.000 C 
BRANCH  38  42
ATOM     42  O   UNL     1     112.780 124.458 137.234  0.00  0.00    +0.000 OA
BRANCH  42  44
ATOM     43  O   UNL     1     113.680 124.197 136.155  0.00  0.00    +0.000 OA
ATOM     44  C   UNL     1     113.549 124.432 136.935  0.00  0.00    +0.000 C 
ATOM     45  C   UNL     1     114.186 124.639 137.415  0.00  0.00    +0.000 C 
ENDBRANCH  42  44
ENDBRANCH  38  42
ENDBRANCH  32  39
ENDBRANCH  31  32
ENDBRANCH   5  31
TORSDOF 9
ENDMDL
MODEL 2
REMARK VINA RESULT:     -10.2      1.569      4.754
REMARK  Name = 44257892
REMARK  9 active torsions:
REMARK  status: ('A' for Active; 'I' for Inactive)
REMARK    1  A    between atoms: O_3  and  C_22
REMARK    2  A    between atoms: O_3  and  C_25
REMARK    3  A    between atoms: O_4  and  C_21
REMARK    4  A    between atoms: O_4  and  C_29
REMARK    5  A    between atoms: O_9  and  C_26
REMARK    6  A    between atoms: O_9  and  C_28
REMARK    7  A    between atoms: O_15  and  C_44
REMARK    8  A    between atoms: C_16  and  C_25
REMARK    9  A    between atoms: C_37  and  C_39
REMARK                            x       y       z     vdW  Elec       q    Type
REMARK                         _______ _______ _______ _____ _____    ______ ____
ROOT
ATOM      1  O   UNL     1     109.891 129.346 136.185  0.00  0.00    +0.000 OA
ATOM      2  O   UNL     1     109.669 131.341 135.328  0.00  0.00    +0.000 OA
ATOM      3  O   UNL     1     108.092 130.867 135.427  0.00  0.00    +0.000 OA
ATOM      4  O   UNL     1     107.714 129.379 136.031  0.00  0.00    +0.000 OA
ATOM      5  C   UNL     1     110.080 130.090 135.883  0.00  0.00    +0.000 C 
ATOM      6  C   UNL     1     109.481 130.597 135.630  0.00  0.00    +0.000 C 
ATOM      7  C   UNL     1     108.691 130.360 135.680  0.00  0.00    +0.000 C 
ATOM      8  C   UNL     1     108.503 129.616 135.982  0.00  0.00    +0.000 C 
ATOM      9  C   UNL     1     109.103 129.109 136.234  0.00  0.00    +0.000 C 
ENDROOT
BRANCH   9  10
ATOM     10  O   UNL     1     108.913 128.365 136.536  0.00  0.00    +0.000 OA
BRANCH  10  14
ATOM     11  O   UNL     1     111.229 126.601 136.603  0.00  0.00    +0.000 OA
ATOM     12  O   UNL     1     109.044 126.017 134.806  0.00  0.00    +0.000 OA
ATOM     13  O   UNL     1     110.207 125.165 134.865  0.00  0.00    +0.000 OA
ATOM     14  C   UNL     1     109.311 127.695 136.265  0.00  0.00    +0.000 A 
ATOM     15  C   UNL     1     110.082 127.491 136.583  0.00  0.00    +0.000 A 
ATOM     16  C   UNL     1     108.955 127.197 135.661  0.00  0.00    +0.000 A 
ATOM     17  C   UNL     1     110.488 126.791 136.293  0.00  0.00    +0.000 A 
ATOM     18  C   UNL     1     109.377 126.501 135.384  0.00  0.00    +0.000 A 
ATOM     19  C   UNL     1     110.147 126.313 135.714  0.00  0.00    +0.000 A 
ATOM     20  C   UNL     1     110.547 125.644 135.445  0.00  0.00    +0.000 A 
ATOM     21  C   UNL     1     111.629 125.932 136.333  0.00  0.00    +0.000 A 
ATOM     22  C   UNL     1     111.288 125.453 135.754  0.00  0.00    +0.000 A 
BRANCH  21  23
ATOM     23  C   UNL     1     112.370 125.741 136.642  0.00  0.00    +0.000 A 
ATOM     24  C   UNL     1     112.466 125.054 137.089  0.00  0.00    +0.000 A 
ATOM     25  C   UNL     1     113.015 126.236 136.504  0.00  0.00    +0.000 A 
ATOM     26  C   UNL     1     113.207 124.864 137.398  0.00  0.00    +0.000 A 
ATOM     27  C   UNL     1     113.755 126.045 136.813  0.00  0.00    +0.000 A 
ATOM     28  C   UNL     1     113.852 125.359 137.260  0.00  0.00    +0.000 A 
BRANCH  28  29
ATOM     29  O   UNL     1     114.593 125.168 137.569  0.00  0.00    +0.000 OA
ATOM     30  C   UNL     1     114.881 124.398 137.503  0.00  0.00    +0.000 C 
ENDBRANCH  28  29
ENDBRANCH  21  23
ENDBRANCH  10  14
ENDBRANCH   9  10
BRANCH   5  31
ATOM     31  C   UNL     1     110.868 130.327 135.834  0.00  0.00    +0.000 C 
BRANCH  31  32
ATOM     32  O   UNL     1     111.354 130.286 136.500  0.00  0.00    +0.000 OA
BRANCH  32  39
ATOM     33  O   UNL     1     112.524 129.859 135.800  0.00  0.00    +0.000 OA
ATOM     34  O   UNL     1     113.936 131.142 137.377  0.00  0.00    +0.000 OA
ATOM     35  O   UNL     1     112.295 131.141 137.551  0.00  0.00    +0.000 OA
ATOM     36  C   UNL     1     113.465 130.714 136.851  0.00  0.00    +0.000 C 
ATOM     37  C   UNL     1     112.645 130.714 136.938  0.00  0.00    +0.000 C 
ATOM     38  C   UNL     1     113.816 130.287 136.238  0.00  0.00    +0.000 C 
ATOM     39  C   UNL     1     112.175 130.286 136.413  0.00  0.00    +0.000 C 
ATOM     40  C   UNL     1     113.345 129.859 135.713  0.00  0.00    +0.000 C 
ATOM     41  C   UNL     1     113.695 129.432 135.100  0.00  0.00    +0.000 C 
BRANCH  38  42
ATOM     42  O   UNL     1     114.636 130.287 136.151  0.00  0.00    +0.000 OA
BRANCH  42  44
ATOM     43  O   UNL     1     114.866 131.606 135.652  0.00  0.00    +0.000 OA
ATOM     44  C   UNL     1     114.993 130.792 135.605  0.00  0.00    +0.000 C 
ATOM     45  C   UNL     1     115.477 130.484 135.013  0.00  0.00    +0.000 C 
ENDBRANCH  42  44
ENDBRANCH  38  42
ENDBRANCH  32  39
ENDBRANCH  31  32
ENDBRANCH   5  31
TORSDOF 9
ENDMDL
MODEL 3
REMARK VINA RESULT:     -10.1      8.370     10.674
REMARK  Name = 44257892
REMARK  9 active torsions:
REMARK  status: ('A' for Active; 'I' for Inactive)
REMARK    1  A    between atoms: O_3  and  C_22
REMARK    2  A    between atoms: O_3  and  C_25
REMARK    3  A    between atoms: O_4  and  C_21
REMARK    4  A    between atoms: O_4  and  C_29
REMARK    5  A    between atoms: O_9  and  C_26
REMARK    6  A    between atoms: O_9  and  C_28
REMARK    7  A    between atoms: O_15  and  C_44
REMARK    8  A    between atoms: C_16  and  C_25
REMARK    9  A    between atoms: C_37  and  C_39
REMARK                            x       y       z     vdW  Elec       q    Type
REMARK                         _______ _______ _______ _____ _____    ______ ____
ROOT
ATOM      1  O   UNL     1     106.049 126.670 142.776  0.00  0.00    +0.000 OA
ATOM      2  O   UNL     1     104.839 128.110 143.883  0.00  0.00    +0.000 OA
ATOM      3  O   UNL     1     105.081 128.927 142.470  0.00  0.00    +0.000 OA
ATOM      4  O   UNL     1     105.968 128.239 141.261  0.00  0.00    +0.000 OA
ATOM      5  C   UNL     1     105.605 127.013 143.381  0.00  0.00    +0.000 C 
ATOM      6  C   UNL     1     105.282 127.766 143.279  0.00  0.00    +0.000 C 
ATOM      7  C   UNL     1     105.403 128.175 142.572  0.00  0.00    +0.000 C 
ATOM      8  C   UNL     1     105.847 127.830 141.968  0.00  0.00    +0.000 C 
ATOM      9  C   UNL     1     106.170 127.078 142.070  0.00  0.00    +0.000 C 
ENDROOT
BRANCH   9  10
ATOM     10  O   UNL     1     106.614 126.734 141.465  0.00  0.00    +0.000 OA
BRANCH  10  14
ATOM     11  O   UNL     1     105.083 124.816 139.898  0.00  0.00    +0.000 OA
ATOM     12  O   UNL     1     107.221 123.882 141.603  0.00  0.00    +0.000 OA
ATOM     13  O   UNL     1     106.442 122.960 140.812  0.00  0.00    +0.000 OA
ATOM     14  C   UNL     1     106.464 125.958 141.233  0.00  0.00    +0.000 A 
ATOM     15  C   UNL     1     105.836 125.787 140.672  0.00  0.00    +0.000 A 
ATOM     16  C   UNL     1     106.937 125.313 141.551  0.00  0.00    +0.000 A 
ATOM     17  C   UNL     1     105.688 124.973 140.437  0.00  0.00    +0.000 A 
ATOM     18  C   UNL     1     106.773 124.506 141.303  0.00  0.00    +0.000 A 
ATOM     19  C   UNL     1     106.141 124.355 140.742  0.00  0.00    +0.000 A 
ATOM     20  C   UNL     1     105.989 123.579 140.508  0.00  0.00    +0.000 A 
ATOM     21  C   UNL     1     104.932 124.039 139.665  0.00  0.00    +0.000 A 
ATOM     22  C   UNL     1     105.385 123.420 139.970  0.00  0.00    +0.000 A 
BRANCH  21  23
ATOM     23  C   UNL     1     104.327 123.881 139.126  0.00  0.00    +0.000 A 
ATOM     24  C   UNL     1     103.548 123.808 139.389  0.00  0.00    +0.000 A 
ATOM     25  C   UNL     1     104.501 123.795 138.324  0.00  0.00    +0.000 A 
ATOM     26  C   UNL     1     102.944 123.650 138.850  0.00  0.00    +0.000 A 
ATOM     27  C   UNL     1     103.896 123.636 137.786  0.00  0.00    +0.000 A 
ATOM     28  C   UNL     1     103.118 123.564 138.048  0.00  0.00    +0.000 A 
BRANCH  28  29
ATOM     29  O   UNL     1     102.513 123.406 137.509  0.00  0.00    +0.000 OA
ATOM     30  C   UNL     1     102.696 123.124 136.756  0.00  0.00    +0.000 C 
ENDBRANCH  28  29
ENDBRANCH  21  23
ENDBRANCH  10  14
ENDBRANCH   9  10
BRANCH   5  31
ATOM     31  C   UNL     1     105.484 126.605 144.087  0.00  0.00    +0.000 C 
BRANCH  31  32
ATOM     32  O   UNL     1     106.124 126.268 144.484  0.00  0.00    +0.000 OA
BRANCH  32  39
ATOM     33  O   UNL     1     105.306 125.326 145.181  0.00  0.00    +0.000 OA
ATOM     34  O   UNL     1     106.983 125.215 146.998  0.00  0.00    +0.000 OA
ATOM     35  O   UNL     1     107.242 126.194 145.695  0.00  0.00    +0.000 OA
ATOM     36  C   UNL     1     106.424 125.252 146.392  0.00  0.00    +0.000 C 
ATOM     37  C   UNL     1     106.553 125.741 145.741  0.00  0.00    +0.000 C 
ATOM     38  C   UNL     1     105.735 124.800 146.438  0.00  0.00    +0.000 C 
ATOM     39  C   UNL     1     105.995 125.778 145.136  0.00  0.00    +0.000 C 
ATOM     40  C   UNL     1     105.177 124.837 145.833  0.00  0.00    +0.000 C 
ATOM     41  C   UNL     1     104.488 124.384 145.878  0.00  0.00    +0.000 C 
BRANCH  38  42
ATOM     42  O   UNL     1     105.606 124.310 147.089  0.00  0.00    +0.000 OA
BRANCH  42  44
ATOM     43  O   UNL     1     104.645 125.069 147.826  0.00  0.00    +0.000 OA
ATOM     44  C   UNL     1     105.344 124.632 147.803  0.00  0.00    +0.000 C 
ATOM     45  C   UNL     1     105.781 124.518 148.492  0.00  0.00    +0.000 C 
ENDBRANCH  42  44
ENDBRANCH  38  42
ENDBRANCH  32  39
ENDBRANCH  31  32
ENDBRANCH   5  31
TORSDOF 9
ENDMDL
MODEL 4
REMARK VINA RESULT:     -10.1      1.349      5.324
REMARK  Name = 44257892
REMARK  9 active torsions:
REMARK  status: ('A' for Active; 'I' for Inactive)
REMARK    1  A    between atoms: O_3  and  C_22
REMARK    2  A    between atoms: O_3  and  C_25
REMARK    3  A    between atoms: O_4  and  C_21
REMARK    4  A    between atoms: O_4  and  C_29
REMARK    5  A    between atoms: O_9  and  C_26
REMARK    6  A    between atoms: O_9  and  C_28
REMARK    7  A    between atoms: O_15  and  C_44
REMARK    8  A    between atoms: C_16  and  C_25
REMARK    9  A    between atoms: C_37  and  C_39
REMARK                            x       y       z     vdW  Elec       q    Type
REMARK                         _______ _______ _______ _____ _____    ______ ____
ROOT
ATOM      1  O   UNL     1     110.771 130.612 136.393  0.00  0.00    +0.000 OA
ATOM      2  O   UNL     1     110.555 132.519 137.431  0.00  0.00    +0.000 OA
ATOM      3  O   UNL     1     109.573 132.761 136.127  0.00  0.00    +0.000 OA
ATOM      4  O   UNL     1     109.390 131.570 135.000  0.00  0.00    +0.000 OA
ATOM      5  C   UNL     1     110.863 131.207 136.957  0.00  0.00    +0.000 C 
ATOM      6  C   UNL     1     110.464 131.923 136.868  0.00  0.00    +0.000 C 
ATOM      7  C   UNL     1     109.973 132.045 136.216  0.00  0.00    +0.000 C 
ATOM      8  C   UNL     1     109.881 131.449 135.653  0.00  0.00    +0.000 C 
ATOM      9  C   UNL     1     110.281 130.732 135.741  0.00  0.00    +0.000 C 
ENDROOT
BRANCH   9  10
ATOM     10  O   UNL     1     110.189 130.137 135.177  0.00  0.00    +0.000 OA
BRANCH  10  14
ATOM     11  O   UNL     1     110.561 127.351 135.939  0.00  0.00    +0.000 OA
ATOM     12  O   UNL     1     107.889 128.434 135.754  0.00  0.00    +0.000 OA
ATOM     13  O   UNL     1     108.111 127.058 136.129  0.00  0.00    +0.000 OA
ATOM     14  C   UNL     1     109.874 129.407 135.395  0.00  0.00    +0.000 A 
ATOM     15  C   UNL     1     110.394 128.742 135.558  0.00  0.00    +0.000 A 
ATOM     16  C   UNL     1     109.022 129.306 135.461  0.00  0.00    +0.000 A 
ATOM     17  C   UNL     1     110.056 127.985 135.784  0.00  0.00    +0.000 A 
ATOM     18  C   UNL     1     108.703 128.540 135.689  0.00  0.00    +0.000 A 
ATOM     19  C   UNL     1     109.239 127.888 135.847  0.00  0.00    +0.000 A 
ATOM     20  C   UNL     1     108.927 127.156 136.065  0.00  0.00    +0.000 A 
ATOM     21  C   UNL     1     110.248 126.619 136.157  0.00  0.00    +0.000 A 
ATOM     22  C   UNL     1     109.431 126.522 136.220  0.00  0.00    +0.000 A 
BRANCH  21  23
ATOM     23  C   UNL     1     110.752 125.985 136.312  0.00  0.00    +0.000 A 
ATOM     24  C   UNL     1     111.023 125.512 135.692  0.00  0.00    +0.000 A 
ATOM     25  C   UNL     1     110.985 125.823 137.086  0.00  0.00    +0.000 A 
ATOM     26  C   UNL     1     111.528 124.878 135.848  0.00  0.00    +0.000 A 
ATOM     27  C   UNL     1     111.489 125.188 137.241  0.00  0.00    +0.000 A 
ATOM     28  C   UNL     1     111.761 124.716 136.623  0.00  0.00    +0.000 A 
BRANCH  28  29
ATOM     29  O   UNL     1     112.265 124.081 136.777  0.00  0.00    +0.000 OA
ATOM     30  C   UNL     1     113.082 124.182 136.726  0.00  0.00    +0.000 C 
ENDBRANCH  28  29
ENDBRANCH  21  23
ENDBRANCH  10  14
ENDBRANCH   9  10
BRANCH   5  31
ATOM     31  C   UNL     1     111.353 131.086 137.608  0.00  0.00    +0.000 C 
BRANCH  31  32
ATOM     32  O   UNL     1     112.104 130.759 137.505  0.00  0.00    +0.000 OA
BRANCH  32  39
ATOM     33  O   UNL     1     112.206 130.243 138.833  0.00  0.00    +0.000 OA
ATOM     34  O   UNL     1     114.652 130.615 138.790  0.00  0.00    +0.000 OA
ATOM     35  O   UNL     1     113.735 131.008 137.476  0.00  0.00    +0.000 OA
ATOM     36  C   UNL     1     113.837 130.491 138.804  0.00  0.00    +0.000 C 
ATOM     37  C   UNL     1     113.379 130.687 138.148  0.00  0.00    +0.000 C 
ATOM     38  C   UNL     1     113.481 130.171 139.476  0.00  0.00    +0.000 C 
ATOM     39  C   UNL     1     112.563 130.563 138.162  0.00  0.00    +0.000 C 
ATOM     40  C   UNL     1     112.665 130.047 139.491  0.00  0.00    +0.000 C 
ATOM     41  C   UNL     1     112.308 129.726 140.162  0.00  0.00    +0.000 C 
BRANCH  38  42
ATOM     42  O   UNL     1     113.939 129.975 140.133  0.00  0.00    +0.000 OA
BRANCH  42  44
ATOM     43  O   UNL     1     113.608 130.985 141.087  0.00  0.00    +0.000 OA
ATOM     44  C   UNL     1     114.175 130.562 140.663  0.00  0.00    +0.000 C 
ATOM     45  C   UNL     1     114.976 130.725 140.768  0.00  0.00    +0.000 C 
ENDBRANCH  42  44
ENDBRANCH  38  42
ENDBRANCH  32  39
ENDBRANCH  31  32
ENDBRANCH   5  31
TORSDOF 9
ENDMDL
MODEL 5
REMARK VINA RESULT:     -10.1      1.671      4.967
REMARK  Name = 44257892
REMARK  9 active torsions:
REMARK  status: ('A' for Active; 'I' for Inactive)
REMARK    1  A    between atoms: O_3  and  C_22
REMARK    2  A    between atoms: O_3  and  C_25
REMARK    3  A    between atoms: O_4  and  C_21
REMARK    4  A    between atoms: O_4  and  C_29
REMARK    5  A    between atoms: O_9  and  C_26
REMARK    6  A    between atoms: O_9  and  C_28
REMARK    7  A    between atoms: O_15  and  C_44
REMARK    8  A    between atoms: C_16  and  C_25
REMARK    9  A    between atoms: C_37  and  C_39
REMARK                            x       y       z     vdW  Elec       q    Type
REMARK                         _______ _______ _______ _____ _____    ______ ____
ROOT
ATOM      1  O   UNL     1     110.980 130.377 137.191  0.00  0.00    +0.000 OA
ATOM      2  O   UNL     1     110.928 132.083 138.552  0.00  0.00    +0.000 OA
ATOM      3  O   UNL     1     110.192 132.723 137.221  0.00  0.00    +0.000 OA
ATOM      4  O   UNL     1     109.981 131.799 135.870  0.00  0.00    +0.000 OA
ATOM      5  C   UNL     1     111.086 130.838 137.867  0.00  0.00    +0.000 C 
ATOM      6  C   UNL     1     110.823 131.620 137.877  0.00  0.00    +0.000 C 
ATOM      7  C   UNL     1     110.455 131.941 137.211  0.00  0.00    +0.000 C 
ATOM      8  C   UNL     1     110.350 131.478 136.536  0.00  0.00    +0.000 C 
ATOM      9  C   UNL     1     110.613 130.696 136.526  0.00  0.00    +0.000 C 
ENDROOT
BRANCH   9  10
ATOM     10  O   UNL     1     110.507 130.235 135.850  0.00  0.00    +0.000 OA
BRANCH  10  14
ATOM     11  O   UNL     1     110.603 127.347 136.216  0.00  0.00    +0.000 OA
ATOM     12  O   UNL     1     108.056 128.649 135.809  0.00  0.00    +0.000 OA
ATOM     13  O   UNL     1     108.141 127.220 135.993  0.00  0.00    +0.000 OA
ATOM     14  C   UNL     1     110.123 129.507 135.903  0.00  0.00    +0.000 A 
ATOM     15  C   UNL     1     110.574 128.788 136.035  0.00  0.00    +0.000 A 
ATOM     16  C   UNL     1     109.267 129.464 135.825  0.00  0.00    +0.000 A 
ATOM     17  C   UNL     1     110.164 128.035 136.088  0.00  0.00    +0.000 A 
ATOM     18  C   UNL     1     108.875 128.700 135.882  0.00  0.00    +0.000 A 
ATOM     19  C   UNL     1     109.343 127.993 136.014  0.00  0.00    +0.000 A 
ATOM     20  C   UNL     1     108.962 127.263 136.067  0.00  0.00    +0.000 A 
ATOM     21  C   UNL     1     110.221 126.618 136.269  0.00  0.00    +0.000 A 
ATOM     22  C   UNL     1     109.400 126.576 136.194  0.00  0.00    +0.000 A 
BRANCH  21  23
ATOM     23  C   UNL     1     110.659 125.931 136.396  0.00  0.00    +0.000 A 
ATOM     24  C   UNL     1     110.861 125.707 137.164  0.00  0.00    +0.000 A 
ATOM     25  C   UNL     1     110.895 125.468 135.755  0.00  0.00    +0.000 A 
ATOM     26  C   UNL     1     111.300 125.019 137.290  0.00  0.00    +0.000 A 
ATOM     27  C   UNL     1     111.333 124.781 135.882  0.00  0.00    +0.000 A 
ATOM     28  C   UNL     1     111.536 124.556 136.649  0.00  0.00    +0.000 A 
BRANCH  28  29
ATOM     29  O   UNL     1     111.974 123.868 136.777  0.00  0.00    +0.000 OA
ATOM     30  C   UNL     1     112.799 123.897 136.763  0.00  0.00    +0.000 C 
ENDBRANCH  28  29
ENDBRANCH  21  23
ENDBRANCH  10  14
ENDBRANCH   9  10
BRANCH   5  31
ATOM     31  C   UNL     1     111.453 130.519 138.532  0.00  0.00    +0.000 C 
BRANCH  31  32
ATOM     32  O   UNL     1     112.216 130.209 138.473  0.00  0.00    +0.000 OA
BRANCH  32  39
ATOM     33  O   UNL     1     111.988 129.039 139.261  0.00  0.00    +0.000 OA
ATOM     34  O   UNL     1     114.263 129.240 140.215  0.00  0.00    +0.000 OA
ATOM     35  O   UNL     1     113.732 130.343 139.109  0.00  0.00    +0.000 OA
ATOM     36  C   UNL     1     113.505 129.173 139.897  0.00  0.00    +0.000 C 
ATOM     37  C   UNL     1     113.240 129.724 139.345  0.00  0.00    +0.000 C 
ATOM     38  C   UNL     1     113.012 128.555 140.133  0.00  0.00    +0.000 C 
ATOM     39  C   UNL     1     112.482 129.657 139.027  0.00  0.00    +0.000 C 
ATOM     40  C   UNL     1     112.254 128.488 139.815  0.00  0.00    +0.000 C 
ATOM     41  C   UNL     1     111.761 127.870 140.050  0.00  0.00    +0.000 C 
BRANCH  38  42
ATOM     42  O   UNL     1     113.277 128.003 140.686  0.00  0.00    +0.000 OA
BRANCH  42  44
ATOM     43  O   UNL     1     113.548 126.915 139.800  0.00  0.00    +0.000 OA
ATOM     44  C   UNL     1     113.762 127.379 140.448  0.00  0.00    +0.000 C 
ATOM     45  C   UNL     1     114.459 127.219 140.857  0.00  0.00    +0.000 C 
ENDBRANCH  42  44
ENDBRANCH  38  42
ENDBRANCH  32  39
ENDBRANCH  31  32
ENDBRANCH   5  31
TORSDOF 9
ENDMDL
MODEL 6
REMARK VINA RESULT:     -10.1      7.438     10.515
REMARK  Name = 44257892
REMARK  9 active torsions:
REMARK  status: ('A' for Active; 'I' for Inactive)
REMARK    1  A    between atoms: O_3  and  C_22
REMARK    2  A    between atoms: O_3  and  C_25
REMARK    3  A    between atoms: O_4  and  C_21
REMARK    4  A    between atoms: O_4  and  C_29
REMARK    5  A    between atoms: O_9  and  C_26
REMARK    6  A    between atoms: O_9  and  C_28
REMARK    7  A    between atoms: O_15  and  C_44
REMARK    8  A    between atoms: C_16  and  C_25
REMARK    9  A    between atoms: C_37  and  C_39
REMARK                            x       y       z     vdW  Elec       q    Type
REMARK                         _______ _______ _______ _____ _____    ______ ____
ROOT
ATOM      1  O   UNL     1     105.599 127.004 143.423  0.00  0.00    +0.000 OA
ATOM      2  O   UNL     1     105.951 128.735 144.706  0.00  0.00    +0.000 OA
ATOM      3  O   UNL     1     106.924 127.612 145.424  0.00  0.00    +0.000 OA
ATOM      4  O   UNL     1     107.014 126.084 144.808  0.00  0.00    +0.000 OA
ATOM      5  C   UNL     1     105.554 127.768 143.731  0.00  0.00    +0.000 C 
ATOM      6  C   UNL     1     105.995 127.971 144.398  0.00  0.00    +0.000 C 
ATOM      7  C   UNL     1     106.482 127.409 144.757  0.00  0.00    +0.000 C 
ATOM      8  C   UNL     1     106.527 126.646 144.449  0.00  0.00    +0.000 C 
ATOM      9  C   UNL     1     106.085 126.443 143.782  0.00  0.00    +0.000 C 
ENDROOT
BRANCH   9  10
ATOM     10  O   UNL     1     106.130 125.678 143.474  0.00  0.00    +0.000 OA
BRANCH  10  14
ATOM     11  O   UNL     1     105.258 124.845 140.824  0.00  0.00    +0.000 OA
ATOM     12  O   UNL     1     107.956 125.808 141.200  0.00  0.00    +0.000 OA
ATOM     13  O   UNL     1     107.490 125.386 139.901  0.00  0.00    +0.000 OA
ATOM     14  C   UNL     1     106.287 125.564 142.673  0.00  0.00    +0.000 A 
ATOM     15  C   UNL     1     105.676 125.256 142.153  0.00  0.00    +0.000 A 
ATOM     16  C   UNL     1     107.062 125.752 142.353  0.00  0.00    +0.000 A 
ATOM     17  C   UNL     1     105.849 125.141 141.319  0.00  0.00    +0.000 A 
ATOM     18  C   UNL     1     107.216 125.630 141.515  0.00  0.00    +0.000 A 
ATOM     19  C   UNL     1     106.593 125.321 141.011  0.00  0.00    +0.000 A 
ATOM     20  C   UNL     1     106.746 125.206 140.209  0.00  0.00    +0.000 A 
ATOM     21  C   UNL     1     105.412 124.729 140.022  0.00  0.00    +0.000 A 
ATOM     22  C   UNL     1     106.156 124.910 139.714  0.00  0.00    +0.000 A 
BRANCH  21  23
ATOM     23  C   UNL     1     104.822 124.434 139.527  0.00  0.00    +0.000 A 
ATOM     24  C   UNL     1     104.236 124.937 139.237  0.00  0.00    +0.000 A 
ATOM     25  C   UNL     1     104.818 123.634 139.322  0.00  0.00    +0.000 A 
ATOM     26  C   UNL     1     103.646 124.640 138.742  0.00  0.00    +0.000 A 
ATOM     27  C   UNL     1     104.228 123.339 138.828  0.00  0.00    +0.000 A 
ATOM     28  C   UNL     1     103.642 123.841 138.537  0.00  0.00    +0.000 A 
BRANCH  28  29
ATOM     29  O   UNL     1     103.052 123.545 138.042  0.00  0.00    +0.000 OA
ATOM     30  C   UNL     1     102.261 123.586 138.273  0.00  0.00    +0.000 C 
ENDBRANCH  28  29
ENDBRANCH  21  23
ENDBRANCH  10  14
ENDBRANCH   9  10
BRANCH   5  31
ATOM     31  C   UNL     1     105.068 128.330 143.372  0.00  0.00    +0.000 C 
BRANCH  31  32
ATOM     32  O   UNL     1     104.807 128.215 142.598  0.00  0.00    +0.000 OA
BRANCH  32  39
ATOM     33  O   UNL     1     103.920 129.327 142.729  0.00  0.00    +0.000 OA
ATOM     34  O   UNL     1     103.298 129.112 140.343  0.00  0.00    +0.000 OA
ATOM     35  O   UNL     1     104.393 128.071 141.007  0.00  0.00    +0.000 OA
ATOM     36  C   UNL     1     103.506 129.184 141.138  0.00  0.00    +0.000 C 
ATOM     37  C   UNL     1     104.052 128.664 141.470  0.00  0.00    +0.000 C 
ATOM     38  C   UNL     1     103.165 129.776 141.601  0.00  0.00    +0.000 C 
ATOM     39  C   UNL     1     104.260 128.736 142.265  0.00  0.00    +0.000 C 
ATOM     40  C   UNL     1     103.372 129.848 142.396  0.00  0.00    +0.000 C 
ATOM     41  C   UNL     1     103.032 130.440 142.859  0.00  0.00    +0.000 C 
BRANCH  38  42
ATOM     42  O   UNL     1     102.618 130.296 141.269  0.00  0.00    +0.000 OA
BRANCH  42  44
ATOM     43  O   UNL     1     103.509 131.151 140.550  0.00  0.00    +0.000 OA
ATOM     44  C   UNL     1     102.853 131.054 141.041  0.00  0.00    +0.000 C 
ATOM     45  C   UNL     1     102.434 131.713 141.304  0.00  0.00    +0.000 C 
ENDBRANCH  42  44
ENDBRANCH  38  42
ENDBRANCH  32  39
ENDBRANCH  31  32
ENDBRANCH   5  31
TORSDOF 9
ENDMDL
MODEL 7
REMARK VINA RESULT:      -9.9      9.302     11.130
REMARK  Name = 44257892
REMARK  9 active torsions:
REMARK  status: ('A' for Active; 'I' for Inactive)
REMARK    1  A    between atoms: O_3  and  C_22
REMARK    2  A    between atoms: O_3  and  C_25
REMARK    3  A    between atoms: O_4  and  C_21
REMARK    4  A    between atoms: O_4  and  C_29
REMARK    5  A    between atoms: O_9  and  C_26
REMARK    6  A    between atoms: O_9  and  C_28
REMARK    7  A    between atoms: O_15  and  C_44
REMARK    8  A    between atoms: C_16  and  C_25
REMARK    9  A    between atoms: C_37  and  C_39
REMARK                            x       y       z     vdW  Elec       q    Type
REMARK                         _______ _______ _______ _____ _____    ______ ____
ROOT
ATOM      1  O   UNL     1     106.423 127.014 143.739  0.00  0.00    +0.000 OA
ATOM      2  O   UNL     1     107.967 127.651 142.333  0.00  0.00    +0.000 OA
ATOM      3  O   UNL     1     108.127 128.794 143.512  0.00  0.00    +0.000 OA
ATOM      4  O   UNL     1     107.152 128.750 144.842  0.00  0.00    +0.000 OA
ATOM      5  C   UNL     1     106.911 127.035 143.074  0.00  0.00    +0.000 C 
ATOM      6  C   UNL     1     107.479 127.628 142.998  0.00  0.00    +0.000 C 
ATOM      7  C   UNL     1     107.559 128.201 143.588  0.00  0.00    +0.000 C 
ATOM      8  C   UNL     1     107.071 128.178 144.253  0.00  0.00    +0.000 C 
ATOM      9  C   UNL     1     106.503 127.585 144.328  0.00  0.00    +0.000 C 
ENDROOT
BRANCH   9  10
ATOM     10  O   UNL     1     106.016 127.563 144.994  0.00  0.00    +0.000 OA
BRANCH  10  14
ATOM     11  O   UNL     1     104.493 125.242 145.874  0.00  0.00    +0.000 OA
ATOM     12  O   UNL     1     107.178 125.645 146.862  0.00  0.00    +0.000 OA
ATOM     13  O   UNL     1     106.394 124.506 147.277  0.00  0.00    +0.000 OA
ATOM     14  C   UNL     1     105.958 126.874 145.441  0.00  0.00    +0.000 A 
ATOM     15  C   UNL     1     105.238 126.405 145.424  0.00  0.00    +0.000 A 
ATOM     16  C   UNL     1     106.619 126.618 145.929  0.00  0.00    +0.000 A 
ATOM     17  C   UNL     1     105.188 125.688 145.895  0.00  0.00    +0.000 A 
ATOM     18  C   UNL     1     106.550 125.897 146.393  0.00  0.00    +0.000 A 
ATOM     19  C   UNL     1     105.822 125.443 146.362  0.00  0.00    +0.000 A 
ATOM     20  C   UNL     1     105.761 124.752 146.809  0.00  0.00    +0.000 A 
ATOM     21  C   UNL     1     104.433 124.552 146.321  0.00  0.00    +0.000 A 
ATOM     22  C   UNL     1     105.067 124.307 146.789  0.00  0.00    +0.000 A 
BRANCH  21  23
ATOM     23  C   UNL     1     103.739 124.106 146.300  0.00  0.00    +0.000 A 
ATOM     24  C   UNL     1     103.687 123.445 145.809  0.00  0.00    +0.000 A 
ATOM     25  C   UNL     1     103.097 124.321 146.771  0.00  0.00    +0.000 A 
ATOM     26  C   UNL     1     102.992 123.000 145.789  0.00  0.00    +0.000 A 
ATOM     27  C   UNL     1     102.403 123.876 146.751  0.00  0.00    +0.000 A 
ATOM     28  C   UNL     1     102.350 123.215 146.260  0.00  0.00    +0.000 A 
BRANCH  28  29
ATOM     29  O   UNL     1     101.656 122.770 146.240  0.00  0.00    +0.000 OA
ATOM     30  C   UNL     1     101.142 122.836 145.598  0.00  0.00    +0.000 C 
ENDBRANCH  28  29
ENDBRANCH  21  23
ENDBRANCH  10  14
ENDBRANCH   9  10
BRANCH   5  31
ATOM     31  C   UNL     1     106.831 126.464 142.485  0.00  0.00    +0.000 C 
BRANCH  31  32
ATOM     32  O   UNL     1     106.085 126.291 142.176  0.00  0.00    +0.000 OA
BRANCH  32  39
ATOM     33  O   UNL     1     106.451 125.035 141.601  0.00  0.00    +0.000 OA
ATOM     34  O   UNL     1     104.884 125.438 139.727  0.00  0.00    +0.000 OA
ATOM     35  O   UNL     1     105.041 126.560 140.927  0.00  0.00    +0.000 OA
ATOM     36  C   UNL     1     105.406 125.303 140.352  0.00  0.00    +0.000 C 
ATOM     37  C   UNL     1     105.485 125.864 140.951  0.00  0.00    +0.000 C 
ATOM     38  C   UNL     1     105.850 124.608 140.376  0.00  0.00    +0.000 C 
ATOM     39  C   UNL     1     106.007 125.730 141.576  0.00  0.00    +0.000 C 
ATOM     40  C   UNL     1     106.372 124.474 141.000  0.00  0.00    +0.000 C 
ATOM     41  C   UNL     1     106.816 123.779 141.026  0.00  0.00    +0.000 C 
BRANCH  38  42
ATOM     42  O   UNL     1     105.772 124.047 139.777  0.00  0.00    +0.000 OA
BRANCH  42  44
ATOM     43  O   UNL     1     104.971 123.048 140.410  0.00  0.00    +0.000 OA
ATOM     44  C   UNL     1     105.120 123.542 139.766  0.00  0.00    +0.000 C 
ATOM     45  C   UNL     1     104.617 123.530 139.113  0.00  0.00    +0.000 C 
ENDBRANCH  42  44
ENDBRANCH  38  42
ENDBRANCH  32  39
ENDBRANCH  31  32
ENDBRANCH   5  31
TORSDOF 9
ENDMDL
MODEL 8
REMARK VINA RESULT:      -9.9      1.943      5.452
REMARK  Name = 44257892
REMARK  9 active torsions:
REMARK  status: ('A' for Active; 'I' for Inactive)
REMARK    1  A    between atoms: O_3  and  C_22
REMARK    2  A    between atoms: O_3  and  C_25
REMARK    3  A    between atoms: O_4  and  C_21
REMARK    4  A    between atoms: O_4  and  C_29
REMARK    5  A    between atoms: O_9  and  C_26
REMARK    6  A    between atoms: O_9  and  C_28
REMARK    7  A    between atoms: O_15  and  C_44
REMARK    8  A    between atoms: C_16  and  C_25
REMARK    9  A    between atoms: C_37  and  C_39
REMARK                            x       y       z     vdW  Elec       q    Type
REMARK                         _______ _______ _______ _____ _____    ______ ____
ROOT
ATOM      1  O   UNL     1     111.609 130.410 138.667  0.00  0.00    +0.000 OA
ATOM      2  O   UNL     1     109.893 130.554 140.009  0.00  0.00    +0.000 OA
ATOM      3  O   UNL     1     111.102 130.225 141.083  0.00  0.00    +0.000 OA
ATOM      4  O   UNL     1     112.649 130.018 140.546  0.00  0.00    +0.000 OA
ATOM      5  C   UNL     1     110.835 130.513 138.935  0.00  0.00    +0.000 C 
ATOM      6  C   UNL     1     110.666 130.452 139.740  0.00  0.00    +0.000 C 
ATOM      7  C   UNL     1     111.271 130.286 140.278  0.00  0.00    +0.000 C 
ATOM      8  C   UNL     1     112.044 130.184 140.009  0.00  0.00    +0.000 C 
ATOM      9  C   UNL     1     112.213 130.245 139.203  0.00  0.00    +0.000 C 
ENDROOT
BRANCH   9  10
ATOM     10  O   UNL     1     112.987 130.142 138.936  0.00  0.00    +0.000 OA
BRANCH  10  14
ATOM     11  O   UNL     1     113.188 127.668 137.414  0.00  0.00    +0.000 OA
ATOM     12  O   UNL     1     113.658 130.195 136.095  0.00  0.00    +0.000 OA
ATOM     13  O   UNL     1     113.749 128.950 135.372  0.00  0.00    +0.000 OA
ATOM     14  C   UNL     1     113.129 129.749 138.225  0.00  0.00    +0.000 A 
ATOM     15  C   UNL     1     113.083 128.892 138.188  0.00  0.00    +0.000 A 
ATOM     16  C   UNL     1     113.324 130.195 137.516  0.00  0.00    +0.000 A 
ATOM     17  C   UNL     1     113.233 128.492 137.442  0.00  0.00    +0.000 A 
ATOM     18  C   UNL     1     113.470 129.776 136.779  0.00  0.00    +0.000 A 
ATOM     19  C   UNL     1     113.420 128.919 136.762  0.00  0.00    +0.000 A 
ATOM     20  C   UNL     1     113.562 128.523 136.053  0.00  0.00    +0.000 A 
ATOM     21  C   UNL     1     113.330 127.272 136.704  0.00  0.00    +0.000 A 
ATOM     22  C   UNL     1     113.516 127.700 136.023  0.00  0.00    +0.000 A 
BRANCH  21  23
ATOM     23  C   UNL     1     113.284 126.449 136.674  0.00  0.00    +0.000 A 
ATOM     24  C   UNL     1     112.572 126.082 136.478  0.00  0.00    +0.000 A 
ATOM     25  C   UNL     1     113.951 125.993 136.841  0.00  0.00    +0.000 A 
ATOM     26  C   UNL     1     112.528 125.258 136.448  0.00  0.00    +0.000 A 
ATOM     27  C   UNL     1     113.906 125.170 136.811  0.00  0.00    +0.000 A 
ATOM     28  C   UNL     1     113.195 124.802 136.615  0.00  0.00    +0.000 A 
BRANCH  28  29
ATOM     29  O   UNL     1     113.150 123.979 136.585  0.00  0.00    +0.000 OA
ATOM     30  C   UNL     1     112.487 123.591 136.886  0.00  0.00    +0.000 C 
ENDBRANCH  28  29
ENDBRANCH  21  23
ENDBRANCH  10  14
ENDBRANCH   9  10
BRANCH   5  31
ATOM     31  C   UNL     1     110.231 130.678 138.399  0.00  0.00    +0.000 C 
BRANCH  31  32
ATOM     32  O   UNL     1     110.038 130.129 137.814  0.00  0.00    +0.000 OA
BRANCH  32  39
ATOM     33  O   UNL     1     109.598 131.133 136.897  0.00  0.00    +0.000 OA
ATOM     34  O   UNL     1     108.111 129.484 135.805  0.00  0.00    +0.000 OA
ATOM     35  O   UNL     1     109.047 129.030 137.086  0.00  0.00    +0.000 OA
ATOM     36  C   UNL     1     108.606 130.034 136.169  0.00  0.00    +0.000 C 
ATOM     37  C   UNL     1     109.074 129.807 136.809  0.00  0.00    +0.000 C 
ATOM     38  C   UNL     1     108.633 130.811 135.892  0.00  0.00    +0.000 C 
ATOM     39  C   UNL     1     109.570 130.356 137.173  0.00  0.00    +0.000 C 
ATOM     40  C   UNL     1     109.129 131.360 136.256  0.00  0.00    +0.000 C 
ATOM     41  C   UNL     1     109.157 132.137 135.981  0.00  0.00    +0.000 C 
BRANCH  38  42
ATOM     42  O   UNL     1     108.166 131.038 135.252  0.00  0.00    +0.000 OA
BRANCH  42  44
ATOM     43  O   UNL     1     106.904 131.185 135.906  0.00  0.00    +0.000 OA
ATOM     44  C   UNL     1     107.472 131.467 135.379  0.00  0.00    +0.000 C 
ATOM     45  C   UNL     1     107.347 132.176 134.979  0.00  0.00    +0.000 C 
ENDBRANCH  42  44
ENDBRANCH  38  42
ENDBRANCH  32  39
ENDBRANCH  31  32
ENDBRANCH   5  31
TORSDOF 9
ENDMDL
MODEL 9
REMARK VINA RESULT:      -9.9      1.378      4.840
REMARK  Name = 44257892
REMARK  9 active torsions:
REMARK  status: ('A' for Active; 'I' for Inactive)
REMARK    1  A    between atoms: O_3  and  C_22
REMARK    2  A    between atoms: O_3  and  C_25
REMARK    3  A    between atoms: O_4  and  C_21
REMARK    4  A    between atoms: O_4  and  C_29
REMARK    5  A    between atoms: O_9  and  C_26
REMARK    6  A    between atoms: O_9  and  C_28
REMARK    7  A    between atoms: O_15  and  C_44
REMARK    8  A    between atoms: C_16  and  C_25
REMARK    9  A    between atoms: C_37  and  C_39
REMARK                            x       y       z     vdW  Elec       q    Type
REMARK                         _______ _______ _______ _____ _____    ______ ____
ROOT
ATOM      1  O   UNL     1     109.924 128.864 136.742  0.00  0.00    +0.000 OA
ATOM      2  O   UNL     1     109.358 130.972 136.711  0.00  0.00    +0.000 OA
ATOM      3  O   UNL     1     108.091 130.297 135.899  0.00  0.00    +0.000 OA
ATOM      4  O   UNL     1     108.045 128.666 135.648  0.00  0.00    +0.000 OA
ATOM      5  C   UNL     1     109.947 129.679 136.868  0.00  0.00    +0.000 C 
ATOM      6  C   UNL     1     109.336 130.157 136.587  0.00  0.00    +0.000 C 
ATOM      7  C   UNL     1     108.702 129.819 136.180  0.00  0.00    +0.000 C 
ATOM      8  C   UNL     1     108.680 129.004 136.055  0.00  0.00    +0.000 C 
ATOM      9  C   UNL     1     109.291 128.526 136.336  0.00  0.00    +0.000 C 
ENDROOT
BRANCH   9  10
ATOM     10  O   UNL     1     109.268 127.711 136.211  0.00  0.00    +0.000 OA
BRANCH  10  14
ATOM     11  O   UNL     1     111.566 126.113 137.015  0.00  0.00    +0.000 OA
ATOM     12  O   UNL     1     109.213 126.171 138.691  0.00  0.00    +0.000 OA
ATOM     13  O   UNL     1     110.370 125.390 139.058  0.00  0.00    +0.000 OA
ATOM     14  C   UNL     1     109.632 127.200 136.746  0.00  0.00    +0.000 A 
ATOM     15  C   UNL     1     110.429 126.916 136.598  0.00  0.00    +0.000 A 
ATOM     16  C   UNL     1     109.216 126.950 137.456  0.00  0.00    +0.000 A 
ATOM     17  C   UNL     1     110.800 126.383 137.162  0.00  0.00    +0.000 A 
ATOM     18  C   UNL     1     109.604 126.417 138.008  0.00  0.00    +0.000 A 
ATOM     19  C   UNL     1     110.401 126.143 137.843  0.00  0.00    +0.000 A 
ATOM     20  C   UNL     1     110.768 125.632 138.376  0.00  0.00    +0.000 A 
ATOM     21  C   UNL     1     111.932 125.602 137.549  0.00  0.00    +0.000 A 
ATOM     22  C   UNL     1     111.533 125.361 138.230  0.00  0.00    +0.000 A 
BRANCH  21  23
ATOM     23  C   UNL     1     112.698 125.332 137.402  0.00  0.00    +0.000 A 
ATOM     24  C   UNL     1     113.347 125.783 137.637  0.00  0.00    +0.000 A 
ATOM     25  C   UNL     1     112.814 124.610 137.020  0.00  0.00    +0.000 A 
ATOM     26  C   UNL     1     114.112 125.512 137.489  0.00  0.00    +0.000 A 
ATOM     27  C   UNL     1     113.579 124.339 136.873  0.00  0.00    +0.000 A 
ATOM     28  C   UNL     1     114.229 124.790 137.107  0.00  0.00    +0.000 A 
BRANCH  28  29
ATOM     29  O   UNL     1     114.994 124.520 136.960  0.00  0.00    +0.000 OA
ATOM     30  C   UNL     1     115.450 124.872 136.370  0.00  0.00    +0.000 C 
ENDBRANCH  28  29
ENDBRANCH  21  23
ENDBRANCH  10  14
ENDBRANCH   9  10
BRANCH   5  31
ATOM     31  C   UNL     1     110.580 130.017 137.274  0.00  0.00    +0.000 C 
BRANCH  31  32
ATOM     32  O   UNL     1     111.348 129.929 136.986  0.00  0.00    +0.000 OA
BRANCH  32  39
ATOM     33  O   UNL     1     111.952 129.436 138.184  0.00  0.00    +0.000 OA
ATOM     34  O   UNL     1     113.965 130.804 137.733  0.00  0.00    +0.000 OA
ATOM     35  O   UNL     1     112.690 130.841 136.685  0.00  0.00    +0.000 OA
ATOM     36  C   UNL     1     113.294 130.348 137.883  0.00  0.00    +0.000 C 
ATOM     37  C   UNL     1     112.657 130.367 137.360  0.00  0.00    +0.000 C 
ATOM     38  C   UNL     1     113.261 129.873 138.557  0.00  0.00    +0.000 C 
ATOM     39  C   UNL     1     111.986 129.911 137.510  0.00  0.00    +0.000 C 
ATOM     40  C   UNL     1     112.590 129.418 138.708  0.00  0.00    +0.000 C 
ATOM     41  C   UNL     1     112.555 128.943 139.382  0.00  0.00    +0.000 C 
BRANCH  38  42
ATOM     42  O   UNL     1     113.897 129.855 139.081  0.00  0.00    +0.000 OA
BRANCH  42  44
ATOM     43  O   UNL     1     113.300 130.783 139.988  0.00  0.00    +0.000 OA
ATOM     44  C   UNL     1     113.973 130.438 139.660  0.00  0.00    +0.000 C 
ATOM     45  C   UNL     1     114.722 130.675 139.912  0.00  0.00    +0.000 C 
ENDBRANCH  42  44
ENDBRANCH  38  42
ENDBRANCH  32  39
ENDBRANCH  31  32
ENDBRANCH   5  31
TORSDOF 9
ENDMDL
MODEL 10
REMARK VINA RESULT:      -9.9      7.721      9.526
REMARK  Name = 44257892
REMARK  9 active torsions:
REMARK  status: ('A' for Active; 'I' for Inactive)
REMARK    1  A    between atoms: O_3  and  C_22
REMARK    2  A    between atoms: O_3  and  C_25
REMARK    3  A    between atoms: O_4  and  C_21
REMARK    4  A    between atoms: O_4  and  C_29
REMARK    5  A    between atoms: O_9  and  C_26
REMARK    6  A    between atoms: O_9  and  C_28
REMARK    7  A    between atoms: O_15  and  C_44
REMARK    8  A    between atoms: C_16  and  C_25
REMARK    9  A    between atoms: C_37  and  C_39
REMARK                            x       y       z     vdW  Elec       q    Type
REMARK                         _______ _______ _______ _____ _____    ______ ____
ROOT
ATOM      1  O   UNL     1     106.376 125.888 143.399  0.00  0.00    +0.000 OA
ATOM      2  O   UNL     1     105.283 124.103 144.020  0.00  0.00    +0.000 OA
ATOM      3  O   UNL     1     105.477 124.870 145.468  0.00  0.00    +0.000 OA
ATOM      4  O   UNL     1     106.270 126.316 145.537  0.00  0.00    +0.000 OA
ATOM      5  C   UNL     1     105.979 125.165 143.364  0.00  0.00    +0.000 C 
ATOM      6  C   UNL     1     105.680 124.826 144.053  0.00  0.00    +0.000 C 
ATOM      7  C   UNL     1     105.776 125.210 144.778  0.00  0.00    +0.000 C 
ATOM      8  C   UNL     1     106.173 125.932 144.812  0.00  0.00    +0.000 C 
ATOM      9  C   UNL     1     106.473 126.271 144.122  0.00  0.00    +0.000 C 
ENDROOT
BRANCH   9  10
ATOM     10  O   UNL     1     106.869 126.994 144.157  0.00  0.00    +0.000 OA
BRANCH  10  14
ATOM     11  O   UNL     1     105.078 128.998 143.038  0.00  0.00    +0.000 OA
ATOM     12  O   UNL     1     107.679 128.588 141.849  0.00  0.00    +0.000 OA
ATOM     13  O   UNL     1     106.765 129.573 141.321  0.00  0.00    +0.000 OA
ATOM     14  C   UNL     1     106.711 127.579 143.599  0.00  0.00    +0.000 A 
ATOM     15  C   UNL     1     105.958 127.995 143.609  0.00  0.00    +0.000 A 
ATOM     16  C   UNL     1     107.297 127.779 143.002  0.00  0.00    +0.000 A 
ATOM     17  C   UNL     1     105.802 128.604 143.023  0.00  0.00    +0.000 A 
ATOM     18  C   UNL     1     107.122 128.391 142.424  0.00  0.00    +0.000 A 
ATOM     19  C   UNL     1     106.365 128.795 142.451  0.00  0.00    +0.000 A 
ATOM     20  C   UNL     1     106.203 129.381 141.894  0.00  0.00    +0.000 A 
ATOM     21  C   UNL     1     104.916 129.585 142.481  0.00  0.00    +0.000 A 
ATOM     22  C   UNL     1     105.479 129.776 141.909  0.00  0.00    +0.000 A 
BRANCH  21  23
ATOM     23  C   UNL     1     104.192 129.980 142.496  0.00  0.00    +0.000 A 
ATOM     24  C   UNL     1     104.077 130.611 143.014  0.00  0.00    +0.000 A 
ATOM     25  C   UNL     1     103.583 129.744 141.992  0.00  0.00    +0.000 A 
ATOM     26  C   UNL     1     103.352 131.006 143.029  0.00  0.00    +0.000 A 
ATOM     27  C   UNL     1     102.859 130.139 142.007  0.00  0.00    +0.000 A 
ATOM     28  C   UNL     1     102.743 130.770 142.525  0.00  0.00    +0.000 A 
BRANCH  28  29
ATOM     29  O   UNL     1     102.019 131.165 142.539  0.00  0.00    +0.000 OA
ATOM     30  C   UNL     1     101.911 131.809 143.044  0.00  0.00    +0.000 C 
ENDBRANCH  28  29
ENDBRANCH  21  23
ENDBRANCH  10  14
ENDBRANCH   9  10
BRANCH   5  31
ATOM     31  C   UNL     1     105.882 124.782 142.640  0.00  0.00    +0.000 C 
BRANCH  31  32
ATOM     32  O   UNL     1     105.795 125.223 141.949  0.00  0.00    +0.000 OA
BRANCH  32  39
ATOM     33  O   UNL     1     105.827 124.035 141.154  0.00  0.00    +0.000 OA
ATOM     34  O   UNL     1     104.934 125.302 139.225  0.00  0.00    +0.000 OA
ATOM     35  O   UNL     1     105.199 126.067 140.662  0.00  0.00    +0.000 OA
ATOM     36  C   UNL     1     105.231 124.880 139.868  0.00  0.00    +0.000 C 
ATOM     37  C   UNL     1     105.364 125.262 140.586  0.00  0.00    +0.000 C 
ATOM     38  C   UNL     1     105.396 124.075 139.791  0.00  0.00    +0.000 C 
ATOM     39  C   UNL     1     105.662 124.840 141.229  0.00  0.00    +0.000 C 
ATOM     40  C   UNL     1     105.694 123.653 140.434  0.00  0.00    +0.000 C 
ATOM     41  C   UNL     1     105.860 122.848 140.359  0.00  0.00    +0.000 C 
BRANCH  38  42
ATOM     42  O   UNL     1     105.264 123.693 139.073  0.00  0.00    +0.000 OA
BRANCH  42  44
ATOM     43  O   UNL     1     103.999 123.114 139.399  0.00  0.00    +0.000 OA
ATOM     44  C   UNL     1     104.498 123.480 138.853  0.00  0.00    +0.000 C 
ATOM     45  C   UNL     1     104.230 123.634 138.089  0.00  0.00    +0.000 C 
ENDBRANCH  42  44
ENDBRANCH  38  42
ENDBRANCH  32  39
ENDBRANCH  31  32
ENDBRANCH   5  31
TORSDOF 9
ENDMDL
