MODEL 1
REMARK VINA RESULT:     -10.9      0.000      0.000
REMARK  Name = 44258092
REMARK  7 active torsions:
REMARK  status: ('A' for Active; 'I' for Inactive)
REMARK    1  A    between atoms: O_3  and  C_26
REMARK    2  A    between atoms: O_3  and  C_31
REMARK    3  A    between atoms: O_5  and  C_28
REMARK    4  A    between atoms: O_5  and  C_32
REMARK    5  A    between atoms: C_25  and  C_29
REMARK    6  A    between atoms: C_27  and  C_30
REMARK    7  A    between atoms: C_37  and  C_41
REMARK                            x       y       z     vdW  Elec       q    Type
REMARK                         _______ _______ _______ _____ _____    ______ ____
ROOT
ATOM      1  O   UNL     1     110.245 127.996 135.913  0.00  0.00    +0.000 OA
ATOM      2  O   UNL     1     107.839 129.595 135.864  0.00  0.00    +0.000 OA
ATOM      3  O   UNL     1     107.778 128.156 135.778  0.00  0.00    +0.000 OA
ATOM      4  C   UNL     1     109.985 130.212 136.025  0.00  0.00    +0.000 A 
ATOM      5  C   UNL     1     110.362 129.441 136.003  0.00  0.00    +0.000 A 
ATOM      6  C   UNL     1     109.130 130.268 135.979  0.00  0.00    +0.000 A 
ATOM      7  C   UNL     1     109.877 128.734 135.934  0.00  0.00    +0.000 A 
ATOM      8  C   UNL     1     109.055 128.788 135.889  0.00  0.00    +0.000 A 
ATOM      9  C   UNL     1     108.661 129.550 135.910  0.00  0.00    +0.000 A 
ATOM     10  C   UNL     1     109.789 127.310 135.847  0.00  0.00    +0.000 A 
ATOM     11  C   UNL     1     108.600 128.103 135.823  0.00  0.00    +0.000 A 
ATOM     12  C   UNL     1     108.967 127.364 135.802  0.00  0.00    +0.000 A 
ENDROOT
BRANCH  10  16
ATOM     13  O   UNL     1     111.259 124.358 135.761  0.00  0.00    +0.000 OA
ATOM     14  C   UNL     1     110.796 125.488 136.502  0.00  0.00    +0.000 A 
ATOM     15  C   UNL     1     110.428 126.226 136.524  0.00  0.00    +0.000 A 
ATOM     16  C   UNL     1     110.157 126.572 135.826  0.00  0.00    +0.000 A 
ATOM     17  C   UNL     1     110.892 125.096 135.782  0.00  0.00    +0.000 A 
ATOM     18  C   UNL     1     110.253 126.180 135.106  0.00  0.00    +0.000 A 
ATOM     19  C   UNL     1     110.620 125.442 135.085  0.00  0.00    +0.000 A 
BRANCH  14  20
ATOM     20  O   UNL     1     111.067 125.141 137.200  0.00  0.00    +0.000 OA
BRANCH  20  29
ATOM     21  O   UNL     1     112.305 125.845 137.311  0.00  0.00    +0.000 OA
ATOM     22  O   UNL     1     111.962 126.065 139.752  0.00  0.00    +0.000 OA
ATOM     23  O   UNL     1     113.315 126.695 139.049  0.00  0.00    +0.000 OA
ATOM     24  O   UNL     1     110.838 125.288 138.828  0.00  0.00    +0.000 OA
ATOM     25  C   UNL     1     112.077 125.991 138.938  0.00  0.00    +0.000 C 
ATOM     26  C   UNL     1     112.753 126.307 138.587  0.00  0.00    +0.000 C 
ATOM     27  C   UNL     1     111.514 125.603 138.476  0.00  0.00    +0.000 C 
ATOM     28  C   UNL     1     112.867 126.233 137.773  0.00  0.00    +0.000 C 
ATOM     29  C   UNL     1     111.629 125.529 137.662  0.00  0.00    +0.000 C 
BRANCH  28  32
ATOM     30  O   UNL     1     114.206 126.071 137.301  0.00  0.00    +0.000 OA
ATOM     31  O   UNL     1     113.560 127.342 137.193  0.00  0.00    +0.000 OA
ATOM     32  C   UNL     1     113.544 126.549 137.422  0.00  0.00    +0.000 C 
ENDBRANCH  28  32
ENDBRANCH  20  29
ENDBRANCH  14  20
ENDBRANCH  10  16
BRANCH   4  33
ATOM     33  O   UNL     1     110.443 130.896 136.091  0.00  0.00    +0.000 OA
BRANCH  33  42
ATOM     34  O   UNL     1     110.629 130.918 137.508  0.00  0.00    +0.000 OA
ATOM     35  O   UNL     1     110.185 133.352 137.529  0.00  0.00    +0.000 OA
ATOM     36  O   UNL     1     110.519 132.563 138.938  0.00  0.00    +0.000 OA
ATOM     37  O   UNL     1     110.146 132.519 136.105  0.00  0.00    +0.000 OA
ATOM     38  C   UNL     1     110.333 132.541 137.522  0.00  0.00    +0.000 C 
ATOM     39  C   UNL     1     110.500 132.145 138.226  0.00  0.00    +0.000 C 
ATOM     40  C   UNL     1     110.314 132.124 136.810  0.00  0.00    +0.000 C 
ATOM     41  C   UNL     1     110.648 131.335 138.219  0.00  0.00    +0.000 C 
ATOM     42  C   UNL     1     110.462 131.313 136.803  0.00  0.00    +0.000 C 
BRANCH  41  45
ATOM     43  O   UNL     1     111.597 130.870 139.181  0.00  0.00    +0.000 OA
ATOM     44  O   UNL     1     110.203 130.614 139.370  0.00  0.00    +0.000 OA
ATOM     45  C   UNL     1     110.816 130.939 138.924  0.00  0.00    +0.000 C 
ENDBRANCH  41  45
ENDBRANCH  33  42
ENDBRANCH   4  33
TORSDOF 7
ENDMDL
MODEL 2
REMARK VINA RESULT:     -10.5      1.659      2.910
REMARK  Name = 44258092
REMARK  7 active torsions:
REMARK  status: ('A' for Active; 'I' for Inactive)
REMARK    1  A    between atoms: O_3  and  C_26
REMARK    2  A    between atoms: O_3  and  C_31
REMARK    3  A    between atoms: O_5  and  C_28
REMARK    4  A    between atoms: O_5  and  C_32
REMARK    5  A    between atoms: C_25  and  C_29
REMARK    6  A    between atoms: C_27  and  C_30
REMARK    7  A    between atoms: C_37  and  C_41
REMARK                            x       y       z     vdW  Elec       q    Type
REMARK                         _______ _______ _______ _____ _____    ______ ____
ROOT
ATOM      1  O   UNL     1     111.462 128.770 136.278  0.00  0.00    +0.000 OA
ATOM      2  O   UNL     1     113.775 130.410 135.728  0.00  0.00    +0.000 OA
ATOM      3  O   UNL     1     113.452 129.277 134.896  0.00  0.00    +0.000 OA
ATOM      4  C   UNL     1     112.239 130.570 137.349  0.00  0.00    +0.000 A 
ATOM      5  C   UNL     1     111.742 129.899 137.147  0.00  0.00    +0.000 A 
ATOM      6  C   UNL     1     112.929 130.746 136.870  0.00  0.00    +0.000 A 
ATOM      7  C   UNL     1     111.943 129.412 136.467  0.00  0.00    +0.000 A 
ATOM      8  C   UNL     1     112.606 129.582 136.007  0.00  0.00    +0.000 A 
ATOM      9  C   UNL     1     113.114 130.248 136.194  0.00  0.00    +0.000 A 
ATOM     10  C   UNL     1     111.645 128.295 135.627  0.00  0.00    +0.000 A 
ATOM     11  C   UNL     1     112.789 129.108 135.357  0.00  0.00    +0.000 A 
ATOM     12  C   UNL     1     112.308 128.464 135.167  0.00  0.00    +0.000 A 
ENDROOT
BRANCH  10  16
ATOM     13  O   UNL     1     109.720 125.724 134.871  0.00  0.00    +0.000 OA
ATOM     14  C   UNL     1     110.723 126.318 135.696  0.00  0.00    +0.000 A 
ATOM     15  C   UNL     1     111.205 126.960 135.886  0.00  0.00    +0.000 A 
ATOM     16  C   UNL     1     111.164 127.652 135.439  0.00  0.00    +0.000 A 
ATOM     17  C   UNL     1     110.201 126.367 135.059  0.00  0.00    +0.000 A 
ATOM     18  C   UNL     1     110.642 127.702 134.802  0.00  0.00    +0.000 A 
ATOM     19  C   UNL     1     110.161 127.059 134.612  0.00  0.00    +0.000 A 
BRANCH  14  20
ATOM     20  O   UNL     1     110.764 125.626 136.144  0.00  0.00    +0.000 OA
BRANCH  20  29
ATOM     21  O   UNL     1     110.082 126.058 137.322  0.00  0.00    +0.000 OA
ATOM     22  O   UNL     1     111.814 124.979 138.722  0.00  0.00    +0.000 OA
ATOM     23  O   UNL     1     110.554 125.771 139.434  0.00  0.00    +0.000 OA
ATOM     24  O   UNL     1     111.919 124.905 137.077  0.00  0.00    +0.000 OA
ATOM     25  C   UNL     1     111.236 125.338 138.255  0.00  0.00    +0.000 C 
ATOM     26  C   UNL     1     110.606 125.735 138.611  0.00  0.00    +0.000 C 
ATOM     27  C   UNL     1     111.289 125.302 137.433  0.00  0.00    +0.000 C 
ATOM     28  C   UNL     1     110.029 126.095 138.144  0.00  0.00    +0.000 C 
ATOM     29  C   UNL     1     110.712 125.662 136.966  0.00  0.00    +0.000 C 
BRANCH  28  32
ATOM     30  O   UNL     1     108.680 126.103 138.614  0.00  0.00    +0.000 OA
ATOM     31  O   UNL     1     109.489 127.274 138.745  0.00  0.00    +0.000 OA
ATOM     32  C   UNL     1     109.400 126.491 138.501  0.00  0.00    +0.000 C 
ENDBRANCH  28  32
ENDBRANCH  20  29
ENDBRANCH  14  20
ENDBRANCH  10  16
BRANCH   4  33
ATOM     33  O   UNL     1     112.054 131.042 138.000  0.00  0.00    +0.000 OA
BRANCH  33  42
ATOM     34  O   UNL     1     111.184 131.967 137.345  0.00  0.00    +0.000 OA
ATOM     35  O   UNL     1     109.663 131.918 139.297  0.00  0.00    +0.000 OA
ATOM     36  O   UNL     1     109.300 132.859 137.991  0.00  0.00    +0.000 OA
ATOM     37  O   UNL     1     111.040 131.010 139.301  0.00  0.00    +0.000 OA
ATOM     38  C   UNL     1     110.170 131.934 138.646  0.00  0.00    +0.000 C 
ATOM     39  C   UNL     1     109.989 132.405 137.993  0.00  0.00    +0.000 C 
ATOM     40  C   UNL     1     110.859 131.480 138.648  0.00  0.00    +0.000 C 
ATOM     41  C   UNL     1     110.495 132.421 137.343  0.00  0.00    +0.000 C 
ATOM     42  C   UNL     1     111.365 131.496 137.998  0.00  0.00    +0.000 C 
BRANCH  41  45
ATOM     43  O   UNL     1     109.783 132.618 136.120  0.00  0.00    +0.000 OA
ATOM     44  O   UNL     1     110.663 133.634 136.607  0.00  0.00    +0.000 OA
ATOM     45  C   UNL     1     110.314 132.891 136.690  0.00  0.00    +0.000 C 
ENDBRANCH  41  45
ENDBRANCH  33  42
ENDBRANCH   4  33
TORSDOF 7
ENDMDL
MODEL 3
REMARK VINA RESULT:     -10.4      7.466     10.205
REMARK  Name = 44258092
REMARK  7 active torsions:
REMARK  status: ('A' for Active; 'I' for Inactive)
REMARK    1  A    between atoms: O_3  and  C_26
REMARK    2  A    between atoms: O_3  and  C_31
REMARK    3  A    between atoms: O_5  and  C_28
REMARK    4  A    between atoms: O_5  and  C_32
REMARK    5  A    between atoms: C_25  and  C_29
REMARK    6  A    between atoms: C_27  and  C_30
REMARK    7  A    between atoms: C_37  and  C_41
REMARK                            x       y       z     vdW  Elec       q    Type
REMARK                         _______ _______ _______ _____ _____    ______ ____
ROOT
ATOM      1  O   UNL     1     103.008 130.405 142.017  0.00  0.00    +0.000 OA
ATOM      2  O   UNL     1     103.613 128.178 140.279  0.00  0.00    +0.000 OA
ATOM      3  O   UNL     1     102.637 129.171 139.904  0.00  0.00    +0.000 OA
ATOM      4  C   UNL     1     104.444 128.714 142.288  0.00  0.00    +0.000 A 
ATOM      5  C   UNL     1     104.000 129.433 142.444  0.00  0.00    +0.000 A 
ATOM      6  C   UNL     1     104.316 128.286 141.555  0.00  0.00    +0.000 A 
ATOM      7  C   UNL     1     103.432 129.714 141.862  0.00  0.00    +0.000 A 
ATOM      8  C   UNL     1     103.308 129.303 141.158  0.00  0.00    +0.000 A 
ATOM      9  C   UNL     1     103.743 128.583 140.986  0.00  0.00    +0.000 A 
ATOM     10  C   UNL     1     102.460 130.684 141.467  0.00  0.00    +0.000 A 
ATOM     11  C   UNL     1     102.760 129.582 140.608  0.00  0.00    +0.000 A 
ATOM     12  C   UNL     1     102.336 130.273 140.762  0.00  0.00    +0.000 A 
ENDROOT
BRANCH  10  16
ATOM     13  O   UNL     1     100.764 133.446 142.087  0.00  0.00    +0.000 OA
ATOM     14  C   UNL     1     101.918 132.797 141.550  0.00  0.00    +0.000 A 
ATOM     15  C   UNL     1     102.342 132.107 141.395  0.00  0.00    +0.000 A 
ATOM     16  C   UNL     1     102.036 131.375 141.621  0.00  0.00    +0.000 A 
ATOM     17  C   UNL     1     101.188 132.755 141.932  0.00  0.00    +0.000 A 
ATOM     18  C   UNL     1     101.306 131.333 142.004  0.00  0.00    +0.000 A 
ATOM     19  C   UNL     1     100.882 132.023 142.159  0.00  0.00    +0.000 A 
BRANCH  14  20
ATOM     20  O   UNL     1     102.223 133.529 141.323  0.00  0.00    +0.000 OA
BRANCH  20  29
ATOM     21  O   UNL     1     103.147 133.716 142.396  0.00  0.00    +0.000 OA
ATOM     22  O   UNL     1     104.824 134.593 140.800  0.00  0.00    +0.000 OA
ATOM     23  O   UNL     1     105.189 134.488 142.406  0.00  0.00    +0.000 OA
ATOM     24  O   UNL     1     103.341 134.113 140.258  0.00  0.00    +0.000 OA
ATOM     25  C   UNL     1     104.265 134.301 141.332  0.00  0.00    +0.000 C 
ATOM     26  C   UNL     1     104.447 134.248 142.135  0.00  0.00    +0.000 C 
ATOM     27  C   UNL     1     103.523 134.061 141.061  0.00  0.00    +0.000 C 
ATOM     28  C   UNL     1     103.889 133.956 142.667  0.00  0.00    +0.000 C 
ATOM     29  C   UNL     1     102.964 133.769 141.593  0.00  0.00    +0.000 C 
BRANCH  28  32
ATOM     30  O   UNL     1     103.860 134.516 143.981  0.00  0.00    +0.000 OA
ATOM     31  O   UNL     1     104.467 133.241 143.761  0.00  0.00    +0.000 OA
ATOM     32  C   UNL     1     104.072 133.904 143.469  0.00  0.00    +0.000 C 
ENDBRANCH  28  32
ENDBRANCH  20  29
ENDBRANCH  14  20
ENDBRANCH  10  16
BRANCH   4  33
ATOM     33  O   UNL     1     104.992 128.437 142.840  0.00  0.00    +0.000 OA
BRANCH  33  42
ATOM     34  O   UNL     1     106.106 129.130 142.273  0.00  0.00    +0.000 OA
ATOM     35  O   UNL     1     107.609 127.301 142.995  0.00  0.00    +0.000 OA
ATOM     36  O   UNL     1     108.222 128.602 142.188  0.00  0.00    +0.000 OA
ATOM     37  O   UNL     1     105.994 127.218 143.321  0.00  0.00    +0.000 OA
ATOM     38  C   UNL     1     107.108 127.911 142.754  0.00  0.00    +0.000 C 
ATOM     39  C   UNL     1     107.414 128.562 142.351  0.00  0.00    +0.000 C 
ATOM     40  C   UNL     1     106.300 127.869 142.918  0.00  0.00    +0.000 C 
ATOM     41  C   UNL     1     106.913 129.170 142.110  0.00  0.00    +0.000 C 
ATOM     42  C   UNL     1     105.799 128.478 142.677  0.00  0.00    +0.000 C 
BRANCH  41  45
ATOM     43  O   UNL     1     107.317 129.790 140.888  0.00  0.00    +0.000 OA
ATOM     44  O   UNL     1     107.427 130.504 142.121  0.00  0.00    +0.000 OA
ATOM     45  C   UNL     1     107.219 129.822 141.707  0.00  0.00    +0.000 C 
ENDBRANCH  41  45
ENDBRANCH  33  42
ENDBRANCH   4  33
TORSDOF 7
ENDMDL
MODEL 4
REMARK VINA RESULT:     -10.4      1.860      6.518
REMARK  Name = 44258092
REMARK  7 active torsions:
REMARK  status: ('A' for Active; 'I' for Inactive)
REMARK    1  A    between atoms: O_3  and  C_26
REMARK    2  A    between atoms: O_3  and  C_31
REMARK    3  A    between atoms: O_5  and  C_28
REMARK    4  A    between atoms: O_5  and  C_32
REMARK    5  A    between atoms: C_25  and  C_29
REMARK    6  A    between atoms: C_27  and  C_30
REMARK    7  A    between atoms: C_37  and  C_41
REMARK                            x       y       z     vdW  Elec       q    Type
REMARK                         _______ _______ _______ _____ _____    ______ ____
ROOT
ATOM      1  O   UNL     1     112.526 128.606 138.377  0.00  0.00    +0.000 OA
ATOM      2  O   UNL     1     113.999 127.317 140.502  0.00  0.00    +0.000 OA
ATOM      3  O   UNL     1     114.113 128.736 140.272  0.00  0.00    +0.000 OA
ATOM      4  C   UNL     1     112.578 126.460 138.998  0.00  0.00    +0.000 A 
ATOM      5  C   UNL     1     112.374 127.174 138.565  0.00  0.00    +0.000 A 
ATOM      6  C   UNL     1     113.128 126.505 139.656  0.00  0.00    +0.000 A 
ATOM      7  C   UNL     1     112.725 127.924 138.796  0.00  0.00    +0.000 A 
ATOM      8  C   UNL     1     113.254 127.967 139.428  0.00  0.00    +0.000 A 
ATOM      9  C   UNL     1     113.469 127.264 139.872  0.00  0.00    +0.000 A 
ATOM     10  C   UNL     1     112.856 129.332 138.590  0.00  0.00    +0.000 A 
ATOM     11  C   UNL     1     113.584 128.693 139.640  0.00  0.00    +0.000 A 
ATOM     12  C   UNL     1     113.386 129.375 139.221  0.00  0.00    +0.000 A 
ENDROOT
BRANCH  10  16
ATOM     13  O   UNL     1     112.061 132.059 136.911  0.00  0.00    +0.000 OA
ATOM     14  C   UNL     1     111.862 131.193 138.029  0.00  0.00    +0.000 A 
ATOM     15  C   UNL     1     112.061 130.511 138.449  0.00  0.00    +0.000 A 
ATOM     16  C   UNL     1     112.657 130.014 138.170  0.00  0.00    +0.000 A 
ATOM     17  C   UNL     1     112.260 131.377 137.330  0.00  0.00    +0.000 A 
ATOM     18  C   UNL     1     113.055 130.198 137.471  0.00  0.00    +0.000 A 
ATOM     19  C   UNL     1     112.856 130.880 137.051  0.00  0.00    +0.000 A 
BRANCH  14  20
ATOM     20  O   UNL     1     111.266 131.690 138.308  0.00  0.00    +0.000 OA
BRANCH  20  29
ATOM     21  O   UNL     1     110.121 130.914 137.953  0.00  0.00    +0.000 OA
ATOM     22  O   UNL     1     109.114 131.386 140.164  0.00  0.00    +0.000 OA
ATOM     23  O   UNL     1     108.304 130.452 139.071  0.00  0.00    +0.000 OA
ATOM     24  O   UNL     1     110.595 132.006 139.782  0.00  0.00    +0.000 OA
ATOM     25  C   UNL     1     109.450 131.229 139.427  0.00  0.00    +0.000 C 
ATOM     26  C   UNL     1     109.045 130.761 138.880  0.00  0.00    +0.000 C 
ATOM     27  C   UNL     1     110.190 131.538 139.236  0.00  0.00    +0.000 C 
ATOM     28  C   UNL     1     109.381 130.604 138.144  0.00  0.00    +0.000 C 
ATOM     29  C   UNL     1     110.526 131.381 138.499  0.00  0.00    +0.000 C 
BRANCH  28  32
ATOM     30  O   UNL     1     108.493 130.491 137.030  0.00  0.00    +0.000 OA
ATOM     31  O   UNL     1     109.052 129.315 137.619  0.00  0.00    +0.000 OA
ATOM     32  C   UNL     1     108.975 130.136 137.598  0.00  0.00    +0.000 C 
ENDBRANCH  28  32
ENDBRANCH  20  29
ENDBRANCH  14  20
ENDBRANCH  10  16
BRANCH   4  33
ATOM     33  O   UNL     1     112.246 125.736 138.784  0.00  0.00    +0.000 OA
BRANCH  33  42
ATOM     34  O   UNL     1     113.334 125.346 137.944  0.00  0.00    +0.000 OA
ATOM     35  O   UNL     1     111.768 124.092 136.495  0.00  0.00    +0.000 OA
ATOM     36  O   UNL     1     113.378 124.120 136.139  0.00  0.00    +0.000 OA
ATOM     37  O   UNL     1     111.202 124.900 137.818  0.00  0.00    +0.000 OA
ATOM     38  C   UNL     1     112.290 124.510 136.978  0.00  0.00    +0.000 C 
ATOM     39  C   UNL     1     113.096 124.524 136.800  0.00  0.00    +0.000 C 
ATOM     40  C   UNL     1     112.007 124.914 137.640  0.00  0.00    +0.000 C 
ATOM     41  C   UNL     1     113.617 124.942 137.283  0.00  0.00    +0.000 C 
ATOM     42  C   UNL     1     112.528 125.332 138.122  0.00  0.00    +0.000 C 
BRANCH  41  45
ATOM     43  O   UNL     1     114.934 124.418 137.466  0.00  0.00    +0.000 OA
ATOM     44  O   UNL     1     114.717 125.509 136.567  0.00  0.00    +0.000 OA
ATOM     45  C   UNL     1     114.422 124.957 137.105  0.00  0.00    +0.000 C 
ENDBRANCH  41  45
ENDBRANCH  33  42
ENDBRANCH   4  33
TORSDOF 7
ENDMDL
MODEL 5
REMARK VINA RESULT:     -10.4      1.510      5.947
REMARK  Name = 44258092
REMARK  7 active torsions:
REMARK  status: ('A' for Active; 'I' for Inactive)
REMARK    1  A    between atoms: O_3  and  C_26
REMARK    2  A    between atoms: O_3  and  C_31
REMARK    3  A    between atoms: O_5  and  C_28
REMARK    4  A    between atoms: O_5  and  C_32
REMARK    5  A    between atoms: C_25  and  C_29
REMARK    6  A    between atoms: C_27  and  C_30
REMARK    7  A    between atoms: C_37  and  C_41
REMARK                            x       y       z     vdW  Elec       q    Type
REMARK                         _______ _______ _______ _____ _____    ______ ____
ROOT
ATOM      1  O   UNL     1     111.331 128.993 136.184  0.00  0.00    +0.000 OA
ATOM      2  O   UNL     1     114.060 128.349 135.488  0.00  0.00    +0.000 OA
ATOM      3  O   UNL     1     113.279 129.251 134.678  0.00  0.00    +0.000 OA
ATOM      4  C   UNL     1     112.801 127.654 137.204  0.00  0.00    +0.000 A 
ATOM      5  C   UNL     1     112.073 128.079 137.034  0.00  0.00    +0.000 A 
ATOM      6  C   UNL     1     113.477 127.744 136.682  0.00  0.00    +0.000 A 
ATOM      7  C   UNL     1     112.032 128.588 136.342  0.00  0.00    +0.000 A 
ATOM      8  C   UNL     1     112.681 128.674 135.840  0.00  0.00    +0.000 A 
ATOM      9  C   UNL     1     113.416 128.258 135.995  0.00  0.00    +0.000 A 
ATOM     10  C   UNL     1     111.280 129.485 135.522  0.00  0.00    +0.000 A 
ATOM     11  C   UNL     1     112.630 129.165 135.179  0.00  0.00    +0.000 A 
ATOM     12  C   UNL     1     111.929 129.571 135.020  0.00  0.00    +0.000 A 
ENDROOT
BRANCH  10  16
ATOM     13  O   UNL     1     108.475 131.103 134.888  0.00  0.00    +0.000 OA
ATOM     14  C   UNL     1     109.731 131.022 135.564  0.00  0.00    +0.000 A 
ATOM     15  C   UNL     1     110.432 130.618 135.723  0.00  0.00    +0.000 A 
ATOM     16  C   UNL     1     110.579 129.890 135.364  0.00  0.00    +0.000 A 
ATOM     17  C   UNL     1     109.176 130.698 135.046  0.00  0.00    +0.000 A 
ATOM     18  C   UNL     1     110.024 129.566 134.846  0.00  0.00    +0.000 A 
ATOM     19  C   UNL     1     109.323 129.970 134.687  0.00  0.00    +0.000 A 
BRANCH  14  20
ATOM     20  O   UNL     1     109.584 131.750 135.923  0.00  0.00    +0.000 OA
BRANCH  20  29
ATOM     21  O   UNL     1     109.294 131.237 137.224  0.00  0.00    +0.000 OA
ATOM     22  O   UNL     1     110.398 133.203 138.246  0.00  0.00    +0.000 OA
ATOM     23  O   UNL     1     109.740 132.034 139.207  0.00  0.00    +0.000 OA
ATOM     24  O   UNL     1     110.320 133.061 136.604  0.00  0.00    +0.000 OA
ATOM     25  C   UNL     1     110.030 132.547 137.905  0.00  0.00    +0.000 C 
ATOM     26  C   UNL     1     109.701 131.963 138.386  0.00  0.00    +0.000 C 
ATOM     27  C   UNL     1     109.991 132.477 137.084  0.00  0.00    +0.000 C 
ATOM     28  C   UNL     1     109.333 131.308 138.045  0.00  0.00    +0.000 C 
ATOM     29  C   UNL     1     109.623 131.822 136.744  0.00  0.00    +0.000 C 
BRANCH  28  32
ATOM     30  O   UNL     1     108.212 130.774 138.752  0.00  0.00    +0.000 OA
ATOM     31  O   UNL     1     109.467 130.091 138.782  0.00  0.00    +0.000 OA
ATOM     32  C   UNL     1     109.004 130.724 138.526  0.00  0.00    +0.000 C 
ENDBRANCH  28  32
ENDBRANCH  20  29
ENDBRANCH  14  20
ENDBRANCH  10  16
BRANCH   4  33
ATOM     33  O   UNL     1     112.850 127.164 137.866  0.00  0.00    +0.000 OA
BRANCH  33  42
ATOM     34  O   UNL     1     112.545 125.915 137.241  0.00  0.00    +0.000 OA
ATOM     35  O   UNL     1     111.094 125.313 139.153  0.00  0.00    +0.000 OA
ATOM     36  O   UNL     1     111.273 124.266 137.891  0.00  0.00    +0.000 OA
ATOM     37  O   UNL     1     111.882 126.762 139.140  0.00  0.00    +0.000 OA
ATOM     38  C   UNL     1     111.578 125.514 138.516  0.00  0.00    +0.000 C 
ATOM     39  C   UNL     1     111.668 124.990 137.884  0.00  0.00    +0.000 C 
ATOM     40  C   UNL     1     111.972 126.239 138.509  0.00  0.00    +0.000 C 
ATOM     41  C   UNL     1     112.151 125.191 137.248  0.00  0.00    +0.000 C 
ATOM     42  C   UNL     1     112.456 126.439 137.873  0.00  0.00    +0.000 C 
BRANCH  41  45
ATOM     43  O   UNL     1     111.694 124.670 135.998  0.00  0.00    +0.000 OA
ATOM     44  O   UNL     1     112.877 124.142 136.604  0.00  0.00    +0.000 OA
ATOM     45  C   UNL     1     112.241 124.667 136.617  0.00  0.00    +0.000 C 
ENDBRANCH  41  45
ENDBRANCH  33  42
ENDBRANCH   4  33
TORSDOF 7
ENDMDL
MODEL 6
REMARK VINA RESULT:     -10.4      2.355      3.967
REMARK  Name = 44258092
REMARK  7 active torsions:
REMARK  status: ('A' for Active; 'I' for Inactive)
REMARK    1  A    between atoms: O_3  and  C_26
REMARK    2  A    between atoms: O_3  and  C_31
REMARK    3  A    between atoms: O_5  and  C_28
REMARK    4  A    between atoms: O_5  and  C_32
REMARK    5  A    between atoms: C_25  and  C_29
REMARK    6  A    between atoms: C_27  and  C_30
REMARK    7  A    between atoms: C_37  and  C_41
REMARK                            x       y       z     vdW  Elec       q    Type
REMARK                         _______ _______ _______ _____ _____    ______ ____
ROOT
ATOM      1  O   UNL     1     113.005 128.164 137.275  0.00  0.00    +0.000 OA
ATOM      2  O   UNL     1     114.284 130.550 136.263  0.00  0.00    +0.000 OA
ATOM      3  O   UNL     1     114.419 129.286 135.580  0.00  0.00    +0.000 OA
ATOM      4  C   UNL     1     113.001 130.251 138.074  0.00  0.00    +0.000 A 
ATOM      5  C   UNL     1     112.837 129.410 138.001  0.00  0.00    +0.000 A 
ATOM      6  C   UNL     1     113.491 130.640 137.487  0.00  0.00    +0.000 A 
ATOM      7  C   UNL     1     113.166 128.970 137.340  0.00  0.00    +0.000 A 
ATOM      8  C   UNL     1     113.637 129.345 136.775  0.00  0.00    +0.000 A 
ATOM      9  C   UNL     1     113.812 130.184 136.832  0.00  0.00    +0.000 A 
ATOM     10  C   UNL     1     113.316 127.731 136.644  0.00  0.00    +0.000 A 
ATOM     11  C   UNL     1     113.948 128.912 136.145  0.00  0.00    +0.000 A 
ATOM     12  C   UNL     1     113.787 128.105 136.079  0.00  0.00    +0.000 A 
ENDROOT
BRANCH  10  16
ATOM     13  O   UNL     1     112.674 124.505 136.384  0.00  0.00    +0.000 OA
ATOM     14  C   UNL     1     112.217 125.858 136.430  0.00  0.00    +0.000 A 
ATOM     15  C   UNL     1     112.377 126.665 136.494  0.00  0.00    +0.000 A 
ATOM     16  C   UNL     1     113.155 126.925 136.579  0.00  0.00    +0.000 A 
ATOM     17  C   UNL     1     112.835 125.312 136.449  0.00  0.00    +0.000 A 
ATOM     18  C   UNL     1     113.773 126.379 136.599  0.00  0.00    +0.000 A 
ATOM     19  C   UNL     1     113.613 125.572 136.534  0.00  0.00    +0.000 A 
BRANCH  14  20
ATOM     20  O   UNL     1     111.439 125.597 136.345  0.00  0.00    +0.000 OA
BRANCH  20  29
ATOM     21  O   UNL     1     110.993 125.762 137.692  0.00  0.00    +0.000 OA
ATOM     22  O   UNL     1     108.866 126.725 136.871  0.00  0.00    +0.000 OA
ATOM     23  O   UNL     1     109.130 126.568 138.493  0.00  0.00    +0.000 OA
ATOM     24  O   UNL     1     110.021 126.239 135.797  0.00  0.00    +0.000 OA
ATOM     25  C   UNL     1     109.575 126.404 137.145  0.00  0.00    +0.000 C 
ATOM     26  C   UNL     1     109.707 126.326 137.956  0.00  0.00    +0.000 C 
ATOM     27  C   UNL     1     110.152 126.161 136.608  0.00  0.00    +0.000 C 
ATOM     28  C   UNL     1     110.416 126.005 138.229  0.00  0.00    +0.000 C 
ATOM     29  C   UNL     1     110.862 125.840 136.881  0.00  0.00    +0.000 C 
BRANCH  28  32
ATOM     30  O   UNL     1     110.395 125.207 139.414  0.00  0.00    +0.000 OA
ATOM     31  O   UNL     1     110.829 126.568 139.477  0.00  0.00    +0.000 OA
ATOM     32  C   UNL     1     110.547 125.927 139.040  0.00  0.00    +0.000 C 
ENDBRANCH  28  32
ENDBRANCH  20  29
ENDBRANCH  14  20
ENDBRANCH  10  16
BRANCH   4  33
ATOM     33  O   UNL     1     112.689 130.681 138.706  0.00  0.00    +0.000 OA
BRANCH  33  42
ATOM     34  O   UNL     1     113.796 130.728 139.608  0.00  0.00    +0.000 OA
ATOM     35  O   UNL     1     112.323 129.994 141.455  0.00  0.00    +0.000 OA
ATOM     36  O   UNL     1     113.920 130.286 141.741  0.00  0.00    +0.000 OA
ATOM     37  O   UNL     1     111.707 130.192 139.937  0.00  0.00    +0.000 OA
ATOM     38  C   UNL     1     112.814 130.239 140.839  0.00  0.00    +0.000 C 
ATOM     39  C   UNL     1     113.613 130.385 140.982  0.00  0.00    +0.000 C 
ATOM     40  C   UNL     1     112.506 130.338 140.080  0.00  0.00    +0.000 C 
ATOM     41  C   UNL     1     114.104 130.629 140.367  0.00  0.00    +0.000 C 
ATOM     42  C   UNL     1     112.996 130.582 139.465  0.00  0.00    +0.000 C 
BRANCH  41  45
ATOM     43  O   UNL     1     115.154 131.536 140.710  0.00  0.00    +0.000 OA
ATOM     44  O   UNL     1     115.452 130.162 140.451  0.00  0.00    +0.000 OA
ATOM     45  C   UNL     1     114.903 130.775 140.509  0.00  0.00    +0.000 C 
ENDBRANCH  41  45
ENDBRANCH  33  42
ENDBRANCH   4  33
TORSDOF 7
ENDMDL
MODEL 7
REMARK VINA RESULT:     -10.4      2.378      3.865
REMARK  Name = 44258092
REMARK  7 active torsions:
REMARK  status: ('A' for Active; 'I' for Inactive)
REMARK    1  A    between atoms: O_3  and  C_26
REMARK    2  A    between atoms: O_3  and  C_31
REMARK    3  A    between atoms: O_5  and  C_28
REMARK    4  A    between atoms: O_5  and  C_32
REMARK    5  A    between atoms: C_25  and  C_29
REMARK    6  A    between atoms: C_27  and  C_30
REMARK    7  A    between atoms: C_37  and  C_41
REMARK                            x       y       z     vdW  Elec       q    Type
REMARK                         _______ _______ _______ _____ _____    ______ ____
ROOT
ATOM      1  O   UNL     1     112.067 128.717 136.423  0.00  0.00    +0.000 OA
ATOM      2  O   UNL     1     114.523 130.140 135.885  0.00  0.00    +0.000 OA
ATOM      3  O   UNL     1     113.917 129.297 134.884  0.00  0.00    +0.000 OA
ATOM      4  C   UNL     1     113.255 130.085 137.730  0.00  0.00    +0.000 A 
ATOM      5  C   UNL     1     112.635 129.552 137.466  0.00  0.00    +0.000 A 
ATOM      6  C   UNL     1     113.897 130.287 137.196  0.00  0.00    +0.000 A 
ATOM      7  C   UNL     1     112.665 129.228 136.670  0.00  0.00    +0.000 A 
ATOM      8  C   UNL     1     113.282 129.421 136.158  0.00  0.00    +0.000 A 
ATOM      9  C   UNL     1     113.910 129.952 136.404  0.00  0.00    +0.000 A 
ATOM     10  C   UNL     1     112.086 128.399 135.660  0.00  0.00    +0.000 A 
ATOM     11  C   UNL     1     113.301 129.104 135.396  0.00  0.00    +0.000 A 
ATOM     12  C   UNL     1     112.703 128.592 135.148  0.00  0.00    +0.000 A 
ENDROOT
BRANCH  10  16
ATOM     13  O   UNL     1     109.692 126.356 134.669  0.00  0.00    +0.000 OA
ATOM     14  C   UNL     1     110.848 126.611 135.468  0.00  0.00    +0.000 A 
ATOM     15  C   UNL     1     111.447 127.122 135.716  0.00  0.00    +0.000 A 
ATOM     16  C   UNL     1     111.488 127.888 135.413  0.00  0.00    +0.000 A 
ATOM     17  C   UNL     1     110.290 126.867 134.916  0.00  0.00    +0.000 A 
ATOM     18  C   UNL     1     110.930 128.144 134.861  0.00  0.00    +0.000 A 
ATOM     19  C   UNL     1     110.331 127.633 134.613  0.00  0.00    +0.000 A 
BRANCH  14  20
ATOM     20  O   UNL     1     110.807 125.845 135.771  0.00  0.00    +0.000 OA
BRANCH  20  29
ATOM     21  O   UNL     1     110.282 126.168 137.060  0.00  0.00    +0.000 OA
ATOM     22  O   UNL     1     111.766 124.476 138.089  0.00  0.00    +0.000 OA
ATOM     23  O   UNL     1     110.746 125.363 139.035  0.00  0.00    +0.000 OA
ATOM     24  O   UNL     1     111.797 124.717 136.457  0.00  0.00    +0.000 OA
ATOM     25  C   UNL     1     111.271 125.040 137.746  0.00  0.00    +0.000 C 
ATOM     26  C   UNL     1     110.761 125.483 138.219  0.00  0.00    +0.000 C 
ATOM     27  C   UNL     1     111.287 125.160 136.930  0.00  0.00    +0.000 C 
ATOM     28  C   UNL     1     110.267 126.047 137.876  0.00  0.00    +0.000 C 
ATOM     29  C   UNL     1     110.792 125.724 136.587  0.00  0.00    +0.000 C 
BRANCH  28  32
ATOM     30  O   UNL     1     108.968 126.263 138.430  0.00  0.00    +0.000 OA
ATOM     31  O   UNL     1     110.036 127.160 138.743  0.00  0.00    +0.000 OA
ATOM     32  C   UNL     1     109.757 126.491 138.350  0.00  0.00    +0.000 C 
ENDBRANCH  28  32
ENDBRANCH  20  29
ENDBRANCH  14  20
ENDBRANCH  10  16
BRANCH   4  33
ATOM     33  O   UNL     1     113.234 130.401 138.492  0.00  0.00    +0.000 OA
BRANCH  33  42
ATOM     34  O   UNL     1     113.271 129.200 139.265  0.00  0.00    +0.000 OA
ATOM     35  O   UNL     1     114.970 130.211 140.754  0.00  0.00    +0.000 OA
ATOM     36  O   UNL     1     114.440 128.674 141.030  0.00  0.00    +0.000 OA
ATOM     37  O   UNL     1     114.367 131.075 139.484  0.00  0.00    +0.000 OA
ATOM     38  C   UNL     1     114.404 129.874 140.258  0.00  0.00    +0.000 C 
ATOM     39  C   UNL     1     114.138 129.105 140.395  0.00  0.00    +0.000 C 
ATOM     40  C   UNL     1     114.102 130.306 139.622  0.00  0.00    +0.000 C 
ATOM     41  C   UNL     1     113.573 128.769 139.900  0.00  0.00    +0.000 C 
ATOM     42  C   UNL     1     113.536 129.970 139.127  0.00  0.00    +0.000 C 
BRANCH  41  45
ATOM     43  O   UNL     1     113.709 127.360 139.705  0.00  0.00    +0.000 OA
ATOM     44  O   UNL     1     112.642 127.871 140.507  0.00  0.00    +0.000 OA
ATOM     45  C   UNL     1     113.308 128.000 140.038  0.00  0.00    +0.000 C 
ENDBRANCH  41  45
ENDBRANCH  33  42
ENDBRANCH   4  33
TORSDOF 7
ENDMDL
MODEL 8
REMARK VINA RESULT:     -10.3      1.641      6.416
REMARK  Name = 44258092
REMARK  7 active torsions:
REMARK  status: ('A' for Active; 'I' for Inactive)
REMARK    1  A    between atoms: O_3  and  C_26
REMARK    2  A    between atoms: O_3  and  C_31
REMARK    3  A    between atoms: O_5  and  C_28
REMARK    4  A    between atoms: O_5  and  C_32
REMARK    5  A    between atoms: C_25  and  C_29
REMARK    6  A    between atoms: C_27  and  C_30
REMARK    7  A    between atoms: C_37  and  C_41
REMARK                            x       y       z     vdW  Elec       q    Type
REMARK                         _______ _______ _______ _____ _____    ______ ____
ROOT
ATOM      1  O   UNL     1     111.769 129.741 137.162  0.00  0.00    +0.000 OA
ATOM      2  O   UNL     1     114.492 129.583 136.211  0.00  0.00    +0.000 OA
ATOM      3  O   UNL     1     114.009 130.759 136.893  0.00  0.00    +0.000 OA
ATOM      4  C   UNL     1     112.825 128.094 136.083  0.00  0.00    +0.000 A 
ATOM      5  C   UNL     1     112.204 128.534 136.482  0.00  0.00    +0.000 A 
ATOM      6  C   UNL     1     113.602 128.446 135.990  0.00  0.00    +0.000 A 
ATOM      7  C   UNL     1     112.369 129.323 136.781  0.00  0.00    +0.000 A 
ATOM      8  C   UNL     1     113.116 129.662 136.691  0.00  0.00    +0.000 A 
ATOM      9  C   UNL     1     113.749 129.237 136.296  0.00  0.00    +0.000 A 
ATOM     10  C   UNL     1     111.916 130.500 137.454  0.00  0.00    +0.000 A 
ATOM     11  C   UNL     1     113.263 130.420 136.983  0.00  0.00    +0.000 A 
ATOM     12  C   UNL     1     112.663 130.839 137.364  0.00  0.00    +0.000 A 
ENDROOT
BRANCH  10  16
ATOM     13  O   UNL     1     109.515 132.171 138.980  0.00  0.00    +0.000 OA
ATOM     14  C   UNL     1     110.267 131.887 137.799  0.00  0.00    +0.000 A 
ATOM     15  C   UNL     1     110.867 131.470 137.418  0.00  0.00    +0.000 A 
ATOM     16  C   UNL     1     111.316 130.917 137.835  0.00  0.00    +0.000 A 
ATOM     17  C   UNL     1     110.115 131.753 138.599  0.00  0.00    +0.000 A 
ATOM     18  C   UNL     1     111.164 130.783 138.635  0.00  0.00    +0.000 A 
ATOM     19  C   UNL     1     110.563 131.200 139.017  0.00  0.00    +0.000 A 
BRANCH  14  20
ATOM     20  O   UNL     1     109.819 132.440 137.382  0.00  0.00    +0.000 OA
BRANCH  20  29
ATOM     21  O   UNL     1     108.932 131.559 136.690  0.00  0.00    +0.000 OA
ATOM     22  O   UNL     1     109.256 132.865 134.612  0.00  0.00    +0.000 OA
ATOM     23  O   UNL     1     108.261 131.548 134.613  0.00  0.00    +0.000 OA
ATOM     24  O   UNL     1     110.035 133.311 135.997  0.00  0.00    +0.000 OA
ATOM     25  C   UNL     1     109.148 132.430 135.305  0.00  0.00    +0.000 C 
ATOM     26  C   UNL     1     108.651 131.771 135.305  0.00  0.00    +0.000 C 
ATOM     27  C   UNL     1     109.538 132.653 135.997  0.00  0.00    +0.000 C 
ATOM     28  C   UNL     1     108.543 131.336 135.997  0.00  0.00    +0.000 C 
ATOM     29  C   UNL     1     109.430 132.217 136.689  0.00  0.00    +0.000 C 
BRANCH  28  32
ATOM     30  O   UNL     1     108.354 129.929 135.840  0.00  0.00    +0.000 OA
ATOM     31  O   UNL     1     107.240 130.768 136.152  0.00  0.00    +0.000 OA
ATOM     32  C   UNL     1     108.045 130.678 135.997  0.00  0.00    +0.000 C 
ENDBRANCH  28  32
ENDBRANCH  20  29
ENDBRANCH  14  20
ENDBRANCH  10  16
BRANCH   4  33
ATOM     33  O   UNL     1     112.676 127.336 135.793  0.00  0.00    +0.000 OA
BRANCH  33  42
ATOM     34  O   UNL     1     113.180 126.602 136.910  0.00  0.00    +0.000 OA
ATOM     35  O   UNL     1     111.327 124.978 136.679  0.00  0.00    +0.000 OA
ATOM     36  O   UNL     1     112.448 124.785 137.873  0.00  0.00    +0.000 OA
ATOM     37  O   UNL     1     111.440 126.253 135.639  0.00  0.00    +0.000 OA
ATOM     38  C   UNL     1     111.944 125.519 136.756  0.00  0.00    +0.000 C 
ATOM     39  C   UNL     1     112.506 125.423 137.353  0.00  0.00    +0.000 C 
ATOM     40  C   UNL     1     112.001 126.157 136.236  0.00  0.00    +0.000 C 
ATOM     41  C   UNL     1     113.123 125.964 137.430  0.00  0.00    +0.000 C 
ATOM     42  C   UNL     1     112.618 126.698 136.313  0.00  0.00    +0.000 C 
BRANCH  41  45
ATOM     43  O   UNL     1     114.381 125.453 137.874  0.00  0.00    +0.000 OA
ATOM     44  O   UNL     1     113.549 126.187 138.776  0.00  0.00    +0.000 OA
ATOM     45  C   UNL     1     113.684 125.868 138.027  0.00  0.00    +0.000 C 
ENDBRANCH  41  45
ENDBRANCH  33  42
ENDBRANCH   4  33
TORSDOF 7
ENDMDL
MODEL 9
REMARK VINA RESULT:     -10.3      1.742      4.724
REMARK  Name = 44258092
REMARK  7 active torsions:
REMARK  status: ('A' for Active; 'I' for Inactive)
REMARK    1  A    between atoms: O_3  and  C_26
REMARK    2  A    between atoms: O_3  and  C_31
REMARK    3  A    between atoms: O_5  and  C_28
REMARK    4  A    between atoms: O_5  and  C_32
REMARK    5  A    between atoms: C_25  and  C_29
REMARK    6  A    between atoms: C_27  and  C_30
REMARK    7  A    between atoms: C_37  and  C_41
REMARK                            x       y       z     vdW  Elec       q    Type
REMARK                         _______ _______ _______ _____ _____    ______ ____
ROOT
ATOM      1  O   UNL     1     111.847 126.561 137.972  0.00  0.00    +0.000 OA
ATOM      2  O   UNL     1     114.335 126.209 139.396  0.00  0.00    +0.000 OA
ATOM      3  O   UNL     1     114.145 125.647 138.081  0.00  0.00    +0.000 OA
ATOM      4  C   UNL     1     112.466 127.287 139.993  0.00  0.00    +0.000 A 
ATOM      5  C   UNL     1     111.986 127.147 139.293  0.00  0.00    +0.000 A 
ATOM      6  C   UNL     1     113.263 126.970 140.031  0.00  0.00    +0.000 A 
ATOM      7  C   UNL     1     112.311 126.692 138.640  0.00  0.00    +0.000 A 
ATOM      8  C   UNL     1     113.077 126.387 138.677  0.00  0.00    +0.000 A 
ATOM      9  C   UNL     1     113.571 126.517 139.368  0.00  0.00    +0.000 A 
ATOM     10  C   UNL     1     112.149 126.125 137.339  0.00  0.00    +0.000 A 
ATOM     11  C   UNL     1     113.379 125.952 138.045  0.00  0.00    +0.000 A 
ATOM     12  C   UNL     1     112.914 125.821 137.375  0.00  0.00    +0.000 A 
ENDROOT
BRANCH  10  16
ATOM     13  O   UNL     1     110.288 125.600 134.665  0.00  0.00    +0.000 OA
ATOM     14  C   UNL     1     111.098 126.470 135.457  0.00  0.00    +0.000 A 
ATOM     15  C   UNL     1     111.563 126.602 136.125  0.00  0.00    +0.000 A 
ATOM     16  C   UNL     1     111.684 125.994 136.670  0.00  0.00    +0.000 A 
ATOM     17  C   UNL     1     110.753 125.731 135.333  0.00  0.00    +0.000 A 
ATOM     18  C   UNL     1     111.339 125.255 136.546  0.00  0.00    +0.000 A 
ATOM     19  C   UNL     1     110.874 125.123 135.878  0.00  0.00    +0.000 A 
BRANCH  14  20
ATOM     20  O   UNL     1     110.978 127.078 134.912  0.00  0.00    +0.000 OA
BRANCH  20  29
ATOM     21  O   UNL     1     109.931 127.807 135.554  0.00  0.00    +0.000 OA
ATOM     22  O   UNL     1     111.130 129.925 135.105  0.00  0.00    +0.000 OA
ATOM     23  O   UNL     1     109.683 129.948 135.898  0.00  0.00    +0.000 OA
ATOM     24  O   UNL     1     111.778 128.490 134.612  0.00  0.00    +0.000 OA
ATOM     25  C   UNL     1     110.730 129.219 135.255  0.00  0.00    +0.000 C 
ATOM     26  C   UNL     1     110.007 129.231 135.651  0.00  0.00    +0.000 C 
ATOM     27  C   UNL     1     111.054 128.502 135.008  0.00  0.00    +0.000 C 
ATOM     28  C   UNL     1     109.607 128.525 135.801  0.00  0.00    +0.000 C 
ATOM     29  C   UNL     1     110.655 127.796 135.158  0.00  0.00    +0.000 C 
BRANCH  28  32
ATOM     30  O   UNL     1     108.179 128.512 135.769  0.00  0.00    +0.000 OA
ATOM     31  O   UNL     1     108.865 128.575 137.022  0.00  0.00    +0.000 OA
ATOM     32  C   UNL     1     108.884 128.537 136.198  0.00  0.00    +0.000 C 
ENDBRANCH  28  32
ENDBRANCH  20  29
ENDBRANCH  14  20
ENDBRANCH  10  16
BRANCH   4  33
ATOM     33  O   UNL     1     112.161 127.723 140.624  0.00  0.00    +0.000 OA
BRANCH  33  42
ATOM     34  O   UNL     1     112.491 128.987 140.046  0.00  0.00    +0.000 OA
ATOM     35  O   UNL     1     112.721 129.962 142.309  0.00  0.00    +0.000 OA
ATOM     36  O   UNL     1     112.974 130.901 140.977  0.00  0.00    +0.000 OA
ATOM     37  O   UNL     1     112.315 128.372 142.133  0.00  0.00    +0.000 OA
ATOM     38  C   UNL     1     112.644 129.637 141.555  0.00  0.00    +0.000 C 
ATOM     39  C   UNL     1     112.771 130.106 140.888  0.00  0.00    +0.000 C 
ATOM     40  C   UNL     1     112.441 128.842 141.466  0.00  0.00    +0.000 C 
ATOM     41  C   UNL     1     112.694 129.782 140.135  0.00  0.00    +0.000 C 
ATOM     42  C   UNL     1     112.364 128.517 140.712  0.00  0.00    +0.000 C 
BRANCH  41  45
ATOM     43  O   UNL     1     113.583 130.337 139.163  0.00  0.00    +0.000 OA
ATOM     44  O   UNL     1     112.186 130.635 139.107  0.00  0.00    +0.000 OA
ATOM     45  C   UNL     1     112.820 130.251 139.468  0.00  0.00    +0.000 C 
ENDBRANCH  41  45
ENDBRANCH  33  42
ENDBRANCH   4  33
TORSDOF 7
ENDMDL
MODEL 10
REMARK VINA RESULT:     -10.3      1.642      3.528
REMARK  Name = 44258092
REMARK  7 active torsions:
REMARK  status: ('A' for Active; 'I' for Inactive)
REMARK    1  A    between atoms: O_3  and  C_26
REMARK    2  A    between atoms: O_3  and  C_31
REMARK    3  A    between atoms: O_5  and  C_28
REMARK    4  A    between atoms: O_5  and  C_32
REMARK    5  A    between atoms: C_25  and  C_29
REMARK    6  A    between atoms: C_27  and  C_30
REMARK    7  A    between atoms: C_37  and  C_41
REMARK                            x       y       z     vdW  Elec       q    Type
REMARK                         _______ _______ _______ _____ _____    ______ ____
ROOT
ATOM      1  O   UNL     1     112.796 127.442 136.023  0.00  0.00    +0.000 OA
ATOM      2  O   UNL     1     113.460 129.996 134.845  0.00  0.00    +0.000 OA
ATOM      3  O   UNL     1     114.464 129.196 135.503  0.00  0.00    +0.000 OA
ATOM      4  C   UNL     1     111.503 128.911 134.945  0.00  0.00    +0.000 A 
ATOM      5  C   UNL     1     111.747 128.207 135.372  0.00  0.00    +0.000 A 
ATOM      6  C   UNL     1     112.081 129.520 134.765  0.00  0.00    +0.000 A 
ATOM      7  C   UNL     1     112.568 128.121 135.613  0.00  0.00    +0.000 A 
ATOM      8  C   UNL     1     113.124 128.705 135.440  0.00  0.00    +0.000 A 
ATOM      9  C   UNL     1     112.898 129.416 135.014  0.00  0.00    +0.000 A 
ATOM     10  C   UNL     1     113.582 127.349 136.260  0.00  0.00    +0.000 A 
ATOM     11  C   UNL     1     113.908 128.612 135.677  0.00  0.00    +0.000 A 
ATOM     12  C   UNL     1     114.138 127.933 136.087  0.00  0.00    +0.000 A 
ENDROOT
BRANCH  10  16
ATOM     13  O   UNL     1     114.496 124.634 137.897  0.00  0.00    +0.000 OA
ATOM     14  C   UNL     1     113.956 125.956 137.899  0.00  0.00    +0.000 A 
ATOM     15  C   UNL     1     113.727 126.635 137.490  0.00  0.00    +0.000 A 
ATOM     16  C   UNL     1     113.810 126.670 136.670  0.00  0.00    +0.000 A 
ATOM     17  C   UNL     1     114.268 125.312 137.488  0.00  0.00    +0.000 A 
ATOM     18  C   UNL     1     114.122 126.026 136.259  0.00  0.00    +0.000 A 
ATOM     19  C   UNL     1     114.351 125.347 136.668  0.00  0.00    +0.000 A 
BRANCH  14  20
ATOM     20  O   UNL     1     113.873 125.921 138.719  0.00  0.00    +0.000 OA
BRANCH  20  29
ATOM     21  O   UNL     1     112.447 125.885 138.782  0.00  0.00    +0.000 OA
ATOM     22  O   UNL     1     112.492 127.425 140.718  0.00  0.00    +0.000 OA
ATOM     23  O   UNL     1     111.049 126.875 140.135  0.00  0.00    +0.000 OA
ATOM     24  O   UNL     1     113.904 126.948 140.010  0.00  0.00    +0.000 OA
ATOM     25  C   UNL     1     112.477 126.912 140.073  0.00  0.00    +0.000 C 
ATOM     26  C   UNL     1     111.756 126.636 139.781  0.00  0.00    +0.000 C 
ATOM     27  C   UNL     1     113.183 126.673 139.719  0.00  0.00    +0.000 C 
ATOM     28  C   UNL     1     111.741 126.123 139.136  0.00  0.00    +0.000 C 
ATOM     29  C   UNL     1     113.168 126.160 139.073  0.00  0.00    +0.000 C 
BRANCH  28  32
ATOM     30  O   UNL     1     110.734 125.111 139.082  0.00  0.00    +0.000 OA
ATOM     31  O   UNL     1     110.583 126.310 138.318  0.00  0.00    +0.000 OA
ATOM     32  C   UNL     1     111.019 125.848 138.845  0.00  0.00    +0.000 C 
ENDBRANCH  28  32
ENDBRANCH  20  29
ENDBRANCH  14  20
ENDBRANCH  10  16
BRANCH   4  33
ATOM     33  O   UNL     1     110.717 129.002 134.710  0.00  0.00    +0.000 OA
BRANCH  33  42
ATOM     34  O   UNL     1     110.291 129.885 135.750  0.00  0.00    +0.000 OA
ATOM     35  O   UNL     1     108.150 128.654 135.915  0.00  0.00    +0.000 OA
ATOM     36  O   UNL     1     108.437 129.946 136.899  0.00  0.00    +0.000 OA
ATOM     37  O   UNL     1     109.290 128.182 134.820  0.00  0.00    +0.000 OA
ATOM     38  C   UNL     1     108.863 129.064 135.860  0.00  0.00    +0.000 C 
ATOM     39  C   UNL     1     109.008 129.711 136.352  0.00  0.00    +0.000 C 
ATOM     40  C   UNL     1     109.434 128.828 135.312  0.00  0.00    +0.000 C 
ATOM     41  C   UNL     1     109.720 130.120 136.297  0.00  0.00    +0.000 C 
ATOM     42  C   UNL     1     110.147 129.238 135.257  0.00  0.00    +0.000 C 
BRANCH  41  45
ATOM     43  O   UNL     1     109.692 131.530 136.527  0.00  0.00    +0.000 OA
ATOM     44  O   UNL     1     110.180 130.650 137.542  0.00  0.00    +0.000 OA
ATOM     45  C   UNL     1     109.864 130.767 136.789  0.00  0.00    +0.000 C 
ENDBRANCH  41  45
ENDBRANCH  33  42
ENDBRANCH   4  33
TORSDOF 7
ENDMDL
