MODEL 1
REMARK VINA RESULT:      -9.9      0.000      0.000
REMARK  Name = 131833108
REMARK  5 active torsions:
REMARK  status: ('A' for Active; 'I' for Inactive)
REMARK    1  A    between atoms: S_1  and  O_7
REMARK    2  A    between atoms: O_7  and  C_28
REMARK    3  A    between atoms: C_17  and  C_22
REMARK    4  A    between atoms: C_21  and  C_28
REMARK    5  A    between atoms: C_26  and  C_32
REMARK                            x       y       z     vdW  Elec       q    Type
REMARK                         _______ _______ _______ _____ _____    ______ ____
ROOT
ATOM      1  O   UNL     1     112.247 127.072 136.235  0.00  0.00    +0.000 OA
ATOM      2  O   UNL     1     111.208 128.391 134.752  0.00  0.00    +0.000 OA
ATOM      3  O   UNL     1     111.768 124.315 136.922  0.00  0.00    +0.000 OA
ATOM      4  O   UNL     1     110.145 125.569 134.932  0.00  0.00    +0.000 OA
ATOM      5  C   UNL     1     111.995 125.682 136.572  0.00  0.00    +0.000 A 
ATOM      6  C   UNL     1     111.800 126.346 136.124  0.00  0.00    +0.000 A 
ATOM      7  C   UNL     1     111.183 126.308 135.577  0.00  0.00    +0.000 A 
ATOM      8  C   UNL     1     111.405 127.728 135.202  0.00  0.00    +0.000 C 
ATOM      9  C   UNL     1     112.048 127.767 135.772  0.00  0.00    +0.000 C 
ATOM     10  C   UNL     1     110.971 126.994 135.104  0.00  0.00    +0.000 C 
ATOM     11  C   UNL     1     111.574 124.980 136.474  0.00  0.00    +0.000 A 
ATOM     12  C   UNL     1     110.761 125.606 135.478  0.00  0.00    +0.000 A 
ATOM     13  C   UNL     1     110.957 124.942 135.927  0.00  0.00    +0.000 A 
ENDROOT
BRANCH   5  18
ATOM     14  O   UNL     1     112.480 126.034 137.869  0.00  0.00    +0.000 OA
ATOM     15  O   UNL     1     113.494 125.126 136.163  0.00  0.00    +0.000 OA
ATOM     16  O   UNL     1     114.728 125.202 137.257  0.00  0.00    +0.000 OA
ATOM     17  O   UNL     1     114.462 125.832 138.758  0.00  0.00    +0.000 OA
ATOM     18  C   UNL     1     112.612 125.719 137.118  0.00  0.00    +0.000 C 
ATOM     19  C   UNL     1     113.361 125.442 136.915  0.00  0.00    +0.000 C 
ATOM     20  C   UNL     1     113.978 125.479 137.462  0.00  0.00    +0.000 C 
ATOM     21  C   UNL     1     113.845 125.794 138.212  0.00  0.00    +0.000 C 
ATOM     22  C   UNL     1     113.096 126.072 138.416  0.00  0.00    +0.000 C 
BRANCH  22  23
ATOM     23  C   UNL     1     112.963 126.387 139.166  0.00  0.00    +0.000 C 
BRANCH  23  24
ATOM     24  O   UNL     1     112.193 126.555 139.412  0.00  0.00    +0.000 OA
BRANCH  24  25
ATOM     25  S   UNL     1     112.058 126.861 140.166  0.00  0.00    +0.000 S 
ATOM     26  O   UNL     1     111.922 127.167 140.920  0.00  0.00    +0.000 OA
ATOM     27  O   UNL     1     112.254 127.615 139.895  0.00  0.00    +0.000 OA
ATOM     28  O   UNL     1     111.861 126.107 140.437  0.00  0.00    +0.000 OA
ENDBRANCH  24  25
ENDBRANCH  23  24
ENDBRANCH  22  23
ENDBRANCH   5  18
BRANCH   9  32
ATOM     29  O   UNL     1     111.558 128.873 136.894  0.00  0.00    +0.000 OA
ATOM     30  O   UNL     1     114.231 129.465 135.052  0.00  0.00    +0.000 OA
ATOM     31  O   UNL     1     113.741 130.571 136.174  0.00  0.00    +0.000 OA
ATOM     32  C   UNL     1     112.472 128.468 135.872  0.00  0.00    +0.000 A 
ATOM     33  C   UNL     1     112.227 129.021 136.433  0.00  0.00    +0.000 A 
ATOM     34  C   UNL     1     113.140 128.616 135.411  0.00  0.00    +0.000 A 
ATOM     35  C   UNL     1     113.563 129.317 135.513  0.00  0.00    +0.000 A 
ATOM     36  C   UNL     1     112.650 129.722 136.534  0.00  0.00    +0.000 A 
ATOM     37  C   UNL     1     113.318 129.870 136.074  0.00  0.00    +0.000 A 
ENDBRANCH   9  32
TORSDOF 5
ENDMDL
MODEL 2
REMARK VINA RESULT:      -9.7      1.637      3.759
REMARK  Name = 131833108
REMARK  5 active torsions:
REMARK  status: ('A' for Active; 'I' for Inactive)
REMARK    1  A    between atoms: S_1  and  O_7
REMARK    2  A    between atoms: O_7  and  C_28
REMARK    3  A    between atoms: C_17  and  C_22
REMARK    4  A    between atoms: C_21  and  C_28
REMARK    5  A    between atoms: C_26  and  C_32
REMARK                            x       y       z     vdW  Elec       q    Type
REMARK                         _______ _______ _______ _____ _____    ______ ____
ROOT
ATOM      1  O   UNL     1     111.719 126.371 136.515  0.00  0.00    +0.000 OA
ATOM      2  O   UNL     1     110.314 124.980 135.463  0.00  0.00    +0.000 OA
ATOM      3  O   UNL     1     114.336 125.882 137.619  0.00  0.00    +0.000 OA
ATOM      4  O   UNL     1     112.923 123.743 136.355  0.00  0.00    +0.000 OA
ATOM      5  C   UNL     1     113.037 126.111 137.067  0.00  0.00    +0.000 A 
ATOM      6  C   UNL     1     112.369 125.831 136.673  0.00  0.00    +0.000 A 
ATOM      7  C   UNL     1     112.331 125.042 136.436  0.00  0.00    +0.000 A 
ATOM      8  C   UNL     1     110.981 125.262 135.857  0.00  0.00    +0.000 C 
ATOM      9  C   UNL     1     111.021 126.085 136.105  0.00  0.00    +0.000 C 
ATOM     10  C   UNL     1     111.640 124.738 136.024  0.00  0.00    +0.000 C 
ATOM     11  C   UNL     1     113.667 125.602 137.224  0.00  0.00    +0.000 A 
ATOM     12  C   UNL     1     112.961 124.532 136.592  0.00  0.00    +0.000 A 
ATOM     13  C   UNL     1     113.629 124.813 136.987  0.00  0.00    +0.000 A 
ENDROOT
BRANCH   5  18
ATOM     14  O   UNL     1     113.313 127.481 136.770  0.00  0.00    +0.000 OA
ATOM     15  O   UNL     1     112.638 126.527 138.613  0.00  0.00    +0.000 OA
ATOM     16  O   UNL     1     112.714 128.105 139.088  0.00  0.00    +0.000 OA
ATOM     17  O   UNL     1     113.190 129.267 138.017  0.00  0.00    +0.000 OA
ATOM     18  C   UNL     1     113.076 126.900 137.305  0.00  0.00    +0.000 C 
ATOM     19  C   UNL     1     112.876 127.109 138.077  0.00  0.00    +0.000 C 
ATOM     20  C   UNL     1     112.914 127.898 138.315  0.00  0.00    +0.000 C 
ATOM     21  C   UNL     1     113.152 128.478 137.780  0.00  0.00    +0.000 C 
ATOM     22  C   UNL     1     113.352 128.270 137.007  0.00  0.00    +0.000 C 
BRANCH  22  23
ATOM     23  C   UNL     1     113.590 128.851 136.471  0.00  0.00    +0.000 C 
BRANCH  23  24
ATOM     24  O   UNL     1     113.744 128.648 135.687  0.00  0.00    +0.000 OA
BRANCH  24  25
ATOM     25  S   UNL     1     113.981 129.228 135.150  0.00  0.00    +0.000 S 
ATOM     26  O   UNL     1     114.218 129.807 134.612  0.00  0.00    +0.000 OA
ATOM     27  O   UNL     1     114.769 129.092 135.351  0.00  0.00    +0.000 OA
ATOM     28  O   UNL     1     113.192 129.364 134.948  0.00  0.00    +0.000 OA
ENDBRANCH  24  25
ENDBRANCH  23  24
ENDBRANCH  22  23
ENDBRANCH   5  18
BRANCH   9  32
ATOM     29  O   UNL     1     111.002 126.969 134.712  0.00  0.00    +0.000 OA
ATOM     30  O   UNL     1     108.526 127.246 136.875  0.00  0.00    +0.000 OA
ATOM     31  O   UNL     1     108.507 128.130 135.482  0.00  0.00    +0.000 OA
ATOM     32  C   UNL     1     110.393 126.596 135.949  0.00  0.00    +0.000 A 
ATOM     33  C   UNL     1     110.383 127.038 135.253  0.00  0.00    +0.000 A 
ATOM     34  C   UNL     1     109.773 126.665 136.490  0.00  0.00    +0.000 A 
ATOM     35  C   UNL     1     109.145 127.177 136.334  0.00  0.00    +0.000 A 
ATOM     36  C   UNL     1     109.755 127.549 135.097  0.00  0.00    +0.000 A 
ATOM     37  C   UNL     1     109.135 127.619 135.637  0.00  0.00    +0.000 A 
ENDBRANCH   9  32
TORSDOF 5
ENDMDL
MODEL 3
REMARK VINA RESULT:      -9.6     10.509     13.171
REMARK  Name = 131833108
REMARK  5 active torsions:
REMARK  status: ('A' for Active; 'I' for Inactive)
REMARK    1  A    between atoms: S_1  and  O_7
REMARK    2  A    between atoms: O_7  and  C_28
REMARK    3  A    between atoms: C_17  and  C_22
REMARK    4  A    between atoms: C_21  and  C_28
REMARK    5  A    between atoms: C_26  and  C_32
REMARK                            x       y       z     vdW  Elec       q    Type
REMARK                         _______ _______ _______ _____ _____    ______ ____
ROOT
ATOM      1  O   UNL     1     105.544 125.383 147.885  0.00  0.00    +0.000 OA
ATOM      2  O   UNL     1     104.590 124.322 149.612  0.00  0.00    +0.000 OA
ATOM      3  O   UNL     1     108.318 125.578 147.131  0.00  0.00    +0.000 OA
ATOM      4  O   UNL     1     107.597 124.082 149.457  0.00  0.00    +0.000 OA
ATOM      5  C   UNL     1     106.946 125.473 147.516  0.00  0.00    +0.000 A 
ATOM      6  C   UNL     1     106.369 125.190 148.032  0.00  0.00    +0.000 A 
ATOM      7  C   UNL     1     106.586 124.726 148.679  0.00  0.00    +0.000 A 
ATOM      8  C   UNL     1     105.165 124.607 149.094  0.00  0.00    +0.000 C 
ATOM      9  C   UNL     1     104.939 125.090 148.420  0.00  0.00    +0.000 C 
ATOM     10  C   UNL     1     105.994 124.424 149.224  0.00  0.00    +0.000 C 
ATOM     11  C   UNL     1     107.740 125.294 147.647  0.00  0.00    +0.000 A 
ATOM     12  C   UNL     1     107.380 124.546 148.810  0.00  0.00    +0.000 A 
ATOM     13  C   UNL     1     107.957 124.830 148.294  0.00  0.00    +0.000 A 
ENDROOT
BRANCH   5  18
ATOM     14  O   UNL     1     106.452 125.580 146.180  0.00  0.00    +0.000 OA
ATOM     15  O   UNL     1     107.065 127.117 147.602  0.00  0.00    +0.000 OA
ATOM     16  O   UNL     1     106.631 128.044 146.308  0.00  0.00    +0.000 OA
ATOM     17  O   UNL     1     106.077 127.328 144.929  0.00  0.00    +0.000 OA
ATOM     18  C   UNL     1     106.729 125.937 146.869  0.00  0.00    +0.000 C 
ATOM     19  C   UNL     1     106.788 126.759 146.912  0.00  0.00    +0.000 C 
ATOM     20  C   UNL     1     106.571 127.222 146.265  0.00  0.00    +0.000 C 
ATOM     21  C   UNL     1     106.294 126.864 145.576  0.00  0.00    +0.000 C 
ATOM     22  C   UNL     1     106.235 126.043 145.533  0.00  0.00    +0.000 C 
BRANCH  22  23
ATOM     23  C   UNL     1     105.958 125.684 144.843  0.00  0.00    +0.000 C 
BRANCH  23  24
ATOM     24  O   UNL     1     105.944 124.862 144.784  0.00  0.00    +0.000 OA
BRANCH  24  25
ATOM     25  S   UNL     1     105.595 124.501 144.130  0.00  0.00    +0.000 S 
ATOM     26  O   UNL     1     105.244 124.139 143.476  0.00  0.00    +0.000 OA
ATOM     27  O   UNL     1     106.290 124.604 143.699  0.00  0.00    +0.000 OA
ATOM     28  O   UNL     1     104.898 124.397 144.560  0.00  0.00    +0.000 OA
ENDBRANCH  24  25
ENDBRANCH  23  24
ENDBRANCH  22  23
ENDBRANCH   5  18
BRANCH   9  32
ATOM     29  O   UNL     1     104.281 126.452 149.081  0.00  0.00    +0.000 OA
ATOM     30  O   UNL     1     102.420 124.454 147.227  0.00  0.00    +0.000 OA
ATOM     31  O   UNL     1     101.763 125.815 147.888  0.00  0.00    +0.000 OA
ATOM     32  C   UNL     1     104.145 125.271 148.287  0.00  0.00    +0.000 A 
ATOM     33  C   UNL     1     103.816 125.952 148.617  0.00  0.00    +0.000 A 
ATOM     34  C   UNL     1     103.680 124.772 147.823  0.00  0.00    +0.000 A 
ATOM     35  C   UNL     1     102.886 124.954 147.690  0.00  0.00    +0.000 A 
ATOM     36  C   UNL     1     103.022 126.133 148.484  0.00  0.00    +0.000 A 
ATOM     37  C   UNL     1     102.557 125.634 148.021  0.00  0.00    +0.000 A 
ENDBRANCH   9  32
TORSDOF 5
ENDMDL
MODEL 4
REMARK VINA RESULT:      -9.5     10.648     13.253
REMARK  Name = 131833108
REMARK  5 active torsions:
REMARK  status: ('A' for Active; 'I' for Inactive)
REMARK    1  A    between atoms: S_1  and  O_7
REMARK    2  A    between atoms: O_7  and  C_28
REMARK    3  A    between atoms: C_17  and  C_22
REMARK    4  A    between atoms: C_21  and  C_28
REMARK    5  A    between atoms: C_26  and  C_32
REMARK                            x       y       z     vdW  Elec       q    Type
REMARK                         _______ _______ _______ _____ _____    ______ ____
ROOT
ATOM      1  O   UNL     1     105.464 125.252 147.808  0.00  0.00    +0.000 OA
ATOM      2  O   UNL     1     104.557 124.263 149.602  0.00  0.00    +0.000 OA
ATOM      3  O   UNL     1     108.230 125.608 147.085  0.00  0.00    +0.000 OA
ATOM      4  O   UNL     1     107.577 124.256 149.517  0.00  0.00    +0.000 OA
ATOM      5  C   UNL     1     106.862 125.424 147.456  0.00  0.00    +0.000 A 
ATOM      6  C   UNL     1     106.298 125.138 147.984  0.00  0.00    +0.000 A 
ATOM      7  C   UNL     1     106.536 124.749 148.671  0.00  0.00    +0.000 A 
ATOM      8  C   UNL     1     105.120 124.550 149.071  0.00  0.00    +0.000 C 
ATOM      9  C   UNL     1     104.871 124.956 148.355  0.00  0.00    +0.000 C 
ATOM     10  C   UNL     1     105.957 124.446 149.230  0.00  0.00    +0.000 C 
ATOM     11  C   UNL     1     107.665 125.322 147.614  0.00  0.00    +0.000 A 
ATOM     12  C   UNL     1     107.339 124.646 148.830  0.00  0.00    +0.000 A 
ATOM     13  C   UNL     1     107.903 124.932 148.301  0.00  0.00    +0.000 A 
ENDROOT
BRANCH   5  18
ATOM     14  O   UNL     1     106.447 126.619 146.790  0.00  0.00    +0.000 OA
ATOM     15  O   UNL     1     106.740 124.592 146.036  0.00  0.00    +0.000 OA
ATOM     16  O   UNL     1     106.264 125.371 144.662  0.00  0.00    +0.000 OA
ATOM     17  O   UNL     1     105.909 126.982 144.707  0.00  0.00    +0.000 OA
ATOM     18  C   UNL     1     106.624 125.814 146.769  0.00  0.00    +0.000 C 
ATOM     19  C   UNL     1     106.563 125.399 146.059  0.00  0.00    +0.000 C 
ATOM     20  C   UNL     1     106.324 125.788 145.371  0.00  0.00    +0.000 C 
ATOM     21  C   UNL     1     106.147 126.593 145.394  0.00  0.00    +0.000 C 
ATOM     22  C   UNL     1     106.208 127.009 146.103  0.00  0.00    +0.000 C 
BRANCH  22  23
ATOM     23  C   UNL     1     106.031 127.814 146.127  0.00  0.00    +0.000 C 
BRANCH  23  24
ATOM     24  O   UNL     1     106.041 128.217 146.846  0.00  0.00    +0.000 OA
BRANCH  24  25
ATOM     25  S   UNL     1     105.834 129.015 146.875  0.00  0.00    +0.000 S 
ATOM     26  O   UNL     1     105.626 129.813 146.905  0.00  0.00    +0.000 OA
ATOM     27  O   UNL     1     106.591 129.222 146.623  0.00  0.00    +0.000 OA
ATOM     28  O   UNL     1     105.076 128.809 147.129  0.00  0.00    +0.000 OA
ENDBRANCH  24  25
ENDBRANCH  23  24
ENDBRANCH  22  23
ENDBRANCH   5  18
BRANCH   9  32
ATOM     29  O   UNL     1     104.091 126.306 148.894  0.00  0.00    +0.000 OA
ATOM     30  O   UNL     1     102.442 124.025 147.172  0.00  0.00    +0.000 OA
ATOM     31  O   UNL     1     101.661 125.375 147.712  0.00  0.00    +0.000 OA
ATOM     32  C   UNL     1     104.069 125.061 148.194  0.00  0.00    +0.000 A 
ATOM     33  C   UNL     1     103.679 125.736 148.464  0.00  0.00    +0.000 A 
ATOM     34  C   UNL     1     103.657 124.490 147.763  0.00  0.00    +0.000 A 
ATOM     35  C   UNL     1     102.854 124.595 147.603  0.00  0.00    +0.000 A 
ATOM     36  C   UNL     1     102.876 125.840 148.303  0.00  0.00    +0.000 A 
ATOM     37  C   UNL     1     102.464 125.270 147.873  0.00  0.00    +0.000 A 
ENDBRANCH   9  32
TORSDOF 5
ENDMDL
MODEL 5
REMARK VINA RESULT:      -9.5      1.093      3.443
REMARK  Name = 131833108
REMARK  5 active torsions:
REMARK  status: ('A' for Active; 'I' for Inactive)
REMARK    1  A    between atoms: S_1  and  O_7
REMARK    2  A    between atoms: O_7  and  C_28
REMARK    3  A    between atoms: C_17  and  C_22
REMARK    4  A    between atoms: C_21  and  C_28
REMARK    5  A    between atoms: C_26  and  C_32
REMARK                            x       y       z     vdW  Elec       q    Type
REMARK                         _______ _______ _______ _____ _____    ______ ____
ROOT
ATOM      1  O   UNL     1     111.939 126.585 136.215  0.00  0.00    +0.000 OA
ATOM      2  O   UNL     1     111.912 124.345 136.234  0.00  0.00    +0.000 OA
ATOM      3  O   UNL     1     110.029 128.455 135.141  0.00  0.00    +0.000 OA
ATOM      4  O   UNL     1     109.529 125.651 134.912  0.00  0.00    +0.000 OA
ATOM      5  C   UNL     1     110.968 127.517 135.669  0.00  0.00    +0.000 A 
ATOM      6  C   UNL     1     111.198 126.737 135.807  0.00  0.00    +0.000 A 
ATOM      7  C   UNL     1     110.718 126.115 135.555  0.00  0.00    +0.000 A 
ATOM      8  C   UNL     1     111.684 125.126 136.098  0.00  0.00    +0.000 C 
ATOM      9  C   UNL     1     112.184 125.775 136.361  0.00  0.00    +0.000 C 
ATOM     10  C   UNL     1     110.947 125.298 135.692  0.00  0.00    +0.000 C 
ATOM     11  C   UNL     1     110.259 127.675 135.279  0.00  0.00    +0.000 A 
ATOM     12  C   UNL     1     110.009 126.273 135.164  0.00  0.00    +0.000 A 
ATOM     13  C   UNL     1     109.780 127.053 135.027  0.00  0.00    +0.000 A 
ENDROOT
BRANCH   5  18
ATOM     14  O   UNL     1     111.405 128.403 136.702  0.00  0.00    +0.000 OA
ATOM     15  O   UNL     1     112.014 128.233 134.613  0.00  0.00    +0.000 OA
ATOM     16  O   UNL     1     112.973 129.477 135.117  0.00  0.00    +0.000 OA
ATOM     17  O   UNL     1     112.886 130.005 136.678  0.00  0.00    +0.000 OA
ATOM     18  C   UNL     1     111.448 128.139 135.921  0.00  0.00    +0.000 C 
ATOM     19  C   UNL     1     111.971 128.497 135.394  0.00  0.00    +0.000 C 
ATOM     20  C   UNL     1     112.450 129.119 135.646  0.00  0.00    +0.000 C 
ATOM     21  C   UNL     1     112.407 129.383 136.426  0.00  0.00    +0.000 C 
ATOM     22  C   UNL     1     111.884 129.025 136.954  0.00  0.00    +0.000 C 
BRANCH  22  23
ATOM     23  C   UNL     1     111.841 129.289 137.735  0.00  0.00    +0.000 C 
BRANCH  23  24
ATOM     24  O   UNL     1     111.313 128.934 138.260  0.00  0.00    +0.000 OA
BRANCH  24  25
ATOM     25  S   UNL     1     111.271 129.194 139.042  0.00  0.00    +0.000 S 
ATOM     26  O   UNL     1     111.230 129.453 139.824  0.00  0.00    +0.000 OA
ATOM     27  O   UNL     1     110.690 129.740 138.830  0.00  0.00    +0.000 OA
ATOM     28  O   UNL     1     111.852 128.647 139.254  0.00  0.00    +0.000 OA
ENDBRANCH  24  25
ENDBRANCH  23  24
ENDBRANCH  22  23
ENDBRANCH   5  18
BRANCH   9  32
ATOM     29  O   UNL     1     112.214 125.667 138.007  0.00  0.00    +0.000 OA
ATOM     30  O   UNL     1     114.994 125.262 136.277  0.00  0.00    +0.000 OA
ATOM     31  O   UNL     1     115.024 125.154 137.924  0.00  0.00    +0.000 OA
ATOM     32  C   UNL     1     112.894 125.620 136.751  0.00  0.00    +0.000 A 
ATOM     33  C   UNL     1     112.909 125.565 137.574  0.00  0.00    +0.000 A 
ATOM     34  C   UNL     1     113.589 125.518 136.319  0.00  0.00    +0.000 A 
ATOM     35  C   UNL     1     114.299 125.363 136.710  0.00  0.00    +0.000 A 
ATOM     36  C   UNL     1     113.619 125.410 137.965  0.00  0.00    +0.000 A 
ATOM     37  C   UNL     1     114.314 125.309 137.533  0.00  0.00    +0.000 A 
ENDBRANCH   9  32
TORSDOF 5
ENDMDL
MODEL 6
REMARK VINA RESULT:      -9.5     10.714     13.146
REMARK  Name = 131833108
REMARK  5 active torsions:
REMARK  status: ('A' for Active; 'I' for Inactive)
REMARK    1  A    between atoms: S_1  and  O_7
REMARK    2  A    between atoms: O_7  and  C_28
REMARK    3  A    between atoms: C_17  and  C_22
REMARK    4  A    between atoms: C_21  and  C_28
REMARK    5  A    between atoms: C_26  and  C_32
REMARK                            x       y       z     vdW  Elec       q    Type
REMARK                         _______ _______ _______ _____ _____    ______ ____
ROOT
ATOM      1  O   UNL     1     106.054 125.696 147.546  0.00  0.00    +0.000 OA
ATOM      2  O   UNL     1     108.167 126.211 147.008  0.00  0.00    +0.000 OA
ATOM      3  O   UNL     1     105.033 123.967 149.612  0.00  0.00    +0.000 OA
ATOM      4  O   UNL     1     107.858 124.298 149.327  0.00  0.00    +0.000 OA
ATOM      5  C   UNL     1     105.553 124.822 148.591  0.00  0.00    +0.000 A 
ATOM      6  C   UNL     1     106.197 125.162 148.204  0.00  0.00    +0.000 A 
ATOM      7  C   UNL     1     106.965 124.987 148.449  0.00  0.00    +0.000 A 
ATOM      8  C   UNL     1     107.522 125.872 147.394  0.00  0.00    +0.000 C 
ATOM      9  C   UNL     1     106.721 126.054 147.139  0.00  0.00    +0.000 C 
ATOM     10  C   UNL     1     107.644 125.335 148.053  0.00  0.00    +0.000 C 
ATOM     11  C   UNL     1     105.677 124.308 149.224  0.00  0.00    +0.000 A 
ATOM     12  C   UNL     1     107.090 124.473 149.082  0.00  0.00    +0.000 A 
ATOM     13  C   UNL     1     106.445 124.133 149.469  0.00  0.00    +0.000 A 
ENDROOT
BRANCH   5  18
ATOM     14  O   UNL     1     104.455 124.595 147.706  0.00  0.00    +0.000 OA
ATOM     15  O   UNL     1     104.677 125.975 149.382  0.00  0.00    +0.000 OA
ATOM     16  O   UNL     1     103.140 126.324 148.892  0.00  0.00    +0.000 OA
ATOM     17  O   UNL     1     102.481 125.520 147.611  0.00  0.00    +0.000 OA
ATOM     18  C   UNL     1     104.785 124.996 148.346  0.00  0.00    +0.000 C 
ATOM     19  C   UNL     1     104.346 125.572 148.741  0.00  0.00    +0.000 C 
ATOM     20  C   UNL     1     103.578 125.747 148.496  0.00  0.00    +0.000 C 
ATOM     21  C   UNL     1     103.249 125.345 147.856  0.00  0.00    +0.000 C 
ATOM     22  C   UNL     1     103.687 124.769 147.461  0.00  0.00    +0.000 C 
BRANCH  22  23
ATOM     23  C   UNL     1     103.357 124.367 146.820  0.00  0.00    +0.000 C 
BRANCH  23  24
ATOM     24  O   UNL     1     103.770 123.746 146.467  0.00  0.00    +0.000 OA
BRANCH  24  25
ATOM     25  S   UNL     1     103.463 123.373 145.799  0.00  0.00    +0.000 S 
ATOM     26  O   UNL     1     103.155 122.998 145.131  0.00  0.00    +0.000 OA
ATOM     27  O   UNL     1     103.853 123.915 145.315  0.00  0.00    +0.000 OA
ATOM     28  O   UNL     1     103.072 122.829 146.283  0.00  0.00    +0.000 OA
ENDBRANCH  24  25
ENDBRANCH  23  24
ENDBRANCH  22  23
ENDBRANCH   5  18
BRANCH   9  32
ATOM     29  O   UNL     1     106.653 125.466 145.598  0.00  0.00    +0.000 OA
ATOM     30  O   UNL     1     106.281 128.698 146.148  0.00  0.00    +0.000 OA
ATOM     31  O   UNL     1     106.213 128.110 144.608  0.00  0.00    +0.000 OA
ATOM     32  C   UNL     1     106.594 126.568 146.506  0.00  0.00    +0.000 A 
ATOM     33  C   UNL     1     106.560 126.274 145.736  0.00  0.00    +0.000 A 
ATOM     34  C   UNL     1     106.501 127.376 146.644  0.00  0.00    +0.000 A 
ATOM     35  C   UNL     1     106.374 127.890 146.010  0.00  0.00    +0.000 A 
ATOM     36  C   UNL     1     106.433 126.788 145.104  0.00  0.00    +0.000 A 
ATOM     37  C   UNL     1     106.340 127.596 145.240  0.00  0.00    +0.000 A 
ENDBRANCH   9  32
TORSDOF 5
ENDMDL
MODEL 7
REMARK VINA RESULT:      -9.5      1.551      4.054
REMARK  Name = 131833108
REMARK  5 active torsions:
REMARK  status: ('A' for Active; 'I' for Inactive)
REMARK    1  A    between atoms: S_1  and  O_7
REMARK    2  A    between atoms: O_7  and  C_28
REMARK    3  A    between atoms: C_17  and  C_22
REMARK    4  A    between atoms: C_21  and  C_28
REMARK    5  A    between atoms: C_26  and  C_32
REMARK                            x       y       z     vdW  Elec       q    Type
REMARK                         _______ _______ _______ _____ _____    ______ ____
ROOT
ATOM      1  O   UNL     1     111.866 126.538 136.403  0.00  0.00    +0.000 OA
ATOM      2  O   UNL     1     111.947 124.321 136.097  0.00  0.00    +0.000 OA
ATOM      3  O   UNL     1     109.894 128.459 135.551  0.00  0.00    +0.000 OA
ATOM      4  O   UNL     1     109.538 125.698 134.901  0.00  0.00    +0.000 OA
ATOM      5  C   UNL     1     110.864 127.496 135.968  0.00  0.00    +0.000 A 
ATOM      6  C   UNL     1     111.128 126.715 135.998  0.00  0.00    +0.000 A 
ATOM      7  C   UNL     1     110.686 126.116 135.643  0.00  0.00    +0.000 A 
ATOM      8  C   UNL     1     111.685 125.102 136.068  0.00  0.00    +0.000 C 
ATOM      9  C   UNL     1     112.146 125.727 136.438  0.00  0.00    +0.000 C 
ATOM     10  C   UNL     1     110.951 125.299 135.668  0.00  0.00    +0.000 C 
ATOM     11  C   UNL     1     110.159 127.678 135.582  0.00  0.00    +0.000 A 
ATOM     12  C   UNL     1     109.980 126.297 135.257  0.00  0.00    +0.000 A 
ATOM     13  C   UNL     1     109.717 127.078 135.227  0.00  0.00    +0.000 A 
ENDROOT
BRANCH   5  18
ATOM     14  O   UNL     1     111.960 128.412 135.933  0.00  0.00    +0.000 OA
ATOM     15  O   UNL     1     110.440 128.060 137.459  0.00  0.00    +0.000 OA
ATOM     16  O   UNL     1     111.324 129.258 138.170  0.00  0.00    +0.000 OA
ATOM     17  O   UNL     1     112.632 129.892 137.389  0.00  0.00    +0.000 OA
ATOM     18  C   UNL     1     111.306 128.095 136.323  0.00  0.00    +0.000 C 
ATOM     19  C   UNL     1     111.095 128.377 137.068  0.00  0.00    +0.000 C 
ATOM     20  C   UNL     1     111.537 128.976 137.424  0.00  0.00    +0.000 C 
ATOM     21  C   UNL     1     112.190 129.293 137.034  0.00  0.00    +0.000 C 
ATOM     22  C   UNL     1     112.402 129.011 136.288  0.00  0.00    +0.000 C 
BRANCH  22  23
ATOM     23  C   UNL     1     113.056 129.328 135.897  0.00  0.00    +0.000 C 
BRANCH  23  24
ATOM     24  O   UNL     1     113.455 128.879 135.331  0.00  0.00    +0.000 OA
BRANCH  24  25
ATOM     25  S   UNL     1     114.148 129.167 134.989  0.00  0.00    +0.000 S 
ATOM     26  O   UNL     1     114.842 129.454 134.648  0.00  0.00    +0.000 OA
ATOM     27  O   UNL     1     113.717 129.760 134.612  0.00  0.00    +0.000 OA
ATOM     28  O   UNL     1     114.580 128.573 135.367  0.00  0.00    +0.000 OA
ENDBRANCH  24  25
ENDBRANCH  23  24
ENDBRANCH  22  23
ENDBRANCH   5  18
BRANCH   9  32
ATOM     29  O   UNL     1     112.147 125.439 138.063  0.00  0.00    +0.000 OA
ATOM     30  O   UNL     1     114.970 125.299 136.361  0.00  0.00    +0.000 OA
ATOM     31  O   UNL     1     114.971 125.011 137.986  0.00  0.00    +0.000 OA
ATOM     32  C   UNL     1     112.852 125.548 136.825  0.00  0.00    +0.000 A 
ATOM     33  C   UNL     1     112.853 125.404 137.637  0.00  0.00    +0.000 A 
ATOM     34  C   UNL     1     113.558 125.513 136.399  0.00  0.00    +0.000 A 
ATOM     35  C   UNL     1     114.264 125.334 136.787  0.00  0.00    +0.000 A 
ATOM     36  C   UNL     1     113.559 125.225 138.024  0.00  0.00    +0.000 A 
ATOM     37  C   UNL     1     114.265 125.190 137.599  0.00  0.00    +0.000 A 
ENDBRANCH   9  32
TORSDOF 5
ENDMDL
MODEL 8
REMARK VINA RESULT:      -9.4      1.580      2.967
REMARK  Name = 131833108
REMARK  5 active torsions:
REMARK  status: ('A' for Active; 'I' for Inactive)
REMARK    1  A    between atoms: S_1  and  O_7
REMARK    2  A    between atoms: O_7  and  C_28
REMARK    3  A    between atoms: C_17  and  C_22
REMARK    4  A    between atoms: C_21  and  C_28
REMARK    5  A    between atoms: C_26  and  C_32
REMARK                            x       y       z     vdW  Elec       q    Type
REMARK                         _______ _______ _______ _____ _____    ______ ____
ROOT
ATOM      1  O   UNL     1     111.644 126.255 137.023  0.00  0.00    +0.000 OA
ATOM      2  O   UNL     1     110.589 125.094 135.423  0.00  0.00    +0.000 OA
ATOM      3  O   UNL     1     114.134 125.718 138.368  0.00  0.00    +0.000 OA
ATOM      4  O   UNL     1     113.199 123.903 136.369  0.00  0.00    +0.000 OA
ATOM      5  C   UNL     1     112.901 125.972 137.693  0.00  0.00    +0.000 A 
ATOM      6  C   UNL     1     112.334 125.755 137.135  0.00  0.00    +0.000 A 
ATOM      7  C   UNL     1     112.434 125.065 136.694  0.00  0.00    +0.000 A 
ATOM      8  C   UNL     1     111.154 125.314 135.982  0.00  0.00    +0.000 C 
ATOM      9  C   UNL     1     111.050 126.033 136.443  0.00  0.00    +0.000 C 
ATOM     10  C   UNL     1     111.850 124.828 136.109  0.00  0.00    +0.000 C 
ATOM     11  C   UNL     1     113.567 125.501 137.810  0.00  0.00    +0.000 A 
ATOM     12  C   UNL     1     113.100 124.593 136.810  0.00  0.00    +0.000 A 
ATOM     13  C   UNL     1     113.666 124.811 137.369  0.00  0.00    +0.000 A 
ENDROOT
BRANCH   5  18
ATOM     14  O   UNL     1     112.367 126.645 138.836  0.00  0.00    +0.000 OA
ATOM     15  O   UNL     1     113.571 127.388 137.174  0.00  0.00    +0.000 OA
ATOM     16  O   UNL     1     113.372 128.768 138.057  0.00  0.00    +0.000 OA
ATOM     17  O   UNL     1     112.503 128.731 139.459  0.00  0.00    +0.000 OA
ATOM     18  C   UNL     1     112.801 126.662 138.135  0.00  0.00    +0.000 C 
ATOM     19  C   UNL     1     113.136 127.370 137.876  0.00  0.00    +0.000 C 
ATOM     20  C   UNL     1     113.037 128.060 138.317  0.00  0.00    +0.000 C 
ATOM     21  C   UNL     1     112.603 128.042 139.018  0.00  0.00    +0.000 C 
ATOM     22  C   UNL     1     112.268 127.334 139.277  0.00  0.00    +0.000 C 
BRANCH  22  23
ATOM     23  C   UNL     1     111.833 127.316 139.979  0.00  0.00    +0.000 C 
BRANCH  23  24
ATOM     24  O   UNL     1     111.518 126.603 140.249  0.00  0.00    +0.000 OA
BRANCH  24  25
ATOM     25  S   UNL     1     111.110 126.577 140.965  0.00  0.00    +0.000 S 
ATOM     26  O   UNL     1     110.702 126.551 141.682  0.00  0.00    +0.000 OA
ATOM     27  O   UNL     1     110.436 126.871 140.592  0.00  0.00    +0.000 OA
ATOM     28  O   UNL     1     111.785 126.283 141.339  0.00  0.00    +0.000 OA
ENDBRANCH  24  25
ENDBRANCH  23  24
ENDBRANCH  22  23
ENDBRANCH   5  18
BRANCH   9  32
ATOM     29  O   UNL     1     109.748 125.883 137.444  0.00  0.00    +0.000 OA
ATOM     30  O   UNL     1     109.691 128.080 134.983  0.00  0.00    +0.000 OA
ATOM     31  O   UNL     1     108.388 127.929 135.984  0.00  0.00    +0.000 OA
ATOM     32  C   UNL     1     110.385 126.507 136.328  0.00  0.00    +0.000 A 
ATOM     33  C   UNL     1     109.734 126.432 136.829  0.00  0.00    +0.000 A 
ATOM     34  C   UNL     1     110.371 127.057 135.713  0.00  0.00    +0.000 A 
ATOM     35  C   UNL     1     109.705 127.531 135.598  0.00  0.00    +0.000 A 
ATOM     36  C   UNL     1     109.068 126.906 136.714  0.00  0.00    +0.000 A 
ATOM     37  C   UNL     1     109.053 127.455 136.099  0.00  0.00    +0.000 A 
ENDBRANCH   9  32
TORSDOF 5
ENDMDL
MODEL 9
REMARK VINA RESULT:      -9.4      1.594      2.556
REMARK  Name = 131833108
REMARK  5 active torsions:
REMARK  status: ('A' for Active; 'I' for Inactive)
REMARK    1  A    between atoms: S_1  and  O_7
REMARK    2  A    between atoms: O_7  and  C_28
REMARK    3  A    between atoms: C_17  and  C_22
REMARK    4  A    between atoms: C_21  and  C_28
REMARK    5  A    between atoms: C_26  and  C_32
REMARK                            x       y       z     vdW  Elec       q    Type
REMARK                         _______ _______ _______ _____ _____    ______ ____
ROOT
ATOM      1  O   UNL     1     112.236 126.872 137.246  0.00  0.00    +0.000 OA
ATOM      2  O   UNL     1     114.076 127.524 136.148  0.00  0.00    +0.000 OA
ATOM      3  O   UNL     1     111.286 124.223 137.866  0.00  0.00    +0.000 OA
ATOM      4  O   UNL     1     113.731 124.535 136.420  0.00  0.00    +0.000 OA
ATOM      5  C   UNL     1     111.768 125.531 137.552  0.00  0.00    +0.000 A 
ATOM      6  C   UNL     1     112.336 126.019 137.207  0.00  0.00    +0.000 A 
ATOM      7  C   UNL     1     112.990 125.687 136.829  0.00  0.00    +0.000 A 
ATOM      8  C   UNL     1     113.506 127.039 136.495  0.00  0.00    +0.000 C 
ATOM      9  C   UNL     1     112.824 127.385 136.888  0.00  0.00    +0.000 C 
ATOM     10  C   UNL     1     113.589 126.185 136.465  0.00  0.00    +0.000 C 
ATOM     11  C   UNL     1     111.854 124.712 137.521  0.00  0.00    +0.000 A 
ATOM     12  C   UNL     1     113.077 124.867 136.797  0.00  0.00    +0.000 A 
ATOM     13  C   UNL     1     112.508 124.380 137.143  0.00  0.00    +0.000 A 
ENDROOT
BRANCH   5  18
ATOM     14  O   UNL     1     111.166 126.093 138.720  0.00  0.00    +0.000 OA
ATOM     15  O   UNL     1     110.355 125.736 136.726  0.00  0.00    +0.000 OA
ATOM     16  O   UNL     1     109.047 126.400 137.480  0.00  0.00    +0.000 OA
ATOM     17  O   UNL     1     109.152 126.859 139.062  0.00  0.00    +0.000 OA
ATOM     18  C   UNL     1     111.114 125.863 137.930  0.00  0.00    +0.000 C 
ATOM     19  C   UNL     1     110.407 125.966 137.517  0.00  0.00    +0.000 C 
ATOM     20  C   UNL     1     109.753 126.298 137.894  0.00  0.00    +0.000 C 
ATOM     21  C   UNL     1     109.806 126.527 138.684  0.00  0.00    +0.000 C 
ATOM     22  C   UNL     1     110.512 126.425 139.098  0.00  0.00    +0.000 C 
BRANCH  22  23
ATOM     23  C   UNL     1     110.565 126.654 139.888  0.00  0.00    +0.000 C 
BRANCH  23  24
ATOM     24  O   UNL     1     111.287 126.603 140.285  0.00  0.00    +0.000 OA
BRANCH  24  25
ATOM     25  S   UNL     1     111.346 126.851 141.069  0.00  0.00    +0.000 S 
ATOM     26  O   UNL     1     111.406 127.101 141.853  0.00  0.00    +0.000 OA
ATOM     27  O   UNL     1     111.154 126.092 141.325  0.00  0.00    +0.000 OA
ATOM     28  O   UNL     1     111.538 127.613 140.813  0.00  0.00    +0.000 OA
ENDBRANCH  24  25
ENDBRANCH  23  24
ENDBRANCH  22  23
ENDBRANCH   5  18
BRANCH   9  32
ATOM     29  O   UNL     1     113.402 128.225 138.186  0.00  0.00    +0.000 OA
ATOM     30  O   UNL     1     111.893 129.824 135.725  0.00  0.00    +0.000 OA
ATOM     31  O   UNL     1     112.471 130.664 137.022  0.00  0.00    +0.000 OA
ATOM     32  C   UNL     1     112.736 128.205 136.921  0.00  0.00    +0.000 A 
ATOM     33  C   UNL     1     113.025 128.625 137.570  0.00  0.00    +0.000 A 
ATOM     34  C   UNL     1     112.359 128.604 136.306  0.00  0.00    +0.000 A 
ATOM     35  C   UNL     1     112.271 129.424 136.340  0.00  0.00    +0.000 A 
ATOM     36  C   UNL     1     112.937 129.444 137.603  0.00  0.00    +0.000 A 
ATOM     37  C   UNL     1     112.560 129.844 136.989  0.00  0.00    +0.000 A 
ENDBRANCH   9  32
TORSDOF 5
ENDMDL
MODEL 10
REMARK VINA RESULT:      -9.3      1.928      3.192
REMARK  Name = 131833108
REMARK  5 active torsions:
REMARK  status: ('A' for Active; 'I' for Inactive)
REMARK    1  A    between atoms: S_1  and  O_7
REMARK    2  A    between atoms: O_7  and  C_28
REMARK    3  A    between atoms: C_17  and  C_22
REMARK    4  A    between atoms: C_21  and  C_28
REMARK    5  A    between atoms: C_26  and  C_32
REMARK                            x       y       z     vdW  Elec       q    Type
REMARK                         _______ _______ _______ _____ _____    ______ ____
ROOT
ATOM      1  O   UNL     1     112.313 126.804 137.189  0.00  0.00    +0.000 OA
ATOM      2  O   UNL     1     114.177 127.637 136.267  0.00  0.00    +0.000 OA
ATOM      3  O   UNL     1     111.404 124.078 137.400  0.00  0.00    +0.000 OA
ATOM      4  O   UNL     1     113.894 124.633 136.112  0.00  0.00    +0.000 OA
ATOM      5  C   UNL     1     111.867 125.426 137.289  0.00  0.00    +0.000 A 
ATOM      6  C   UNL     1     112.435 125.967 137.037  0.00  0.00    +0.000 A 
ATOM      7  C   UNL     1     113.111 125.703 136.645  0.00  0.00    +0.000 A 
ATOM      8  C   UNL     1     113.606 127.097 136.520  0.00  0.00    +0.000 C 
ATOM      9  C   UNL     1     112.902 127.373 136.929  0.00  0.00    +0.000 C 
ATOM     10  C   UNL     1     113.711 126.257 136.377  0.00  0.00    +0.000 C 
ATOM     11  C   UNL     1     111.973 124.621 137.149  0.00  0.00    +0.000 A 
ATOM     12  C   UNL     1     113.219 124.897 136.504  0.00  0.00    +0.000 A 
ATOM     13  C   UNL     1     112.649 124.356 136.756  0.00  0.00    +0.000 A 
ENDROOT
BRANCH   5  18
ATOM     14  O   UNL     1     110.564 126.012 137.252  0.00  0.00    +0.000 OA
ATOM     15  O   UNL     1     111.768 125.312 138.932  0.00  0.00    +0.000 OA
ATOM     16  O   UNL     1     110.416 125.841 139.716  0.00  0.00    +0.000 OA
ATOM     17  O   UNL     1     109.163 126.484 138.857  0.00  0.00    +0.000 OA
ATOM     18  C   UNL     1     111.191 125.690 137.681  0.00  0.00    +0.000 C 
ATOM     19  C   UNL     1     111.141 125.634 138.502  0.00  0.00    +0.000 C 
ATOM     20  C   UNL     1     110.465 125.898 138.894  0.00  0.00    +0.000 C 
ATOM     21  C   UNL     1     109.839 126.219 138.465  0.00  0.00    +0.000 C 
ATOM     22  C   UNL     1     109.888 126.276 137.644  0.00  0.00    +0.000 C 
BRANCH  22  23
ATOM     23  C   UNL     1     109.261 126.598 137.214  0.00  0.00    +0.000 C 
BRANCH  23  24
ATOM     24  O   UNL     1     109.413 127.058 136.546  0.00  0.00    +0.000 OA
BRANCH  24  25
ATOM     25  S   UNL     1     108.793 127.438 136.157  0.00  0.00    +0.000 S 
ATOM     26  O   UNL     1     108.174 127.819 135.768  0.00  0.00    +0.000 OA
ATOM     27  O   UNL     1     108.619 126.741 135.752  0.00  0.00    +0.000 OA
ATOM     28  O   UNL     1     108.968 128.136 136.561  0.00  0.00    +0.000 OA
ENDBRANCH  24  25
ENDBRANCH  23  24
ENDBRANCH  22  23
ENDBRANCH   5  18
BRANCH   9  32
ATOM     29  O   UNL     1     113.370 128.029 138.369  0.00  0.00    +0.000 OA
ATOM     30  O   UNL     1     111.996 129.939 136.056  0.00  0.00    +0.000 OA
ATOM     31  O   UNL     1     112.464 130.595 137.496  0.00  0.00    +0.000 OA
ATOM     32  C   UNL     1     112.792 128.178 137.070  0.00  0.00    +0.000 A 
ATOM     33  C   UNL     1     113.027 128.506 137.790  0.00  0.00    +0.000 A 
ATOM     34  C   UNL     1     112.449 128.656 136.492  0.00  0.00    +0.000 A 
ATOM     35  C   UNL     1     112.340 129.462 136.634  0.00  0.00    +0.000 A 
ATOM     36  C   UNL     1     112.917 129.312 137.932  0.00  0.00    +0.000 A 
ATOM     37  C   UNL     1     112.574 129.789 137.354  0.00  0.00    +0.000 A 
ENDBRANCH   9  32
TORSDOF 5
ENDMDL
