MODEL 1
REMARK VINA RESULT:     -10.2      0.000      0.000
REMARK  Name = 
REMARK  5 active torsions:
REMARK  status: ('A' for Active; 'I' for Inactive)
REMARK    1  A    between atoms: O_2  and  C_18
REMARK    2  A    between atoms: O_2  and  C_26
REMARK    3  A    between atoms: C_19  and  C_31
REMARK    4  A    between atoms: C_21  and  C_32
REMARK    5  A    between atoms: C_27  and  C_34
REMARK                            x       y       z     vdW  Elec       q    Type
REMARK                         _______ _______ _______ _____ _____    ______ ____
ROOT
ATOM      1  O   UNL     1     104.873 129.363 144.301  0.00  0.00    +0.000 OA
ATOM      2  O   UNL     1     103.351 129.045 141.158  0.00  0.00    +0.000 OA
ATOM      3  O   UNL     1     105.547 127.001 143.198  0.00  0.00    +0.000 OA
ATOM      4  O   UNL     1     102.579 128.908 139.588  0.00  0.00    +0.000 OA
ATOM      5  C   UNL     1     103.102 130.489 142.136  0.00  0.00    +0.000 A 
ATOM      6  C   UNL     1     102.492 130.892 141.405  0.00  0.00    +0.000 C 
ATOM      7  C   UNL     1     104.100 129.222 142.725  0.00  0.00    +0.000 A 
ATOM      8  C   UNL     1     104.525 128.291 142.586  0.00  0.00    +0.000 C 
ATOM      9  C   UNL     1     103.517 129.597 142.016  0.00  0.00    +0.000 A 
ATOM     10  C   UNL     1     105.134 127.895 143.321  0.00  0.00    +0.000 C 
ATOM     11  C   UNL     1     103.270 131.007 142.963  0.00  0.00    +0.000 A 
ATOM     12  C   UNL     1     105.309 128.434 144.183  0.00  0.00    +0.000 C 
ATOM     13  C   UNL     1     104.268 129.741 143.554  0.00  0.00    +0.000 A 
ATOM     14  C   UNL     1     102.313 130.359 140.540  0.00  0.00    +0.000 C 
ATOM     15  C   UNL     1     103.854 130.633 143.673  0.00  0.00    +0.000 A 
ATOM     16  C   UNL     1     102.745 129.429 140.416  0.00  0.00    +0.000 C 
ENDROOT
BRANCH   6  19
ATOM     17  O   UNL     1     102.605 134.302 141.005  0.00  0.00    +0.000 OA
ATOM     18  O   UNL     1     100.855 134.468 141.925  0.00  0.00    +0.000 OA
ATOM     19  C   UNL     1     102.083 131.786 141.535  0.00  0.00    +0.000 A 
ATOM     20  C   UNL     1     102.548 132.597 141.206  0.00  0.00    +0.000 A 
ATOM     21  C   UNL     1     101.208 131.869 141.995  0.00  0.00    +0.000 A 
ATOM     22  C   UNL     1     102.139 133.491 141.335  0.00  0.00    +0.000 A 
ATOM     23  C   UNL     1     100.799 132.763 142.124  0.00  0.00    +0.000 A 
ATOM     24  C   UNL     1     101.265 133.574 141.795  0.00  0.00    +0.000 A 
ENDBRANCH   6  19
BRANCH  12  27
ATOM     25  O   UNL     1     108.316 128.392 145.844  0.00  0.00    +0.000 OA
ATOM     26  O   UNL     1     107.640 126.952 147.029  0.00  0.00    +0.000 OA
ATOM     27  C   UNL     1     105.892 128.063 144.895  0.00  0.00    +0.000 A 
ATOM     28  C   UNL     1     106.813 128.412 145.014  0.00  0.00    +0.000 A 
ATOM     29  C   UNL     1     105.554 127.343 145.488  0.00  0.00    +0.000 A 
ATOM     30  C   UNL     1     107.395 128.042 145.725  0.00  0.00    +0.000 A 
ATOM     31  C   UNL     1     106.138 126.973 146.199  0.00  0.00    +0.000 A 
ATOM     32  C   UNL     1     107.058 127.322 146.318  0.00  0.00    +0.000 A 
ENDBRANCH  12  27
BRANCH  11  33
ATOM     33  O   UNL     1     102.855 131.900 143.083  0.00  0.00    +0.000 OA
BRANCH  33  41
ATOM     34  O   UNL     1     104.068 133.042 143.502  0.00  0.00    +0.000 OA
ATOM     35  O   UNL     1     102.749 133.478 146.132  0.00  0.00    +0.000 OA
ATOM     36  O   UNL     1     101.975 132.191 144.836  0.00  0.00    +0.000 OA
ATOM     37  O   UNL     1     104.401 134.473 145.675  0.00  0.00    +0.000 OA
ATOM     38  C   UNL     1     103.189 133.332 145.256  0.00  0.00    +0.000 C 
ATOM     39  C   UNL     1     102.802 132.689 144.607  0.00  0.00    +0.000 C 
ATOM     40  C   UNL     1     104.015 133.830 145.027  0.00  0.00    +0.000 C 
ATOM     41  C   UNL     1     103.242 132.544 143.730  0.00  0.00    +0.000 C 
ATOM     42  C   UNL     1     104.455 133.684 144.150  0.00  0.00    +0.000 C 
BRANCH  42  44
ATOM     43  O   UNL     1     105.861 133.871 143.181  0.00  0.00    +0.000 OA
ATOM     44  C   UNL     1     105.281 134.183 143.922  0.00  0.00    +0.000 C 
ENDBRANCH  42  44
ENDBRANCH  33  41
ENDBRANCH  11  33
TORSDOF 5
ENDMDL
MODEL 2
REMARK VINA RESULT:     -10.1      7.092      9.939
REMARK  Name = 
REMARK  5 active torsions:
REMARK  status: ('A' for Active; 'I' for Inactive)
REMARK    1  A    between atoms: O_2  and  C_18
REMARK    2  A    between atoms: O_2  and  C_26
REMARK    3  A    between atoms: C_19  and  C_31
REMARK    4  A    between atoms: C_21  and  C_32
REMARK    5  A    between atoms: C_27  and  C_34
REMARK                            x       y       z     vdW  Elec       q    Type
REMARK                         _______ _______ _______ _____ _____    ______ ____
ROOT
ATOM      1  O   UNL     1     107.867 125.409 139.762  0.00  0.00    +0.000 OA
ATOM      2  O   UNL     1     109.906 127.310 141.889  0.00  0.00    +0.000 OA
ATOM      3  O   UNL     1     106.804 125.461 142.235  0.00  0.00    +0.000 OA
ATOM      4  O   UNL     1     110.943 128.265 142.934  0.00  0.00    +0.000 OA
ATOM      5  C   UNL     1     110.335 127.086 140.195  0.00  0.00    +0.000 A 
ATOM      6  C   UNL     1     111.186 127.658 140.323  0.00  0.00    +0.000 C 
ATOM      7  C   UNL     1     108.904 126.367 140.814  0.00  0.00    +0.000 A 
ATOM      8  C   UNL     1     108.270 126.201 141.612  0.00  0.00    +0.000 C 
ATOM      9  C   UNL     1     109.717 126.918 140.951  0.00  0.00    +0.000 A 
ATOM     10  C   UNL     1     107.421 125.628 141.476  0.00  0.00    +0.000 C 
ATOM     11  C   UNL     1     110.141 126.704 139.301  0.00  0.00    +0.000 A 
ATOM     12  C   UNL     1     107.218 125.229 140.545  0.00  0.00    +0.000 C 
ATOM     13  C   UNL     1     108.710 125.985 139.920  0.00  0.00    +0.000 A 
ATOM     14  C   UNL     1     111.395 128.060 141.250  0.00  0.00    +0.000 C 
ATOM     15  C   UNL     1     109.328 126.153 139.164  0.00  0.00    +0.000 A 
ATOM     16  C   UNL     1     110.751 127.884 142.039  0.00  0.00    +0.000 C 
ENDROOT
BRANCH   6  19
ATOM     17  O   UNL     1     112.156 129.579 137.645  0.00  0.00    +0.000 OA
ATOM     18  O   UNL     1     113.631 128.308 137.267  0.00  0.00    +0.000 OA
ATOM     19  C   UNL     1     111.798 127.820 139.559  0.00  0.00    +0.000 A 
ATOM     20  C   UNL     1     111.672 128.618 138.983  0.00  0.00    +0.000 A 
ATOM     21  C   UNL     1     112.535 127.185 139.370  0.00  0.00    +0.000 A 
ATOM     22  C   UNL     1     112.282 128.781 138.220  0.00  0.00    +0.000 A 
ATOM     23  C   UNL     1     113.145 127.348 138.606  0.00  0.00    +0.000 A 
ATOM     24  C   UNL     1     113.019 128.146 138.031  0.00  0.00    +0.000 A 
ENDBRANCH   6  19
BRANCH  12  27
ATOM     25  O   UNL     1     104.045 124.879 139.277  0.00  0.00    +0.000 OA
ATOM     26  O   UNL     1     103.970 123.025 139.978  0.00  0.00    +0.000 OA
ATOM     27  C   UNL     1     106.406 124.678 140.404  0.00  0.00    +0.000 A 
ATOM     28  C   UNL     1     105.631 125.054 139.911  0.00  0.00    +0.000 A 
ATOM     29  C   UNL     1     106.368 123.751 140.754  0.00  0.00    +0.000 A 
ATOM     30  C   UNL     1     104.820 124.503 139.770  0.00  0.00    +0.000 A 
ATOM     31  C   UNL     1     105.556 123.201 140.612  0.00  0.00    +0.000 A 
ATOM     32  C   UNL     1     104.782 123.576 140.120  0.00  0.00    +0.000 A 
ENDBRANCH  12  27
BRANCH  11  33
ATOM     33  O   UNL     1     110.760 126.873 138.544  0.00  0.00    +0.000 OA
BRANCH  33  41
ATOM     34  O   UNL     1     109.877 127.305 137.135  0.00  0.00    +0.000 OA
ATOM     35  O   UNL     1     110.801 124.816 135.794  0.00  0.00    +0.000 OA
ATOM     36  O   UNL     1     111.376 125.213 137.650  0.00  0.00    +0.000 OA
ATOM     37  O   UNL     1     109.611 126.077 134.832  0.00  0.00    +0.000 OA
ATOM     38  C   UNL     1     110.493 125.645 136.240  0.00  0.00    +0.000 C 
ATOM     39  C   UNL     1     110.780 125.844 137.169  0.00  0.00    +0.000 C 
ATOM     40  C   UNL     1     109.898 126.276 135.760  0.00  0.00    +0.000 C 
ATOM     41  C   UNL     1     110.472 126.674 137.616  0.00  0.00    +0.000 C 
ATOM     42  C   UNL     1     109.590 127.106 136.208  0.00  0.00    +0.000 C 
BRANCH  42  44
ATOM     43  O   UNL     1     108.523 128.452 136.223  0.00  0.00    +0.000 OA
ATOM     44  C   UNL     1     108.995 127.736 135.726  0.00  0.00    +0.000 C 
ENDBRANCH  42  44
ENDBRANCH  33  41
ENDBRANCH  11  33
TORSDOF 5
ENDMDL
MODEL 3
REMARK VINA RESULT:     -10.0      2.191      3.530
REMARK  Name = 
REMARK  5 active torsions:
REMARK  status: ('A' for Active; 'I' for Inactive)
REMARK    1  A    between atoms: O_2  and  C_18
REMARK    2  A    between atoms: O_2  and  C_26
REMARK    3  A    between atoms: C_19  and  C_31
REMARK    4  A    between atoms: C_21  and  C_32
REMARK    5  A    between atoms: C_27  and  C_34
REMARK                            x       y       z     vdW  Elec       q    Type
REMARK                         _______ _______ _______ _____ _____    ______ ____
ROOT
ATOM      1  O   UNL     1     106.094 127.035 146.200  0.00  0.00    +0.000 OA
ATOM      2  O   UNL     1     105.355 126.906 142.775  0.00  0.00    +0.000 OA
ATOM      3  O   UNL     1     106.538 124.549 145.266  0.00  0.00    +0.000 OA
ATOM      4  O   UNL     1     104.979 126.865 141.061  0.00  0.00    +0.000 OA
ATOM      5  C   UNL     1     105.164 128.405 143.680  0.00  0.00    +0.000 A 
ATOM      6  C   UNL     1     104.843 128.892 142.828  0.00  0.00    +0.000 C 
ATOM      7  C   UNL     1     105.717 126.990 144.480  0.00  0.00    +0.000 A 
ATOM      8  C   UNL     1     105.972 125.990 144.438  0.00  0.00    +0.000 C 
ATOM      9  C   UNL     1     105.411 127.445 143.655  0.00  0.00    +0.000 A 
ATOM     10  C   UNL     1     106.291 125.509 145.295  0.00  0.00    +0.000 C 
ATOM     11  C   UNL     1     105.223 128.910 144.531  0.00  0.00    +0.000 A 
ATOM     12  C   UNL     1     106.353 126.035 146.182  0.00  0.00    +0.000 C 
ATOM     13  C   UNL     1     105.777 127.495 145.332  0.00  0.00    +0.000 A 
ATOM     14  C   UNL     1     104.779 128.373 141.938  0.00  0.00    +0.000 C 
ATOM     15  C   UNL     1     105.529 128.455 145.357  0.00  0.00    +0.000 A 
ATOM     16  C   UNL     1     105.037 127.373 141.911  0.00  0.00    +0.000 C 
ENDROOT
BRANCH   6  19
ATOM     17  O   UNL     1     105.710 132.198 142.478  0.00  0.00    +0.000 OA
ATOM     18  O   UNL     1     103.867 132.734 142.975  0.00  0.00    +0.000 OA
ATOM     19  C   UNL     1     104.599 129.853 142.865  0.00  0.00    +0.000 A 
ATOM     20  C   UNL     1     105.276 130.545 142.653  0.00  0.00    +0.000 A 
ATOM     21  C   UNL     1     103.677 130.121 143.113  0.00  0.00    +0.000 A 
ATOM     22  C   UNL     1     105.033 131.505 142.690  0.00  0.00    +0.000 A 
ATOM     23  C   UNL     1     103.434 131.081 143.150  0.00  0.00    +0.000 A 
ATOM     24  C   UNL     1     104.111 131.774 142.938  0.00  0.00    +0.000 A 
ENDBRANCH   6  19
BRANCH  12  27
ATOM     25  O   UNL     1     105.637 124.350 149.088  0.00  0.00    +0.000 OA
ATOM     26  O   UNL     1     107.575 124.230 149.495  0.00  0.00    +0.000 OA
ATOM     27  C   UNL     1     106.659 125.584 147.010  0.00  0.00    +0.000 A 
ATOM     28  C   UNL     1     105.995 125.192 147.635  0.00  0.00    +0.000 A 
ATOM     29  C   UNL     1     107.627 125.523 147.214  0.00  0.00    +0.000 A 
ATOM     30  C   UNL     1     106.300 124.741 148.463  0.00  0.00    +0.000 A 
ATOM     31  C   UNL     1     107.932 125.072 148.042  0.00  0.00    +0.000 A 
ATOM     32  C   UNL     1     107.269 124.681 148.667  0.00  0.00    +0.000 A 
ENDBRANCH  12  27
BRANCH  11  33
ATOM     33  O   UNL     1     104.976 129.870 144.556  0.00  0.00    +0.000 OA
BRANCH  33  41
ATOM     34  O   UNL     1     106.193 130.790 145.346  0.00  0.00    +0.000 OA
ATOM     35  O   UNL     1     104.288 131.429 147.538  0.00  0.00    +0.000 OA
ATOM     36  O   UNL     1     103.705 130.297 146.018  0.00  0.00    +0.000 OA
ATOM     37  O   UNL     1     106.139 132.136 147.597  0.00  0.00    +0.000 OA
ATOM     38  C   UNL     1     104.923 131.216 146.808  0.00  0.00    +0.000 C 
ATOM     39  C   UNL     1     104.632 130.650 146.047  0.00  0.00    +0.000 C 
ATOM     40  C   UNL     1     105.848 131.569 146.837  0.00  0.00    +0.000 C 
ATOM     41  C   UNL     1     105.267 130.437 145.316  0.00  0.00    +0.000 C 
ATOM     42  C   UNL     1     106.484 131.356 146.105  0.00  0.00    +0.000 C 
BRANCH  42  44
ATOM     43  O   UNL     1     108.032 131.537 145.384  0.00  0.00    +0.000 OA
ATOM     44  C   UNL     1     107.409 131.710 146.135  0.00  0.00    +0.000 C 
ENDBRANCH  42  44
ENDBRANCH  33  41
ENDBRANCH  11  33
TORSDOF 5
ENDMDL
MODEL 4
REMARK VINA RESULT:      -9.9      7.156      9.699
REMARK  Name = 
REMARK  5 active torsions:
REMARK  status: ('A' for Active; 'I' for Inactive)
REMARK    1  A    between atoms: O_2  and  C_18
REMARK    2  A    between atoms: O_2  and  C_26
REMARK    3  A    between atoms: C_19  and  C_31
REMARK    4  A    between atoms: C_21  and  C_32
REMARK    5  A    between atoms: C_27  and  C_34
REMARK                            x       y       z     vdW  Elec       q    Type
REMARK                         _______ _______ _______ _____ _____    ______ ____
ROOT
ATOM      1  O   UNL     1     111.194 127.764 138.369  0.00  0.00    +0.000 OA
ATOM      2  O   UNL     1     113.883 129.632 139.623  0.00  0.00    +0.000 OA
ATOM      3  O   UNL     1     113.202 127.785 136.576  0.00  0.00    +0.000 OA
ATOM      4  O   UNL     1     115.216 130.571 140.271  0.00  0.00    +0.000 OA
ATOM      5  C   UNL     1     112.410 129.431 140.568  0.00  0.00    +0.000 A 
ATOM      6  C   UNL     1     112.810 130.000 141.332  0.00  0.00    +0.000 C 
ATOM      7  C   UNL     1     112.534 128.706 139.016  0.00  0.00    +0.000 A 
ATOM      8  C   UNL     1     113.086 128.530 138.162  0.00  0.00    +0.000 C 
ATOM      9  C   UNL     1     112.929 129.253 139.742  0.00  0.00    +0.000 A 
ATOM     10  C   UNL     1     112.680 127.960 137.401  0.00  0.00    +0.000 C 
ATOM     11  C   UNL     1     111.496 129.061 140.669  0.00  0.00    +0.000 A 
ATOM     12  C   UNL     1     111.728 127.575 137.506  0.00  0.00    +0.000 C 
ATOM     13  C   UNL     1     111.619 128.336 139.117  0.00  0.00    +0.000 A 
ATOM     14  C   UNL     1     113.761 130.388 141.235  0.00  0.00    +0.000 C 
ATOM     15  C   UNL     1     111.100 128.514 139.942  0.00  0.00    +0.000 A 
ATOM     16  C   UNL     1     114.302 130.203 140.375  0.00  0.00    +0.000 C 
ENDROOT
BRANCH   6  19
ATOM     17  O   UNL     1     110.700 132.015 143.147  0.00  0.00    +0.000 OA
ATOM     18  O   UNL     1     110.697 130.686 144.619  0.00  0.00    +0.000 OA
ATOM     19  C   UNL     1     112.281 130.171 142.155  0.00  0.00    +0.000 A 
ATOM     20  C   UNL     1     111.755 131.007 142.240  0.00  0.00    +0.000 A 
ATOM     21  C   UNL     1     112.280 129.507 142.891  0.00  0.00    +0.000 A 
ATOM     22  C   UNL     1     111.227 131.179 143.061  0.00  0.00    +0.000 A 
ATOM     23  C   UNL     1     111.752 129.679 143.712  0.00  0.00    +0.000 A 
ATOM     24  C   UNL     1     111.225 130.515 143.797  0.00  0.00    +0.000 A 
ENDBRANCH   6  19
BRANCH  12  27
ATOM     25  O   UNL     1     111.249 124.521 136.008  0.00  0.00    +0.000 OA
ATOM     26  O   UNL     1     110.131 125.382 134.612  0.00  0.00    +0.000 OA
ATOM     27  C   UNL     1     111.329 127.027 136.782  0.00  0.00    +0.000 A 
ATOM     28  C   UNL     1     111.488 126.048 136.756  0.00  0.00    +0.000 A 
ATOM     29  C   UNL     1     110.770 127.457 136.084  0.00  0.00    +0.000 A 
ATOM     30  C   UNL     1     111.089 125.500 136.033  0.00  0.00    +0.000 A 
ATOM     31  C   UNL     1     110.372 126.908 135.362  0.00  0.00    +0.000 A 
ATOM     32  C   UNL     1     110.531 125.930 135.336  0.00  0.00    +0.000 A 
ENDBRANCH  12  27
BRANCH  11  33
ATOM     33  O   UNL     1     110.977 129.239 141.495  0.00  0.00    +0.000 OA
BRANCH  33  41
ATOM     34  O   UNL     1     109.374 129.758 141.158  0.00  0.00    +0.000 OA
ATOM     35  O   UNL     1     108.316 127.209 142.265  0.00  0.00    +0.000 OA
ATOM     36  O   UNL     1     110.271 127.539 142.234  0.00  0.00    +0.000 OA
ATOM     37  O   UNL     1     107.067 128.577 141.559  0.00  0.00    +0.000 OA
ATOM     38  C   UNL     1     108.669 128.058 141.896  0.00  0.00    +0.000 C 
ATOM     39  C   UNL     1     109.647 128.224 141.880  0.00  0.00    +0.000 C 
ATOM     40  C   UNL     1     108.045 128.743 141.543  0.00  0.00    +0.000 C 
ATOM     41  C   UNL     1     110.000 129.074 141.511  0.00  0.00    +0.000 C 
ATOM     42  C   UNL     1     108.398 129.593 141.174  0.00  0.00    +0.000 C 
BRANCH  42  44
ATOM     43  O   UNL     1     108.096 130.965 140.185  0.00  0.00    +0.000 OA
ATOM     44  C   UNL     1     107.773 130.276 140.821  0.00  0.00    +0.000 C 
ENDBRANCH  42  44
ENDBRANCH  33  41
ENDBRANCH  11  33
TORSDOF 5
ENDMDL
MODEL 5
REMARK VINA RESULT:      -9.9      6.444      9.418
REMARK  Name = 
REMARK  5 active torsions:
REMARK  status: ('A' for Active; 'I' for Inactive)
REMARK    1  A    between atoms: O_2  and  C_18
REMARK    2  A    between atoms: O_2  and  C_26
REMARK    3  A    between atoms: C_19  and  C_31
REMARK    4  A    between atoms: C_21  and  C_32
REMARK    5  A    between atoms: C_27  and  C_34
REMARK                            x       y       z     vdW  Elec       q    Type
REMARK                         _______ _______ _______ _____ _____    ______ ____
ROOT
ATOM      1  O   UNL     1     111.319 131.362 143.915  0.00  0.00    +0.000 OA
ATOM      2  O   UNL     1     114.117 131.372 141.802  0.00  0.00    +0.000 OA
ATOM      3  O   UNL     1     113.060 133.252 144.718  0.00  0.00    +0.000 OA
ATOM      4  O   UNL     1     115.508 131.358 140.731  0.00  0.00    +0.000 OA
ATOM      5  C   UNL     1     112.793 130.241 141.535  0.00  0.00    +0.000 A 
ATOM      6  C   UNL     1     113.283 129.843 140.716  0.00  0.00    +0.000 C 
ATOM      7  C   UNL     1     112.716 131.351 142.842  0.00  0.00    +0.000 A 
ATOM      8  C   UNL     1     113.149 132.121 143.379  0.00  0.00    +0.000 C 
ATOM      9  C   UNL     1     113.196 130.979 142.059  0.00  0.00    +0.000 A 
ATOM     10  C   UNL     1     112.653 132.513 144.196  0.00  0.00    +0.000 C 
ATOM     11  C   UNL     1     111.910 129.874 141.793  0.00  0.00    +0.000 A 
ATOM     12  C   UNL     1     111.733 132.131 144.466  0.00  0.00    +0.000 C 
ATOM     13  C   UNL     1     111.832 130.984 143.101  0.00  0.00    +0.000 A 
ATOM     14  C   UNL     1     114.203 130.220 140.441  0.00  0.00    +0.000 C 
ATOM     15  C   UNL     1     111.429 130.246 142.577  0.00  0.00    +0.000 A 
ATOM     16  C   UNL     1     114.624 130.989 140.987  0.00  0.00    +0.000 C 
ENDROOT
BRANCH   6  19
ATOM     17  O   UNL     1     112.839 126.481 140.169  0.00  0.00    +0.000 OA
ATOM     18  O   UNL     1     111.632 126.887 138.649  0.00  0.00    +0.000 OA
ATOM     19  C   UNL     1     112.870 129.104 140.199  0.00  0.00    +0.000 A 
ATOM     20  C   UNL     1     113.060 128.162 140.442  0.00  0.00    +0.000 A 
ATOM     21  C   UNL     1     112.266 129.307 139.439  0.00  0.00    +0.000 A 
ATOM     22  C   UNL     1     112.648 127.423 139.926  0.00  0.00    +0.000 A 
ATOM     23  C   UNL     1     111.854 128.568 138.923  0.00  0.00    +0.000 A 
ATOM     24  C   UNL     1     112.045 127.626 139.166  0.00  0.00    +0.000 A 
ENDBRANCH   6  19
BRANCH  12  27
ATOM     25  O   UNL     1     108.948 133.634 145.802  0.00  0.00    +0.000 OA
ATOM     26  O   UNL     1     109.795 133.608 147.595  0.00  0.00    +0.000 OA
ATOM     27  C   UNL     1     111.249 132.501 145.248  0.00  0.00    +0.000 A 
ATOM     28  C   UNL     1     110.340 132.883 145.134  0.00  0.00    +0.000 A 
ATOM     29  C   UNL     1     111.672 132.488 146.145  0.00  0.00    +0.000 A 
ATOM     30  C   UNL     1     109.856 133.252 145.916  0.00  0.00    +0.000 A 
ATOM     31  C   UNL     1     111.187 132.857 146.927  0.00  0.00    +0.000 A 
ATOM     32  C   UNL     1     110.279 133.239 146.813  0.00  0.00    +0.000 A 
ENDBRANCH  12  27
BRANCH  11  33
ATOM     33  O   UNL     1     111.506 129.135 141.269  0.00  0.00    +0.000 OA
BRANCH  33  41
ATOM     34  O   UNL     1     109.893 129.539 140.838  0.00  0.00    +0.000 OA
ATOM     35  O   UNL     1     108.887 127.277 142.487  0.00  0.00    +0.000 OA
ATOM     36  O   UNL     1     110.836 127.627 142.368  0.00  0.00    +0.000 OA
ATOM     37  O   UNL     1     107.610 128.434 141.507  0.00  0.00    +0.000 OA
ATOM     38  C   UNL     1     109.222 128.030 141.938  0.00  0.00    +0.000 C 
ATOM     39  C   UNL     1     110.197 128.206 141.878  0.00  0.00    +0.000 C 
ATOM     40  C   UNL     1     108.584 128.609 141.448  0.00  0.00    +0.000 C 
ATOM     41  C   UNL     1     110.532 128.960 141.328  0.00  0.00    +0.000 C 
ATOM     42  C   UNL     1     108.919 129.364 140.898  0.00  0.00    +0.000 C 
BRANCH  42  44
ATOM     43  O   UNL     1     108.488 130.244 139.487  0.00  0.00    +0.000 OA
ATOM     44  C   UNL     1     108.280 129.942 140.408  0.00  0.00    +0.000 C 
ENDBRANCH  42  44
ENDBRANCH  33  41
ENDBRANCH  11  33
TORSDOF 5
ENDMDL
MODEL 6
REMARK VINA RESULT:      -9.7      7.637      9.562
REMARK  Name = 
REMARK  5 active torsions:
REMARK  status: ('A' for Active; 'I' for Inactive)
REMARK    1  A    between atoms: O_2  and  C_18
REMARK    2  A    between atoms: O_2  and  C_26
REMARK    3  A    between atoms: C_19  and  C_31
REMARK    4  A    between atoms: C_21  and  C_32
REMARK    5  A    between atoms: C_27  and  C_34
REMARK                            x       y       z     vdW  Elec       q    Type
REMARK                         _______ _______ _______ _____ _____    ______ ____
ROOT
ATOM      1  O   UNL     1     109.218 127.435 140.027  0.00  0.00    +0.000 OA
ATOM      2  O   UNL     1     111.102 125.062 138.262  0.00  0.00    +0.000 OA
ATOM      3  O   UNL     1     108.877 125.001 141.127  0.00  0.00    +0.000 OA
ATOM      4  O   UNL     1     112.053 123.893 137.363  0.00  0.00    +0.000 OA
ATOM      5  C   UNL     1     111.115 126.758 137.784  0.00  0.00    +0.000 A 
ATOM      6  C   UNL     1     111.765 126.546 137.009  0.00  0.00    +0.000 C 
ATOM      7  C   UNL     1     110.171 126.258 139.128  0.00  0.00    +0.000 A 
ATOM      8  C   UNL     1     109.846 125.501 139.751  0.00  0.00    +0.000 C 
ATOM      9  C   UNL     1     110.795 126.041 138.389  0.00  0.00    +0.000 A 
ATOM     10  C   UNL     1     109.196 125.721 140.523  0.00  0.00    +0.000 C 
ATOM     11  C   UNL     1     110.812 127.692 137.917  0.00  0.00    +0.000 A 
ATOM     12  C   UNL     1     108.880 126.693 140.662  0.00  0.00    +0.000 C 
ATOM     13  C   UNL     1     109.868 127.193 139.262  0.00  0.00    +0.000 A 
ATOM     14  C   UNL     1     112.086 125.575 136.863  0.00  0.00    +0.000 C 
ATOM     15  C   UNL     1     110.188 127.910 138.656  0.00  0.00    +0.000 A 
ATOM     16  C   UNL     1     111.752 124.829 137.494  0.00  0.00    +0.000 C 
ENDROOT
BRANCH   6  19
ATOM     17  O   UNL     1     114.092 128.942 136.205  0.00  0.00    +0.000 OA
ATOM     18  O   UNL     1     113.023 129.446 134.612  0.00  0.00    +0.000 OA
ATOM     19  C   UNL     1     112.080 127.271 136.409  0.00  0.00    +0.000 A 
ATOM     20  C   UNL     1     112.929 127.744 136.606  0.00  0.00    +0.000 A 
ATOM     21  C   UNL     1     111.546 127.523 135.613  0.00  0.00    +0.000 A 
ATOM     22  C   UNL     1     113.243 128.469 136.008  0.00  0.00    +0.000 A 
ATOM     23  C   UNL     1     111.860 128.248 135.015  0.00  0.00    +0.000 A 
ATOM     24  C   UNL     1     112.709 128.721 135.212  0.00  0.00    +0.000 A 
ENDBRANCH   6  19
BRANCH  12  27
ATOM     25  O   UNL     1     108.231 128.310 143.622  0.00  0.00    +0.000 OA
ATOM     26  O   UNL     1     106.385 127.582 143.615  0.00  0.00    +0.000 OA
ATOM     27  C   UNL     1     108.256 126.915 141.400  0.00  0.00    +0.000 A 
ATOM     28  C   UNL     1     108.555 127.502 142.142  0.00  0.00    +0.000 A 
ATOM     29  C   UNL     1     107.333 126.551 141.397  0.00  0.00    +0.000 A 
ATOM     30  C   UNL     1     107.932 127.724 142.880  0.00  0.00    +0.000 A 
ATOM     31  C   UNL     1     106.711 126.774 142.135  0.00  0.00    +0.000 A 
ATOM     32  C   UNL     1     107.009 127.360 142.877  0.00  0.00    +0.000 A 
ENDBRANCH  12  27
BRANCH  11  33
ATOM     33  O   UNL     1     111.133 128.409 137.311  0.00  0.00    +0.000 OA
BRANCH  33  41
ATOM     34  O   UNL     1     109.848 129.416 136.778  0.00  0.00    +0.000 OA
ATOM     35  O   UNL     1     110.980 131.684 138.333  0.00  0.00    +0.000 OA
ATOM     36  O   UNL     1     111.888 129.921 138.348  0.00  0.00    +0.000 OA
ATOM     37  O   UNL     1     109.318 131.936 137.281  0.00  0.00    +0.000 OA
ATOM     38  C   UNL     1     110.602 130.929 137.815  0.00  0.00    +0.000 C 
ATOM     39  C   UNL     1     111.056 130.047 137.822  0.00  0.00    +0.000 C 
ATOM     40  C   UNL     1     109.772 131.054 137.289  0.00  0.00    +0.000 C 
ATOM     41  C   UNL     1     110.679 129.290 137.303  0.00  0.00    +0.000 C 
ATOM     42  C   UNL     1     109.394 130.297 136.770  0.00  0.00    +0.000 C 
BRANCH  42  44
ATOM     43  O   UNL     1     108.169 129.662 135.747  0.00  0.00    +0.000 OA
ATOM     44  C   UNL     1     108.563 130.423 136.244  0.00  0.00    +0.000 C 
ENDBRANCH  42  44
ENDBRANCH  33  41
ENDBRANCH  11  33
TORSDOF 5
ENDMDL
MODEL 7
REMARK VINA RESULT:      -9.6      7.124      9.655
REMARK  Name = 
REMARK  5 active torsions:
REMARK  status: ('A' for Active; 'I' for Inactive)
REMARK    1  A    between atoms: O_2  and  C_18
REMARK    2  A    between atoms: O_2  and  C_26
REMARK    3  A    between atoms: C_19  and  C_31
REMARK    4  A    between atoms: C_21  and  C_32
REMARK    5  A    between atoms: C_27  and  C_34
REMARK                            x       y       z     vdW  Elec       q    Type
REMARK                         _______ _______ _______ _____ _____    ______ ____
ROOT
ATOM      1  O   UNL     1     108.873 128.123 140.512  0.00  0.00    +0.000 OA
ATOM      2  O   UNL     1     112.074 129.452 141.043  0.00  0.00    +0.000 OA
ATOM      3  O   UNL     1     109.314 128.408 143.153  0.00  0.00    +0.000 OA
ATOM      4  O   UNL     1     113.680 130.117 141.283  0.00  0.00    +0.000 OA
ATOM      5  C   UNL     1     111.486 129.146 139.410  0.00  0.00    +0.000 A 
ATOM      6  C   UNL     1     112.375 129.494 139.013  0.00  0.00    +0.000 C 
ATOM      7  C   UNL     1     110.484 128.790 140.758  0.00  0.00    +0.000 A 
ATOM      8  C   UNL     1     110.347 128.775 141.782  0.00  0.00    +0.000 C 
ATOM      9  C   UNL     1     111.341 129.126 140.390  0.00  0.00    +0.000 A 
ATOM     10  C   UNL     1     109.456 128.427 142.171  0.00  0.00    +0.000 C 
ATOM     11  C   UNL     1     110.775 128.831 138.797  0.00  0.00    +0.000 A 
ATOM     12  C   UNL     1     108.714 128.098 141.532  0.00  0.00    +0.000 C 
ATOM     13  C   UNL     1     109.771 128.475 140.144  0.00  0.00    +0.000 A 
ATOM     14  C   UNL     1     113.121 129.824 139.645  0.00  0.00    +0.000 C 
ATOM     15  C   UNL     1     109.917 128.495 139.164  0.00  0.00    +0.000 A 
ATOM     16  C   UNL     1     112.970 129.803 140.667  0.00  0.00    +0.000 C 
ENDROOT
BRANCH   6  19
ATOM     17  O   UNL     1     113.505 127.985 136.141  0.00  0.00    +0.000 OA
ATOM     18  O   UNL     1     112.914 129.555 135.083  0.00  0.00    +0.000 OA
ATOM     19  C   UNL     1     112.509 129.509 138.030  0.00  0.00    +0.000 A 
ATOM     20  C   UNL     1     112.940 128.740 137.577  0.00  0.00    +0.000 A 
ATOM     21  C   UNL     1     112.214 130.294 137.501  0.00  0.00    +0.000 A 
ATOM     22  C   UNL     1     113.075 128.754 136.595  0.00  0.00    +0.000 A 
ATOM     23  C   UNL     1     112.349 130.309 136.520  0.00  0.00    +0.000 A 
ATOM     24  C   UNL     1     112.779 129.539 136.066  0.00  0.00    +0.000 A 
ENDBRANCH   6  19
BRANCH  12  27
ATOM     25  O   UNL     1     106.800 125.506 142.722  0.00  0.00    +0.000 OA
ATOM     26  O   UNL     1     105.278 126.751 142.985  0.00  0.00    +0.000 OA
ATOM     27  C   UNL     1     107.855 127.762 141.896  0.00  0.00    +0.000 A 
ATOM     28  C   UNL     1     107.757 126.802 142.127  0.00  0.00    +0.000 A 
ATOM     29  C   UNL     1     107.094 128.384 142.027  0.00  0.00    +0.000 A 
ATOM     30  C   UNL     1     106.898 126.465 142.490  0.00  0.00    +0.000 A 
ATOM     31  C   UNL     1     106.235 128.046 142.390  0.00  0.00    +0.000 A 
ATOM     32  C   UNL     1     106.137 127.087 142.622  0.00  0.00    +0.000 A 
ENDBRANCH  12  27
BRANCH  11  33
ATOM     33  O   UNL     1     110.920 128.851 137.815  0.00  0.00    +0.000 OA
BRANCH  33  41
ATOM     34  O   UNL     1     110.498 127.373 137.049  0.00  0.00    +0.000 OA
ATOM     35  O   UNL     1     108.182 128.708 135.748  0.00  0.00    +0.000 OA
ATOM     36  O   UNL     1     109.375 129.742 136.948  0.00  0.00    +0.000 OA
ATOM     37  O   UNL     1     108.532 126.785 135.416  0.00  0.00    +0.000 OA
ATOM     38  C   UNL     1     108.954 128.263 136.182  0.00  0.00    +0.000 C 
ATOM     39  C   UNL     1     109.551 128.780 136.782  0.00  0.00    +0.000 C 
ATOM     40  C   UNL     1     109.129 127.302 136.016  0.00  0.00    +0.000 C 
ATOM     41  C   UNL     1     110.324 128.334 137.216  0.00  0.00    +0.000 C 
ATOM     42  C   UNL     1     109.902 126.856 136.450  0.00  0.00    +0.000 C 
BRANCH  42  44
ATOM     43  O   UNL     1     110.829 125.439 136.743  0.00  0.00    +0.000 OA
ATOM     44  C   UNL     1     110.077 125.895 136.284  0.00  0.00    +0.000 C 
ENDBRANCH  42  44
ENDBRANCH  33  41
ENDBRANCH  11  33
TORSDOF 5
ENDMDL
MODEL 8
REMARK VINA RESULT:      -9.6      7.813      9.984
REMARK  Name = 
REMARK  5 active torsions:
REMARK  status: ('A' for Active; 'I' for Inactive)
REMARK    1  A    between atoms: O_2  and  C_18
REMARK    2  A    between atoms: O_2  and  C_26
REMARK    3  A    between atoms: C_19  and  C_31
REMARK    4  A    between atoms: C_21  and  C_32
REMARK    5  A    between atoms: C_27  and  C_34
REMARK                            x       y       z     vdW  Elec       q    Type
REMARK                         _______ _______ _______ _____ _____    ______ ____
ROOT
ATOM      1  O   UNL     1     109.753 129.144 140.500  0.00  0.00    +0.000 OA
ATOM      2  O   UNL     1     110.189 131.938 138.427  0.00  0.00    +0.000 OA
ATOM      3  O   UNL     1     108.187 131.161 141.351  0.00  0.00    +0.000 OA
ATOM      4  O   UNL     1     110.424 133.324 137.376  0.00  0.00    +0.000 OA
ATOM      5  C   UNL     1     111.081 130.449 138.128  0.00  0.00    +0.000 A 
ATOM      6  C   UNL     1     111.547 130.878 137.312  0.00  0.00    +0.000 C 
ATOM      7  C   UNL     1     109.986 130.536 139.447  0.00  0.00    +0.000 A 
ATOM      8  C   UNL     1     109.304 131.082 139.999  0.00  0.00    +0.000 C 
ATOM      9  C   UNL     1     110.425 130.960 138.667  0.00  0.00    +0.000 A 
ATOM     10  C   UNL     1     108.843 130.646 140.814  0.00  0.00    +0.000 C 
ATOM     11  C   UNL     1     111.298 129.512 138.370  0.00  0.00    +0.000 A 
ATOM     12  C   UNL     1     109.068 129.671 141.066  0.00  0.00    +0.000 C 
ATOM     13  C   UNL     1     110.203 129.599 139.689  0.00  0.00    +0.000 A 
ATOM     14  C   UNL     1     111.327 131.853 137.054  0.00  0.00    +0.000 C 
ATOM     15  C   UNL     1     110.859 129.087 139.151  0.00  0.00    +0.000 A 
ATOM     16  C   UNL     1     110.643 132.387 137.615  0.00  0.00    +0.000 C 
ENDROOT
BRANCH   6  19
ATOM     17  O   UNL     1     112.249 128.796 134.671  0.00  0.00    +0.000 OA
ATOM     18  O   UNL     1     114.165 128.791 135.184  0.00  0.00    +0.000 OA
ATOM     19  C   UNL     1     112.202 130.357 136.780  0.00  0.00    +0.000 A 
ATOM     20  C   UNL     1     111.899 129.837 135.992  0.00  0.00    +0.000 A 
ATOM     21  C   UNL     1     113.160 130.354 137.036  0.00  0.00    +0.000 A 
ATOM     22  C   UNL     1     112.552 129.316 135.460  0.00  0.00    +0.000 A 
ATOM     23  C   UNL     1     113.813 129.833 136.504  0.00  0.00    +0.000 A 
ATOM     24  C   UNL     1     113.510 129.313 135.716  0.00  0.00    +0.000 A 
ENDBRANCH   6  19
BRANCH  12  27
ATOM     25  O   UNL     1     108.993 128.996 144.433  0.00  0.00    +0.000 OA
ATOM     26  O   UNL     1     107.320 127.957 144.187  0.00  0.00    +0.000 OA
ATOM     27  C   UNL     1     108.631 129.242 141.846  0.00  0.00    +0.000 A 
ATOM     28  C   UNL     1     109.030 129.333 142.750  0.00  0.00    +0.000 A 
ATOM     29  C   UNL     1     107.795 128.723 141.723  0.00  0.00    +0.000 A 
ATOM     30  C   UNL     1     108.594 128.905 143.529  0.00  0.00    +0.000 A 
ATOM     31  C   UNL     1     107.359 128.295 142.504  0.00  0.00    +0.000 A 
ATOM     32  C   UNL     1     107.758 128.386 143.407  0.00  0.00    +0.000 A 
ENDBRANCH  12  27
BRANCH  11  33
ATOM     33  O   UNL     1     111.955 129.000 137.831  0.00  0.00    +0.000 OA
BRANCH  33  41
ATOM     34  O   UNL     1     111.366 127.428 137.467  0.00  0.00    +0.000 OA
ATOM     35  O   UNL     1     113.504 126.236 139.156  0.00  0.00    +0.000 OA
ATOM     36  O   UNL     1     113.381 128.205 138.957  0.00  0.00    +0.000 OA
ATOM     37  O   UNL     1     112.202 125.062 138.229  0.00  0.00    +0.000 OA
ATOM     38  C   UNL     1     112.791 126.633 138.593  0.00  0.00    +0.000 C 
ATOM     39  C   UNL     1     112.729 127.618 138.493  0.00  0.00    +0.000 C 
ATOM     40  C   UNL     1     112.140 126.047 138.130  0.00  0.00    +0.000 C 
ATOM     41  C   UNL     1     112.016 128.016 137.930  0.00  0.00    +0.000 C 
ATOM     42  C   UNL     1     111.427 126.444 137.566  0.00  0.00    +0.000 C 
BRANCH  42  44
ATOM     43  O   UNL     1     110.090 126.249 136.505  0.00  0.00    +0.000 OA
ATOM     44  C   UNL     1     110.777 125.857 137.103  0.00  0.00    +0.000 C 
ENDBRANCH  42  44
ENDBRANCH  33  41
ENDBRANCH  11  33
TORSDOF 5
ENDMDL
MODEL 9
REMARK VINA RESULT:      -9.5      5.552      8.724
REMARK  Name = 
REMARK  5 active torsions:
REMARK  status: ('A' for Active; 'I' for Inactive)
REMARK    1  A    between atoms: O_2  and  C_18
REMARK    2  A    between atoms: O_2  and  C_26
REMARK    3  A    between atoms: C_19  and  C_31
REMARK    4  A    between atoms: C_21  and  C_32
REMARK    5  A    between atoms: C_27  and  C_34
REMARK                            x       y       z     vdW  Elec       q    Type
REMARK                         _______ _______ _______ _____ _____    ______ ____
ROOT
ATOM      1  O   UNL     1     107.495 126.004 140.946  0.00  0.00    +0.000 OA
ATOM      2  O   UNL     1     108.013 128.411 143.442  0.00  0.00    +0.000 OA
ATOM      3  O   UNL     1     105.370 126.074 142.599  0.00  0.00    +0.000 OA
ATOM      4  O   UNL     1     108.295 129.622 144.681  0.00  0.00    +0.000 OA
ATOM      5  C   UNL     1     109.230 128.126 142.201  0.00  0.00    +0.000 A 
ATOM      6  C   UNL     1     109.840 128.850 142.617  0.00  0.00    +0.000 C 
ATOM      7  C   UNL     1     107.774 127.218 142.191  0.00  0.00    +0.000 A 
ATOM      8  C   UNL     1     106.857 127.008 142.618  0.00  0.00    +0.000 C 
ATOM      9  C   UNL     1     108.348 127.914 142.600  0.00  0.00    +0.000 A 
ATOM     10  C   UNL     1     106.253 126.283 142.197  0.00  0.00    +0.000 C 
ATOM     11  C   UNL     1     109.539 127.642 141.394  0.00  0.00    +0.000 A 
ATOM     12  C   UNL     1     106.574 125.778 141.356  0.00  0.00    +0.000 C 
ATOM     13  C   UNL     1     108.082 126.732 141.383  0.00  0.00    +0.000 A 
ATOM     14  C   UNL     1     109.526 129.359 143.458  0.00  0.00    +0.000 C 
ATOM     15  C   UNL     1     108.964 126.944 140.985  0.00  0.00    +0.000 A 
ATOM     16  C   UNL     1     108.606 129.139 143.873  0.00  0.00    +0.000 C 
ENDROOT
BRANCH   6  19
ATOM     17  O   UNL     1     111.757 130.698 140.446  0.00  0.00    +0.000 OA
ATOM     18  O   UNL     1     113.363 129.666 140.986  0.00  0.00    +0.000 OA
ATOM     19  C   UNL     1     110.721 129.054 142.209  0.00  0.00    +0.000 A 
ATOM     20  C   UNL     1     110.799 129.774 141.532  0.00  0.00    +0.000 A 
ATOM     21  C   UNL     1     111.524 128.538 142.479  0.00  0.00    +0.000 A 
ATOM     22  C   UNL     1     111.679 129.978 141.124  0.00  0.00    +0.000 A 
ATOM     23  C   UNL     1     112.404 128.742 142.071  0.00  0.00    +0.000 A 
ATOM     24  C   UNL     1     112.482 129.462 141.393  0.00  0.00    +0.000 A 
ENDBRANCH   6  19
BRANCH  12  27
ATOM     25  O   UNL     1     104.181 124.863 139.068  0.00  0.00    +0.000 OA
ATOM     26  O   UNL     1     104.288 122.988 139.707  0.00  0.00    +0.000 OA
ATOM     27  C   UNL     1     106.002 125.080 140.944  0.00  0.00    +0.000 A 
ATOM     28  C   UNL     1     105.377 125.320 140.212  0.00  0.00    +0.000 A 
ATOM     29  C   UNL     1     106.056 124.142 141.263  0.00  0.00    +0.000 A 
ATOM     30  C   UNL     1     104.806 124.623 139.800  0.00  0.00    +0.000 A 
ATOM     31  C   UNL     1     105.484 123.446 140.850  0.00  0.00    +0.000 A 
ATOM     32  C   UNL     1     104.859 123.685 140.119  0.00  0.00    +0.000 A 
ENDBRANCH  12  27
BRANCH  11  33
ATOM     33  O   UNL     1     110.422 127.854 140.995  0.00  0.00    +0.000 OA
BRANCH  33  41
ATOM     34  O   UNL     1     110.289 128.037 139.292  0.00  0.00    +0.000 OA
ATOM     35  O   UNL     1     111.988 125.628 138.899  0.00  0.00    +0.000 OA
ATOM     36  O   UNL     1     111.555 126.247 140.733  0.00  0.00    +0.000 OA
ATOM     37  O   UNL     1     111.288 126.615 137.328  0.00  0.00    +0.000 OA
ATOM     38  C   UNL     1     111.421 126.431 139.030  0.00  0.00    +0.000 C 
ATOM     39  C   UNL     1     111.205 126.741 139.947  0.00  0.00    +0.000 C 
ATOM     40  C   UNL     1     111.071 126.924 138.245  0.00  0.00    +0.000 C 
ATOM     41  C   UNL     1     110.638 127.544 140.078  0.00  0.00    +0.000 C 
ATOM     42  C   UNL     1     110.505 127.728 138.376  0.00  0.00    +0.000 C 
BRANCH  42  44
ATOM     43  O   UNL     1     109.299 128.717 137.655  0.00  0.00    +0.000 OA
ATOM     44  C   UNL     1     110.155 128.221 137.590  0.00  0.00    +0.000 C 
ENDBRANCH  42  44
ENDBRANCH  33  41
ENDBRANCH  11  33
TORSDOF 5
ENDMDL
