MODEL 1
REMARK VINA RESULT:     -10.7      0.000      0.000
REMARK  Name = 44259420
REMARK  7 active torsions:
REMARK  status: ('A' for Active; 'I' for Inactive)
REMARK    1  A    between atoms: O_3  and  C_27
REMARK    2  A    between atoms: O_3  and  C_31
REMARK    3  A    between atoms: O_5  and  C_28
REMARK    4  A    between atoms: O_5  and  C_32
REMARK    5  A    between atoms: C_24  and  C_29
REMARK    6  A    between atoms: C_26  and  C_30
REMARK    7  A    between atoms: C_33  and  C_34
REMARK                            x       y       z     vdW  Elec       q    Type
REMARK                         _______ _______ _______ _____ _____    ______ ____
ROOT
ATOM      1  O   UNL     1     111.824 129.567 135.840  0.00  0.00    +0.000 OA
ATOM      2  O   UNL     1     112.318 130.894 137.871  0.00  0.00    +0.000 OA
ATOM      3  O   UNL     1     113.709 130.993 137.503  0.00  0.00    +0.000 OA
ATOM      4  O   UNL     1     114.618 129.725 135.033  0.00  0.00    +0.000 OA
ATOM      5  C   UNL     1     111.384 130.189 137.050  0.00  0.00    +0.000 A 
ATOM      6  C   UNL     1     111.220 129.747 136.372  0.00  0.00    +0.000 A 
ATOM      7  C   UNL     1     112.153 130.451 137.193  0.00  0.00    +0.000 A 
ATOM      8  C   UNL     1     112.757 130.272 136.661  0.00  0.00    +0.000 A 
ATOM      9  C   UNL     1     112.593 129.830 135.985  0.00  0.00    +0.000 A 
ATOM     10  C   UNL     1     113.554 130.551 136.823  0.00  0.00    +0.000 A 
ATOM     11  C   UNL     1     113.213 129.636 135.423  0.00  0.00    +0.000 A 
ATOM     12  C   UNL     1     114.187 130.367 136.272  0.00  0.00    +0.000 A 
ATOM     13  C   UNL     1     114.016 129.907 135.567  0.00  0.00    +0.000 A 
ENDROOT
BRANCH   6  17
ATOM     14  O   UNL     1     108.145 128.695 135.799  0.00  0.00    +0.000 OA
ATOM     15  O   UNL     1     108.737 130.000 134.980  0.00  0.00    +0.000 OA
ATOM     16  C   UNL     1     109.386 128.569 136.494  0.00  0.00    +0.000 A 
ATOM     17  C   UNL     1     110.451 129.484 136.228  0.00  0.00    +0.000 A 
ATOM     18  C   UNL     1     110.155 128.831 136.638  0.00  0.00    +0.000 A 
ATOM     19  C   UNL     1     108.914 128.959 135.942  0.00  0.00    +0.000 A 
ATOM     20  C   UNL     1     109.978 129.874 135.676  0.00  0.00    +0.000 A 
ATOM     21  C   UNL     1     109.210 129.611 135.533  0.00  0.00    +0.000 A 
BRANCH  16  22
ATOM     22  O   UNL     1     109.090 127.916 136.904  0.00  0.00    +0.000 OA
BRANCH  22  31
ATOM     23  O   UNL     1     109.754 126.857 136.213  0.00  0.00    +0.000 OA
ATOM     24  O   UNL     1     110.322 125.800 138.378  0.00  0.00    +0.000 OA
ATOM     25  O   UNL     1     110.797 125.093 136.965  0.00  0.00    +0.000 OA
ATOM     26  O   UNL     1     109.469 127.212 138.347  0.00  0.00    +0.000 OA
ATOM     27  C   UNL     1     110.133 126.153 137.656  0.00  0.00    +0.000 C 
ATOM     28  C   UNL     1     110.370 125.799 136.949  0.00  0.00    +0.000 C 
ATOM     29  C   UNL     1     109.706 126.859 137.641  0.00  0.00    +0.000 C 
ATOM     30  C   UNL     1     110.181 126.151 136.228  0.00  0.00    +0.000 C 
ATOM     31  C   UNL     1     109.517 127.210 136.919  0.00  0.00    +0.000 C 
BRANCH  30  33
ATOM     32  O   UNL     1     109.888 125.737 134.892  0.00  0.00    +0.000 OA
ATOM     33  C   UNL     1     110.418 125.797 135.521  0.00  0.00    +0.000 C 
ENDBRANCH  30  33
ENDBRANCH  22  31
ENDBRANCH  16  22
ENDBRANCH   6  17
BRANCH   5  34
ATOM     34  O   UNL     1     110.780 130.369 137.582  0.00  0.00    +0.000 OA
BRANCH  34  43
ATOM     35  O   UNL     1     110.671 131.738 137.188  0.00  0.00    +0.000 OA
ATOM     36  O   UNL     1     110.013 132.349 139.494  0.00  0.00    +0.000 OA
ATOM     37  O   UNL     1     110.123 133.514 138.332  0.00  0.00    +0.000 OA
ATOM     38  O   UNL     1     110.342 130.776 139.120  0.00  0.00    +0.000 OA
ATOM     39  C   UNL     1     110.232 132.146 138.725  0.00  0.00    +0.000 C 
ATOM     40  C   UNL     1     110.287 132.728 138.144  0.00  0.00    +0.000 C 
ATOM     41  C   UNL     1     110.397 131.359 138.538  0.00  0.00    +0.000 C 
ATOM     42  C   UNL     1     110.507 132.524 137.375  0.00  0.00    +0.000 C 
ATOM     43  C   UNL     1     110.616 131.155 137.769  0.00  0.00    +0.000 C 
BRANCH  42  45
ATOM     44  O   UNL     1     110.060 133.085 136.139  0.00  0.00    +0.000 OA
ATOM     45  C   UNL     1     110.562 133.106 136.794  0.00  0.00    +0.000 C 
ENDBRANCH  42  45
ENDBRANCH  34  43
ENDBRANCH   5  34
TORSDOF 7
ENDMDL
MODEL 2
REMARK VINA RESULT:     -10.1      1.764      2.615
REMARK  Name = 44259420
REMARK  7 active torsions:
REMARK  status: ('A' for Active; 'I' for Inactive)
REMARK    1  A    between atoms: O_3  and  C_27
REMARK    2  A    between atoms: O_3  and  C_31
REMARK    3  A    between atoms: O_5  and  C_28
REMARK    4  A    between atoms: O_5  and  C_32
REMARK    5  A    between atoms: C_24  and  C_29
REMARK    6  A    between atoms: C_26  and  C_30
REMARK    7  A    between atoms: C_33  and  C_34
REMARK                            x       y       z     vdW  Elec       q    Type
REMARK                         _______ _______ _______ _____ _____    ______ ____
ROOT
ATOM      1  O   UNL     1     112.342 128.716 136.340  0.00  0.00    +0.000 OA
ATOM      2  O   UNL     1     113.289 130.404 137.884  0.00  0.00    +0.000 OA
ATOM      3  O   UNL     1     114.460 130.549 137.053  0.00  0.00    +0.000 OA
ATOM      4  O   UNL     1     114.676 128.957 134.614  0.00  0.00    +0.000 OA
ATOM      5  C   UNL     1     112.241 129.498 137.533  0.00  0.00    +0.000 A 
ATOM      6  C   UNL     1     111.926 128.935 137.018  0.00  0.00    +0.000 A 
ATOM      7  C   UNL     1     112.974 129.841 137.369  0.00  0.00    +0.000 A 
ATOM      8  C   UNL     1     113.390 129.622 136.691  0.00  0.00    +0.000 A 
ATOM      9  C   UNL     1     113.074 129.060 136.177  0.00  0.00    +0.000 A 
ATOM     10  C   UNL     1     114.152 129.987 136.533  0.00  0.00    +0.000 A 
ATOM     11  C   UNL     1     113.498 128.824 135.468  0.00  0.00    +0.000 A 
ATOM     12  C   UNL     1     114.590 129.763 135.828  0.00  0.00    +0.000 A 
ATOM     13  C   UNL     1     114.261 129.178 135.292  0.00  0.00    +0.000 A 
ENDROOT
BRANCH   6  17
ATOM     14  O   UNL     1     108.998 127.561 137.673  0.00  0.00    +0.000 OA
ATOM     15  O   UNL     1     109.074 129.106 137.101  0.00  0.00    +0.000 OA
ATOM     16  C   UNL     1     110.424 127.476 137.631  0.00  0.00    +0.000 A 
ATOM     17  C   UNL     1     111.194 128.592 137.181  0.00  0.00    +0.000 A 
ATOM     18  C   UNL     1     111.156 127.819 137.468  0.00  0.00    +0.000 A 
ATOM     19  C   UNL     1     109.730 127.905 137.509  0.00  0.00    +0.000 A 
ATOM     20  C   UNL     1     110.500 129.022 137.059  0.00  0.00    +0.000 A 
ATOM     21  C   UNL     1     109.768 128.677 137.223  0.00  0.00    +0.000 A 
BRANCH  16  22
ATOM     22  O   UNL     1     110.386 126.702 137.918  0.00  0.00    +0.000 OA
BRANCH  22  31
ATOM     23  O   UNL     1     110.551 126.041 136.663  0.00  0.00    +0.000 OA
ATOM     24  O   UNL     1     111.929 124.302 137.759  0.00  0.00    +0.000 OA
ATOM     25  O   UNL     1     111.634 124.220 136.137  0.00  0.00    +0.000 OA
ATOM     26  O   UNL     1     111.305 125.543 138.649  0.00  0.00    +0.000 OA
ATOM     27  C   UNL     1     111.469 124.882 137.394  0.00  0.00    +0.000 C 
ATOM     28  C   UNL     1     111.322 124.841 136.582  0.00  0.00    +0.000 C 
ATOM     29  C   UNL     1     111.157 125.502 137.839  0.00  0.00    +0.000 C 
ATOM     30  C   UNL     1     110.863 125.420 136.217  0.00  0.00    +0.000 C 
ATOM     31  C   UNL     1     110.698 126.082 137.473  0.00  0.00    +0.000 C 
BRANCH  30  33
ATOM     32  O   UNL     1     109.946 125.465 135.122  0.00  0.00    +0.000 OA
ATOM     33  C   UNL     1     110.715 125.379 135.406  0.00  0.00    +0.000 C 
ENDBRANCH  30  33
ENDBRANCH  22  31
ENDBRANCH  16  22
ENDBRANCH   6  17
BRANCH   5  34
ATOM     34  O   UNL     1     111.825 129.717 138.210  0.00  0.00    +0.000 OA
BRANCH  34  43
ATOM     35  O   UNL     1     112.672 129.001 139.111  0.00  0.00    +0.000 OA
ATOM     36  O   UNL     1     112.238 130.692 140.865  0.00  0.00    +0.000 OA
ATOM     37  O   UNL     1     113.229 129.412 141.180  0.00  0.00    +0.000 OA
ATOM     38  O   UNL     1     111.536 130.845 139.379  0.00  0.00    +0.000 OA
ATOM     39  C   UNL     1     112.383 130.128 140.280  0.00  0.00    +0.000 C 
ATOM     40  C   UNL     1     112.878 129.488 140.438  0.00  0.00    +0.000 C 
ATOM     41  C   UNL     1     112.031 130.205 139.537  0.00  0.00    +0.000 C 
ATOM     42  C   UNL     1     113.023 128.924 139.853  0.00  0.00    +0.000 C 
ATOM     43  C   UNL     1     112.176 129.641 138.952  0.00  0.00    +0.000 C 
BRANCH  42  45
ATOM     44  O   UNL     1     113.217 127.516 140.004  0.00  0.00    +0.000 OA
ATOM     45  C   UNL     1     113.518 128.285 140.011  0.00  0.00    +0.000 C 
ENDBRANCH  42  45
ENDBRANCH  34  43
ENDBRANCH   5  34
TORSDOF 7
ENDMDL
MODEL 3
REMARK VINA RESULT:     -10.1      1.500      4.632
REMARK  Name = 44259420
REMARK  7 active torsions:
REMARK  status: ('A' for Active; 'I' for Inactive)
REMARK    1  A    between atoms: O_3  and  C_27
REMARK    2  A    between atoms: O_3  and  C_31
REMARK    3  A    between atoms: O_5  and  C_28
REMARK    4  A    between atoms: O_5  and  C_32
REMARK    5  A    between atoms: C_24  and  C_29
REMARK    6  A    between atoms: C_26  and  C_30
REMARK    7  A    between atoms: C_33  and  C_34
REMARK                            x       y       z     vdW  Elec       q    Type
REMARK                         _______ _______ _______ _____ _____    ______ ____
ROOT
ATOM      1  O   UNL     1     112.158 129.561 137.016  0.00  0.00    +0.000 OA
ATOM      2  O   UNL     1     113.021 127.312 136.443  0.00  0.00    +0.000 OA
ATOM      3  O   UNL     1     114.148 127.890 135.751  0.00  0.00    +0.000 OA
ATOM      4  O   UNL     1     114.405 130.797 135.637  0.00  0.00    +0.000 OA
ATOM      5  C   UNL     1     112.036 128.137 137.069  0.00  0.00    +0.000 A 
ATOM      6  C   UNL     1     111.749 128.887 137.260  0.00  0.00    +0.000 A 
ATOM      7  C   UNL     1     112.733 128.062 136.634  0.00  0.00    +0.000 A 
ATOM      8  C   UNL     1     113.142 128.736 136.390  0.00  0.00    +0.000 A 
ATOM      9  C   UNL     1     112.855 129.484 136.581  0.00  0.00    +0.000 A 
ATOM     10  C   UNL     1     113.867 128.643 135.938  0.00  0.00    +0.000 A 
ATOM     11  C   UNL     1     113.271 130.194 136.333  0.00  0.00    +0.000 A 
ATOM     12  C   UNL     1     114.297 129.341 135.681  0.00  0.00    +0.000 A 
ATOM     13  C   UNL     1     113.998 130.122 135.880  0.00  0.00    +0.000 A 
ENDROOT
BRANCH   6  17
ATOM     14  O   UNL     1     108.959 129.188 138.998  0.00  0.00    +0.000 OA
ATOM     15  O   UNL     1     110.358 128.746 139.753  0.00  0.00    +0.000 OA
ATOM     16  C   UNL     1     109.655 129.258 137.752  0.00  0.00    +0.000 A 
ATOM     17  C   UNL     1     111.052 128.962 137.695  0.00  0.00    +0.000 A 
ATOM     18  C   UNL     1     110.352 129.183 137.317  0.00  0.00    +0.000 A 
ATOM     19  C   UNL     1     109.657 129.113 138.564  0.00  0.00    +0.000 A 
ATOM     20  C   UNL     1     111.054 128.817 138.507  0.00  0.00    +0.000 A 
ATOM     21  C   UNL     1     110.356 128.892 138.941  0.00  0.00    +0.000 A 
BRANCH  16  22
ATOM     22  O   UNL     1     108.955 129.480 137.374  0.00  0.00    +0.000 OA
BRANCH  22  31
ATOM     23  O   UNL     1     109.170 130.891 137.337  0.00  0.00    +0.000 OA
ATOM     24  O   UNL     1     108.272 130.967 135.031  0.00  0.00    +0.000 OA
ATOM     25  O   UNL     1     108.786 132.354 135.763  0.00  0.00    +0.000 OA
ATOM     26  O   UNL     1     108.357 129.530 135.837  0.00  0.00    +0.000 OA
ATOM     27  C   UNL     1     108.571 130.942 135.800  0.00  0.00    +0.000 C 
ATOM     28  C   UNL     1     108.828 131.636 136.165  0.00  0.00    +0.000 C 
ATOM     29  C   UNL     1     108.614 130.223 136.202  0.00  0.00    +0.000 C 
ATOM     30  C   UNL     1     109.127 131.610 136.934  0.00  0.00    +0.000 C 
ATOM     31  C   UNL     1     108.913 130.198 136.971  0.00  0.00    +0.000 C 
BRANCH  30  33
ATOM     32  O   UNL     1     109.117 132.494 138.056  0.00  0.00    +0.000 OA
ATOM     33  C   UNL     1     109.385 132.304 137.300  0.00  0.00    +0.000 C 
ENDBRANCH  30  33
ENDBRANCH  22  31
ENDBRANCH  16  22
ENDBRANCH   6  17
BRANCH   5  34
ATOM     34  O   UNL     1     111.627 127.464 137.313  0.00  0.00    +0.000 OA
BRANCH  34  43
ATOM     35  O   UNL     1     111.125 127.163 136.010  0.00  0.00    +0.000 OA
ATOM     36  O   UNL     1     111.101 124.753 136.575  0.00  0.00    +0.000 OA
ATOM     37  O   UNL     1     110.607 125.256 135.084  0.00  0.00    +0.000 OA
ATOM     38  O   UNL     1     111.611 125.857 137.690  0.00  0.00    +0.000 OA
ATOM     39  C   UNL     1     111.109 125.556 136.387  0.00  0.00    +0.000 C 
ATOM     40  C   UNL     1     110.862 125.808 135.641  0.00  0.00    +0.000 C 
ATOM     41  C   UNL     1     111.364 126.109 136.944  0.00  0.00    +0.000 C 
ATOM     42  C   UNL     1     110.870 126.611 135.452  0.00  0.00    +0.000 C 
ATOM     43  C   UNL     1     111.372 126.912 136.756  0.00  0.00    +0.000 C 
BRANCH  42  45
ATOM     44  O   UNL     1     109.953 127.339 134.632  0.00  0.00    +0.000 OA
ATOM     45  C   UNL     1     110.622 126.862 134.707  0.00  0.00    +0.000 C 
ENDBRANCH  42  45
ENDBRANCH  34  43
ENDBRANCH   5  34
TORSDOF 7
ENDMDL
MODEL 4
REMARK VINA RESULT:     -10.0      2.056      3.216
REMARK  Name = 44259420
REMARK  7 active torsions:
REMARK  status: ('A' for Active; 'I' for Inactive)
REMARK    1  A    between atoms: O_3  and  C_27
REMARK    2  A    between atoms: O_3  and  C_31
REMARK    3  A    between atoms: O_5  and  C_28
REMARK    4  A    between atoms: O_5  and  C_32
REMARK    5  A    between atoms: C_24  and  C_29
REMARK    6  A    between atoms: C_26  and  C_30
REMARK    7  A    between atoms: C_33  and  C_34
REMARK                            x       y       z     vdW  Elec       q    Type
REMARK                         _______ _______ _______ _____ _____    ______ ____
ROOT
ATOM      1  O   UNL     1     113.299 128.174 136.881  0.00  0.00    +0.000 OA
ATOM      2  O   UNL     1     112.803 130.441 137.743  0.00  0.00    +0.000 OA
ATOM      3  O   UNL     1     113.601 131.043 136.703  0.00  0.00    +0.000 OA
ATOM      4  O   UNL     1     114.926 129.318 134.753  0.00  0.00    +0.000 OA
ATOM      5  C   UNL     1     112.653 129.022 137.832  0.00  0.00    +0.000 A 
ATOM      6  C   UNL     1     112.819 128.267 137.545  0.00  0.00    +0.000 A 
ATOM      7  C   UNL     1     112.968 129.685 137.455  0.00  0.00    +0.000 A 
ATOM      8  C   UNL     1     113.449 129.592 136.791  0.00  0.00    +0.000 A 
ATOM      9  C   UNL     1     113.614 128.837 136.504  0.00  0.00    +0.000 A 
ATOM     10  C   UNL     1     113.771 130.291 136.408  0.00  0.00    +0.000 A 
ATOM     11  C   UNL     1     114.113 128.727 135.814  0.00  0.00    +0.000 A 
ATOM     12  C   UNL     1     114.273 130.200 135.716  0.00  0.00    +0.000 A 
ATOM     13  C   UNL     1     114.445 129.414 135.417  0.00  0.00    +0.000 A 
ENDROOT
BRANCH   6  17
ATOM     14  O   UNL     1     111.554 125.617 139.052  0.00  0.00    +0.000 OA
ATOM     15  O   UNL     1     113.153 125.983 139.230  0.00  0.00    +0.000 OA
ATOM     16  C   UNL     1     111.387 126.759 138.209  0.00  0.00    +0.000 A 
ATOM     17  C   UNL     1     112.503 127.604 137.922  0.00  0.00    +0.000 A 
ATOM     18  C   UNL     1     111.703 127.421 137.832  0.00  0.00    +0.000 A 
ATOM     19  C   UNL     1     111.871 126.280 138.675  0.00  0.00    +0.000 A 
ATOM     20  C   UNL     1     112.987 127.125 138.388  0.00  0.00    +0.000 A 
ATOM     21  C   UNL     1     112.670 126.462 138.764  0.00  0.00    +0.000 A 
BRANCH  16  22
ATOM     22  O   UNL     1     110.587 126.576 138.120  0.00  0.00    +0.000 OA
BRANCH  22  31
ATOM     23  O   UNL     1     110.628 126.013 136.808  0.00  0.00    +0.000 OA
ATOM     24  O   UNL     1     108.562 127.241 136.216  0.00  0.00    +0.000 OA
ATOM     25  O   UNL     1     109.292 126.268 135.101  0.00  0.00    +0.000 OA
ATOM     26  O   UNL     1     109.210 127.395 137.726  0.00  0.00    +0.000 OA
ATOM     27  C   UNL     1     109.251 126.832 136.414  0.00  0.00    +0.000 C 
ATOM     28  C   UNL     1     109.616 126.345 135.856  0.00  0.00    +0.000 C 
ATOM     29  C   UNL     1     109.575 126.909 137.169  0.00  0.00    +0.000 C 
ATOM     30  C   UNL     1     110.304 125.936 136.053  0.00  0.00    +0.000 C 
ATOM     31  C   UNL     1     110.263 126.499 137.365  0.00  0.00    +0.000 C 
BRANCH  30  33
ATOM     32  O   UNL     1     110.986 124.723 135.726  0.00  0.00    +0.000 OA
ATOM     33  C   UNL     1     110.669 125.449 135.495  0.00  0.00    +0.000 C 
ENDBRANCH  30  33
ENDBRANCH  22  31
ENDBRANCH  16  22
ENDBRANCH   6  17
BRANCH   5  34
ATOM     34  O   UNL     1     112.172 129.115 138.497  0.00  0.00    +0.000 OA
BRANCH  34  43
ATOM     35  O   UNL     1     113.250 129.423 139.383  0.00  0.00    +0.000 OA
ATOM     36  O   UNL     1     111.742 130.860 140.719  0.00  0.00    +0.000 OA
ATOM     37  O   UNL     1     113.322 130.688 141.159  0.00  0.00    +0.000 OA
ATOM     38  O   UNL     1     111.167 130.073 139.387  0.00  0.00    +0.000 OA
ATOM     39  C   UNL     1     112.245 130.381 140.273  0.00  0.00    +0.000 C 
ATOM     40  C   UNL     1     113.035 130.295 140.493  0.00  0.00    +0.000 C 
ATOM     41  C   UNL     1     111.957 129.987 139.607  0.00  0.00    +0.000 C 
ATOM     42  C   UNL     1     113.538 129.816 140.048  0.00  0.00    +0.000 C 
ATOM     43  C   UNL     1     112.460 129.508 139.162  0.00  0.00    +0.000 C 
BRANCH  42  45
ATOM     44  O   UNL     1     114.599 129.009 140.561  0.00  0.00    +0.000 OA
ATOM     45  C   UNL     1     114.328 129.731 140.268  0.00  0.00    +0.000 C 
ENDBRANCH  42  45
ENDBRANCH  34  43
ENDBRANCH   5  34
TORSDOF 7
ENDMDL
MODEL 5
REMARK VINA RESULT:     -10.0      2.159      5.390
REMARK  Name = 44259420
REMARK  7 active torsions:
REMARK  status: ('A' for Active; 'I' for Inactive)
REMARK    1  A    between atoms: O_3  and  C_27
REMARK    2  A    between atoms: O_3  and  C_31
REMARK    3  A    between atoms: O_5  and  C_28
REMARK    4  A    between atoms: O_5  and  C_32
REMARK    5  A    between atoms: C_24  and  C_29
REMARK    6  A    between atoms: C_26  and  C_30
REMARK    7  A    between atoms: C_33  and  C_34
REMARK                            x       y       z     vdW  Elec       q    Type
REMARK                         _______ _______ _______ _____ _____    ______ ____
ROOT
ATOM      1  O   UNL     1     112.156 128.336 138.302  0.00  0.00    +0.000 OA
ATOM      2  O   UNL     1     111.541 125.959 138.616  0.00  0.00    +0.000 OA
ATOM      3  O   UNL     1     111.691 126.079 140.046  0.00  0.00    +0.000 OA
ATOM      4  O   UNL     1     112.478 128.653 141.179  0.00  0.00    +0.000 OA
ATOM      5  C   UNL     1     111.770 127.074 137.753  0.00  0.00    +0.000 A 
ATOM      6  C   UNL     1     111.976 127.867 137.648  0.00  0.00    +0.000 A 
ATOM      7  C   UNL     1     111.746 126.752 138.511  0.00  0.00    +0.000 A 
ATOM      8  C   UNL     1     111.926 127.221 139.166  0.00  0.00    +0.000 A 
ATOM      9  C   UNL     1     112.131 128.012 139.061  0.00  0.00    +0.000 A 
ATOM     10  C   UNL     1     111.897 126.872 139.951  0.00  0.00    +0.000 A 
ATOM     11  C   UNL     1     112.321 128.512 139.734  0.00  0.00    +0.000 A 
ATOM     12  C   UNL     1     112.084 127.356 140.636  0.00  0.00    +0.000 A 
ATOM     13  C   UNL     1     112.297 128.182 140.527  0.00  0.00    +0.000 A 
ENDROOT
BRANCH   6  17
ATOM     14  O   UNL     1     112.071 129.157 134.612  0.00  0.00    +0.000 OA
ATOM     15  O   UNL     1     113.475 128.832 135.415  0.00  0.00    +0.000 OA
ATOM     16  C   UNL     1     111.322 128.674 135.729  0.00  0.00    +0.000 A 
ATOM     17  C   UNL     1     112.000 128.189 136.889  0.00  0.00    +0.000 A 
ATOM     18  C   UNL     1     111.297 128.352 136.488  0.00  0.00    +0.000 A 
ATOM     19  C   UNL     1     112.048 128.834 135.371  0.00  0.00    +0.000 A 
ATOM     20  C   UNL     1     112.726 128.349 136.532  0.00  0.00    +0.000 A 
ATOM     21  C   UNL     1     112.749 128.672 135.772  0.00  0.00    +0.000 A 
BRANCH  16  22
ATOM     22  O   UNL     1     110.619 128.837 135.327  0.00  0.00    +0.000 OA
BRANCH  22  31
ATOM     23  O   UNL     1     110.248 130.031 136.018  0.00  0.00    +0.000 OA
ATOM     24  O   UNL     1     107.893 129.273 136.066  0.00  0.00    +0.000 OA
ATOM     25  O   UNL     1     108.308 130.720 136.742  0.00  0.00    +0.000 OA
ATOM     26  O   UNL     1     109.048 128.331 135.359  0.00  0.00    +0.000 OA
ATOM     27  C   UNL     1     108.678 129.525 136.050  0.00  0.00    +0.000 C 
ATOM     28  C   UNL     1     108.885 130.250 136.388  0.00  0.00    +0.000 C 
ATOM     29  C   UNL     1     109.256 129.054 135.697  0.00  0.00    +0.000 C 
ATOM     30  C   UNL     1     109.671 130.502 136.372  0.00  0.00    +0.000 C 
ATOM     31  C   UNL     1     110.041 129.308 135.681  0.00  0.00    +0.000 C 
BRANCH  30  33
ATOM     32  O   UNL     1     110.388 131.736 136.310  0.00  0.00    +0.000 OA
ATOM     33  C   UNL     1     109.878 131.226 136.710  0.00  0.00    +0.000 C 
ENDBRANCH  30  33
ENDBRANCH  22  31
ENDBRANCH  16  22
ENDBRANCH   6  17
BRANCH   5  34
ATOM     34  O   UNL     1     111.590 126.605 137.098  0.00  0.00    +0.000 OA
BRANCH  34  43
ATOM     35  O   UNL     1     112.828 125.891 137.126  0.00  0.00    +0.000 OA
ATOM     36  O   UNL     1     111.703 123.904 136.170  0.00  0.00    +0.000 OA
ATOM     37  O   UNL     1     113.315 123.853 136.516  0.00  0.00    +0.000 OA
ATOM     38  O   UNL     1     110.841 125.280 136.461  0.00  0.00    +0.000 OA
ATOM     39  C   UNL     1     112.078 124.566 136.489  0.00  0.00    +0.000 C 
ATOM     40  C   UNL     1     112.884 124.541 136.662  0.00  0.00    +0.000 C 
ATOM     41  C   UNL     1     111.647 125.255 136.634  0.00  0.00    +0.000 C 
ATOM     42  C   UNL     1     113.259 125.204 136.981  0.00  0.00    +0.000 C 
ATOM     43  C   UNL     1     112.021 125.917 136.953  0.00  0.00    +0.000 C 
BRANCH  42  45
ATOM     44  O   UNL     1     114.588 125.683 136.763  0.00  0.00    +0.000 OA
ATOM     45  C   UNL     1     114.065 125.178 137.153  0.00  0.00    +0.000 C 
ENDBRANCH  42  45
ENDBRANCH  34  43
ENDBRANCH   5  34
TORSDOF 7
ENDMDL
MODEL 6
REMARK VINA RESULT:      -9.9      1.209      4.549
REMARK  Name = 44259420
REMARK  7 active torsions:
REMARK  status: ('A' for Active; 'I' for Inactive)
REMARK    1  A    between atoms: O_3  and  C_27
REMARK    2  A    between atoms: O_3  and  C_31
REMARK    3  A    between atoms: O_5  and  C_28
REMARK    4  A    between atoms: O_5  and  C_32
REMARK    5  A    between atoms: C_24  and  C_29
REMARK    6  A    between atoms: C_26  and  C_30
REMARK    7  A    between atoms: C_33  and  C_34
REMARK                            x       y       z     vdW  Elec       q    Type
REMARK                         _______ _______ _______ _____ _____    ______ ____
ROOT
ATOM      1  O   UNL     1     111.772 129.282 135.815  0.00  0.00    +0.000 OA
ATOM      2  O   UNL     1     112.741 127.529 137.270  0.00  0.00    +0.000 OA
ATOM      3  O   UNL     1     114.049 127.736 136.697  0.00  0.00    +0.000 OA
ATOM      4  O   UNL     1     114.382 129.755 134.612  0.00  0.00    +0.000 OA
ATOM      5  C   UNL     1     111.614 128.293 136.835  0.00  0.00    +0.000 A 
ATOM      6  C   UNL     1     111.291 128.877 136.350  0.00  0.00    +0.000 A 
ATOM      7  C   UNL     1     112.418 128.114 136.785  0.00  0.00    +0.000 A 
ATOM      8  C   UNL     1     112.899 128.518 136.250  0.00  0.00    +0.000 A 
ATOM      9  C   UNL     1     112.576 129.102 135.766  0.00  0.00    +0.000 A 
ATOM     10  C   UNL     1     113.734 128.322 136.208  0.00  0.00    +0.000 A 
ATOM     11  C   UNL     1     113.065 129.531 135.205  0.00  0.00    +0.000 A 
ATOM     12  C   UNL     1     114.240 128.740 135.653  0.00  0.00    +0.000 A 
ATOM     13  C   UNL     1     113.904 129.348 135.148  0.00  0.00    +0.000 A 
ENDROOT
BRANCH   6  17
ATOM     14  O   UNL     1     108.077 129.595 136.553  0.00  0.00    +0.000 OA
ATOM     15  O   UNL     1     108.638 128.670 135.308  0.00  0.00    +0.000 OA
ATOM     16  C   UNL     1     109.403 129.699 137.073  0.00  0.00    +0.000 A 
ATOM     17  C   UNL     1     110.488 129.056 136.400  0.00  0.00    +0.000 A 
ATOM     18  C   UNL     1     110.207 129.520 137.023  0.00  0.00    +0.000 A 
ATOM     19  C   UNL     1     108.880 129.415 136.502  0.00  0.00    +0.000 A 
ATOM     20  C   UNL     1     109.965 128.773 135.828  0.00  0.00    +0.000 A 
ATOM     21  C   UNL     1     109.161 128.953 135.879  0.00  0.00    +0.000 A 
BRANCH  16  22
ATOM     22  O   UNL     1     109.122 130.162 137.696  0.00  0.00    +0.000 OA
BRANCH  22  31
ATOM     23  O   UNL     1     109.524 131.438 137.195  0.00  0.00    +0.000 OA
ATOM     24  O   UNL     1     110.202 132.121 139.475  0.00  0.00    +0.000 OA
ATOM     25  O   UNL     1     110.378 133.170 138.214  0.00  0.00    +0.000 OA
ATOM     26  O   UNL     1     109.574 130.617 139.217  0.00  0.00    +0.000 OA
ATOM     27  C   UNL     1     109.976 131.893 138.716  0.00  0.00    +0.000 C 
ATOM     28  C   UNL     1     110.064 132.418 138.084  0.00  0.00    +0.000 C 
ATOM     29  C   UNL     1     109.662 131.141 138.586  0.00  0.00    +0.000 C 
ATOM     30  C   UNL     1     109.838 132.190 137.325  0.00  0.00    +0.000 C 
ATOM     31  C   UNL     1     109.436 130.914 137.826  0.00  0.00    +0.000 C 
BRANCH  30  33
ATOM     32  O   UNL     1     109.360 132.736 136.094  0.00  0.00    +0.000 OA
ATOM     33  C   UNL     1     109.926 132.715 136.693  0.00  0.00    +0.000 C 
ENDBRANCH  30  33
ENDBRANCH  22  31
ENDBRANCH  16  22
ENDBRANCH   6  17
BRANCH   5  34
ATOM     34  O   UNL     1     111.134 127.888 137.370  0.00  0.00    +0.000 OA
BRANCH  34  43
ATOM     35  O   UNL     1     111.108 126.662 136.637  0.00  0.00    +0.000 OA
ATOM     36  O   UNL     1     111.019 125.394 138.761  0.00  0.00    +0.000 OA
ATOM     37  O   UNL     1     111.023 124.591 137.321  0.00  0.00    +0.000 OA
ATOM     38  O   UNL     1     111.074 127.043 138.786  0.00  0.00    +0.000 OA
ATOM     39  C   UNL     1     111.049 125.817 138.053  0.00  0.00    +0.000 C 
ATOM     40  C   UNL     1     111.051 125.415 137.332  0.00  0.00    +0.000 C 
ATOM     41  C   UNL     1     111.076 126.642 138.065  0.00  0.00    +0.000 C 
ATOM     42  C   UNL     1     111.080 125.838 136.624  0.00  0.00    +0.000 C 
ATOM     43  C   UNL     1     111.106 127.064 137.357  0.00  0.00    +0.000 C 
BRANCH  42  45
ATOM     44  O   UNL     1     110.476 125.561 135.360  0.00  0.00    +0.000 OA
ATOM     45  C   UNL     1     111.082 125.436 135.904  0.00  0.00    +0.000 C 
ENDBRANCH  42  45
ENDBRANCH  34  43
ENDBRANCH   5  34
TORSDOF 7
ENDMDL
MODEL 7
REMARK VINA RESULT:      -9.8      3.252      5.905
REMARK  Name = 44259420
REMARK  7 active torsions:
REMARK  status: ('A' for Active; 'I' for Inactive)
REMARK    1  A    between atoms: O_3  and  C_27
REMARK    2  A    between atoms: O_3  and  C_31
REMARK    3  A    between atoms: O_5  and  C_28
REMARK    4  A    between atoms: O_5  and  C_32
REMARK    5  A    between atoms: C_24  and  C_29
REMARK    6  A    between atoms: C_26  and  C_30
REMARK    7  A    between atoms: C_33  and  C_34
REMARK                            x       y       z     vdW  Elec       q    Type
REMARK                         _______ _______ _______ _____ _____    ______ ____
ROOT
ATOM      1  O   UNL     1     112.469 128.399 138.622  0.00  0.00    +0.000 OA
ATOM      2  O   UNL     1     113.272 127.129 136.655  0.00  0.00    +0.000 OA
ATOM      3  O   UNL     1     112.700 128.103 135.757  0.00  0.00    +0.000 OA
ATOM      4  O   UNL     1     111.288 130.404 136.871  0.00  0.00    +0.000 OA
ATOM      5  C   UNL     1     113.159 127.274 138.072  0.00  0.00    +0.000 A 
ATOM      6  C   UNL     1     112.891 127.698 138.728  0.00  0.00    +0.000 A 
ATOM      7  C   UNL     1     113.004 127.552 137.311  0.00  0.00    +0.000 A 
ATOM      8  C   UNL     1     112.582 128.254 137.205  0.00  0.00    +0.000 A 
ATOM      9  C   UNL     1     112.315 128.676 137.861  0.00  0.00    +0.000 A 
ATOM     10  C   UNL     1     112.428 128.532 136.407  0.00  0.00    +0.000 A 
ATOM     11  C   UNL     1     111.874 129.407 137.765  0.00  0.00    +0.000 A 
ATOM     12  C   UNL     1     111.989 129.262 136.291  0.00  0.00    +0.000 A 
ATOM     13  C   UNL     1     111.710 129.703 136.974  0.00  0.00    +0.000 A 
ENDROOT
BRANCH   6  17
ATOM     14  O   UNL     1     113.506 126.582 141.773  0.00  0.00    +0.000 OA
ATOM     15  O   UNL     1     114.704 127.312 140.903  0.00  0.00    +0.000 OA
ATOM     16  C   UNL     1     112.600 126.775 140.685  0.00  0.00    +0.000 A 
ATOM     17  C   UNL     1     113.045 127.419 139.489  0.00  0.00    +0.000 A 
ATOM     18  C   UNL     1     112.446 127.054 139.924  0.00  0.00    +0.000 A 
ATOM     19  C   UNL     1     113.353 126.862 141.011  0.00  0.00    +0.000 A 
ATOM     20  C   UNL     1     113.798 127.505 139.815  0.00  0.00    +0.000 A 
ATOM     21  C   UNL     1     113.951 127.226 140.577  0.00  0.00    +0.000 A 
BRANCH  16  22
ATOM     22  O   UNL     1     112.001 126.410 141.120  0.00  0.00    +0.000 OA
BRANCH  22  31
ATOM     23  O   UNL     1     111.349 127.584 141.607  0.00  0.00    +0.000 OA
ATOM     24  O   UNL     1     109.146 126.536 141.191  0.00  0.00    +0.000 OA
ATOM     25  O   UNL     1     109.229 128.060 141.818  0.00  0.00    +0.000 OA
ATOM     26  O   UNL     1     110.532 125.711 140.842  0.00  0.00    +0.000 OA
ATOM     27  C   UNL     1     109.881 126.885 141.329  0.00  0.00    +0.000 C 
ATOM     28  C   UNL     1     109.922 127.648 141.643  0.00  0.00    +0.000 C 
ATOM     29  C   UNL     1     110.574 126.473 141.155  0.00  0.00    +0.000 C 
ATOM     30  C   UNL     1     110.656 127.997 141.782  0.00  0.00    +0.000 C 
ATOM     31  C   UNL     1     111.308 126.823 141.294  0.00  0.00    +0.000 C 
BRANCH  30  33
ATOM     32  O   UNL     1     111.202 128.917 142.729  0.00  0.00    +0.000 OA
ATOM     33  C   UNL     1     110.698 128.759 142.096  0.00  0.00    +0.000 C 
ENDBRANCH  30  33
ENDBRANCH  22  31
ENDBRANCH  16  22
ENDBRANCH   6  17
BRANCH   5  34
ATOM     34  O   UNL     1     113.581 126.573 138.177  0.00  0.00    +0.000 OA
BRANCH  34  43
ATOM     35  O   UNL     1     112.501 125.735 137.762  0.00  0.00    +0.000 OA
ATOM     36  O   UNL     1     114.121 124.052 136.945  0.00  0.00    +0.000 OA
ATOM     37  O   UNL     1     112.502 123.775 136.802  0.00  0.00    +0.000 OA
ATOM     38  O   UNL     1     114.661 125.451 137.633  0.00  0.00    +0.000 OA
ATOM     39  C   UNL     1     113.581 124.613 137.217  0.00  0.00    +0.000 C 
ATOM     40  C   UNL     1     112.771 124.475 137.146  0.00  0.00    +0.000 C 
ATOM     41  C   UNL     1     113.851 125.313 137.562  0.00  0.00    +0.000 C 
ATOM     42  C   UNL     1     112.231 125.036 137.418  0.00  0.00    +0.000 C 
ATOM     43  C   UNL     1     113.311 125.874 137.834  0.00  0.00    +0.000 C 
BRANCH  42  45
ATOM     44  O   UNL     1     110.946 124.868 138.020  0.00  0.00    +0.000 OA
ATOM     45  C   UNL     1     111.422 124.897 137.346  0.00  0.00    +0.000 C 
ENDBRANCH  42  45
ENDBRANCH  34  43
ENDBRANCH   5  34
TORSDOF 7
ENDMDL
MODEL 8
REMARK VINA RESULT:      -9.8      2.236      4.558
REMARK  Name = 44259420
REMARK  7 active torsions:
REMARK  status: ('A' for Active; 'I' for Inactive)
REMARK    1  A    between atoms: O_3  and  C_27
REMARK    2  A    between atoms: O_3  and  C_31
REMARK    3  A    between atoms: O_5  and  C_28
REMARK    4  A    between atoms: O_5  and  C_32
REMARK    5  A    between atoms: C_24  and  C_29
REMARK    6  A    between atoms: C_26  and  C_30
REMARK    7  A    between atoms: C_33  and  C_34
REMARK                            x       y       z     vdW  Elec       q    Type
REMARK                         _______ _______ _______ _____ _____    ______ ____
ROOT
ATOM      1  O   UNL     1     111.448 127.213 139.109  0.00  0.00    +0.000 OA
ATOM      2  O   UNL     1     109.469 128.693 138.962  0.00  0.00    +0.000 OA
ATOM      3  O   UNL     1     108.905 128.104 140.153  0.00  0.00    +0.000 OA
ATOM      4  O   UNL     1     110.372 125.978 141.517  0.00  0.00    +0.000 OA
ATOM      5  C   UNL     1     110.726 128.253 138.445  0.00  0.00    +0.000 A 
ATOM      6  C   UNL     1     111.386 127.759 138.494  0.00  0.00    +0.000 A 
ATOM      7  C   UNL     1     110.129 128.199 139.011  0.00  0.00    +0.000 A 
ATOM      8  C   UNL     1     110.191 127.652 139.626  0.00  0.00    +0.000 A 
ATOM      9  C   UNL     1     110.850 127.160 139.675  0.00  0.00    +0.000 A 
ATOM     10  C   UNL     1     109.561 127.607 140.210  0.00  0.00    +0.000 A 
ATOM     11  C   UNL     1     110.927 126.587 140.310  0.00  0.00    +0.000 A 
ATOM     12  C   UNL     1     109.620 127.040 140.852  0.00  0.00    +0.000 A 
ATOM     13  C   UNL     1     110.307 126.526 140.904  0.00  0.00    +0.000 A 
ENDROOT
BRANCH   6  17
ATOM     14  O   UNL     1     113.775 127.972 136.227  0.00  0.00    +0.000 OA
ATOM     15  O   UNL     1     113.634 129.135 137.389  0.00  0.00    +0.000 OA
ATOM     16  C   UNL     1     112.651 127.284 136.780  0.00  0.00    +0.000 A 
ATOM     17  C   UNL     1     111.984 127.813 137.928  0.00  0.00    +0.000 A 
ATOM     18  C   UNL     1     112.054 127.231 137.347  0.00  0.00    +0.000 A 
ATOM     19  C   UNL     1     113.178 127.919 136.794  0.00  0.00    +0.000 A 
ATOM     20  C   UNL     1     112.511 128.448 137.942  0.00  0.00    +0.000 A 
ATOM     21  C   UNL     1     113.108 128.500 137.375  0.00  0.00    +0.000 A 
BRANCH  16  22
ATOM     22  O   UNL     1     112.722 126.702 136.199  0.00  0.00    +0.000 OA
BRANCH  22  31
ATOM     23  O   UNL     1     113.435 125.671 136.884  0.00  0.00    +0.000 OA
ATOM     24  O   UNL     1     111.763 124.011 136.128  0.00  0.00    +0.000 OA
ATOM     25  O   UNL     1     113.033 123.533 137.066  0.00  0.00    +0.000 OA
ATOM     26  O   UNL     1     111.607 125.595 135.694  0.00  0.00    +0.000 OA
ATOM     27  C   UNL     1     112.320 124.565 136.380  0.00  0.00    +0.000 C 
ATOM     28  C   UNL     1     112.955 124.325 136.849  0.00  0.00    +0.000 C 
ATOM     29  C   UNL     1     112.242 125.357 136.163  0.00  0.00    +0.000 C 
ATOM     30  C   UNL     1     113.512 124.879 137.101  0.00  0.00    +0.000 C 
ATOM     31  C   UNL     1     112.800 125.910 136.416  0.00  0.00    +0.000 C 
BRANCH  30  33
ATOM     32  O   UNL     1     114.910 124.906 137.399  0.00  0.00    +0.000 OA
ATOM     33  C   UNL     1     114.148 124.640 137.570  0.00  0.00    +0.000 C 
ENDBRANCH  30  33
ENDBRANCH  22  31
ENDBRANCH  16  22
ENDBRANCH   6  17
BRANCH   5  34
ATOM     34  O   UNL     1     110.665 128.799 137.830  0.00  0.00    +0.000 OA
BRANCH  34  43
ATOM     35  O   UNL     1     109.753 128.029 137.044  0.00  0.00    +0.000 OA
ATOM     36  O   UNL     1     108.667 130.111 136.262  0.00  0.00    +0.000 OA
ATOM     37  O   UNL     1     108.119 128.647 135.737  0.00  0.00    +0.000 OA
ATOM     38  O   UNL     1     109.941 130.187 137.309  0.00  0.00    +0.000 OA
ATOM     39  C   UNL     1     109.029 129.417 136.523  0.00  0.00    +0.000 C 
ATOM     40  C   UNL     1     108.755 128.684 136.261  0.00  0.00    +0.000 C 
ATOM     41  C   UNL     1     109.667 129.455 137.047  0.00  0.00    +0.000 C 
ATOM     42  C   UNL     1     109.117 127.990 136.521  0.00  0.00    +0.000 C 
ATOM     43  C   UNL     1     110.028 128.761 137.307  0.00  0.00    +0.000 C 
BRANCH  42  45
ATOM     44  O   UNL     1     108.507 126.727 136.793  0.00  0.00    +0.000 OA
ATOM     45  C   UNL     1     108.842 127.259 136.259  0.00  0.00    +0.000 C 
ENDBRANCH  42  45
ENDBRANCH  34  43
ENDBRANCH   5  34
TORSDOF 7
ENDMDL
MODEL 9
REMARK VINA RESULT:      -9.8      2.383      4.933
REMARK  Name = 44259420
REMARK  7 active torsions:
REMARK  status: ('A' for Active; 'I' for Inactive)
REMARK    1  A    between atoms: O_3  and  C_27
REMARK    2  A    between atoms: O_3  and  C_31
REMARK    3  A    between atoms: O_5  and  C_28
REMARK    4  A    between atoms: O_5  and  C_32
REMARK    5  A    between atoms: C_24  and  C_29
REMARK    6  A    between atoms: C_26  and  C_30
REMARK    7  A    between atoms: C_33  and  C_34
REMARK                            x       y       z     vdW  Elec       q    Type
REMARK                         _______ _______ _______ _____ _____    ______ ____
ROOT
ATOM      1  O   UNL     1     113.121 127.991 136.948  0.00  0.00    +0.000 OA
ATOM      2  O   UNL     1     111.123 128.651 135.643  0.00  0.00    +0.000 OA
ATOM      3  O   UNL     1     111.952 129.227 134.612  0.00  0.00    +0.000 OA
ATOM      4  O   UNL     1     114.856 129.133 134.907  0.00  0.00    +0.000 OA
ATOM      5  C   UNL     1     111.700 128.040 136.799  0.00  0.00    +0.000 A 
ATOM      6  C   UNL     1     112.366 127.820 137.234  0.00  0.00    +0.000 A 
ATOM      7  C   UNL     1     111.789 128.431 136.079  0.00  0.00    +0.000 A 
ATOM      8  C   UNL     1     112.544 128.602 135.793  0.00  0.00    +0.000 A 
ATOM      9  C   UNL     1     113.209 128.383 136.227  0.00  0.00    +0.000 A 
ATOM     10  C   UNL     1     112.623 129.010 135.040  0.00  0.00    +0.000 A 
ATOM     11  C   UNL     1     114.001 128.555 135.941  0.00  0.00    +0.000 A 
ATOM     12  C   UNL     1     113.407 129.192 134.738  0.00  0.00    +0.000 A 
ATOM     13  C   UNL     1     114.100 128.963 135.190  0.00  0.00    +0.000 A 
ENDROOT
BRANCH   6  17
ATOM     14  O   UNL     1     112.007 126.256 140.118  0.00  0.00    +0.000 OA
ATOM     15  O   UNL     1     112.404 125.405 138.762  0.00  0.00    +0.000 OA
ATOM     16  C   UNL     1     111.989 127.463 139.354  0.00  0.00    +0.000 A 
ATOM     17  C   UNL     1     112.277 127.428 137.955  0.00  0.00    +0.000 A 
ATOM     18  C   UNL     1     112.078 127.855 138.633  0.00  0.00    +0.000 A 
ATOM     19  C   UNL     1     112.097 126.647 139.397  0.00  0.00    +0.000 A 
ATOM     20  C   UNL     1     112.385 126.612 137.998  0.00  0.00    +0.000 A 
ATOM     21  C   UNL     1     112.295 126.221 138.719  0.00  0.00    +0.000 A 
BRANCH  16  22
ATOM     22  O   UNL     1     111.791 127.890 140.033  0.00  0.00    +0.000 OA
BRANCH  22  31
ATOM     23  O   UNL     1     113.032 128.544 140.296  0.00  0.00    +0.000 OA
ATOM     24  O   UNL     1     111.830 130.672 140.684  0.00  0.00    +0.000 OA
ATOM     25  O   UNL     1     113.473 130.618 140.819  0.00  0.00    +0.000 OA
ATOM     26  O   UNL     1     110.988 129.308 140.291  0.00  0.00    +0.000 OA
ATOM     27  C   UNL     1     112.230 129.963 140.555  0.00  0.00    +0.000 C 
ATOM     28  C   UNL     1     113.053 129.936 140.622  0.00  0.00    +0.000 C 
ATOM     29  C   UNL     1     111.810 129.281 140.358  0.00  0.00    +0.000 C 
ATOM     30  C   UNL     1     113.453 129.226 140.493  0.00  0.00    +0.000 C 
ATOM     31  C   UNL     1     112.211 128.572 140.229  0.00  0.00    +0.000 C 
BRANCH  30  33
ATOM     32  O   UNL     1     114.638 128.553 140.923  0.00  0.00    +0.000 OA
ATOM     33  C   UNL     1     114.276 129.199 140.560  0.00  0.00    +0.000 C 
ENDBRANCH  30  33
ENDBRANCH  22  31
ENDBRANCH  16  22
ENDBRANCH   6  17
BRANCH   5  34
ATOM     34  O   UNL     1     110.945 127.868 137.085  0.00  0.00    +0.000 OA
BRANCH  34  43
ATOM     35  O   UNL     1     110.697 126.806 136.162  0.00  0.00    +0.000 OA
ATOM     36  O   UNL     1     108.286 127.366 136.167  0.00  0.00    +0.000 OA
ATOM     37  O   UNL     1     108.841 126.118 135.242  0.00  0.00    +0.000 OA
ATOM     38  O   UNL     1     109.338 128.241 137.089  0.00  0.00    +0.000 OA
ATOM     39  C   UNL     1     109.089 127.180 136.165  0.00  0.00    +0.000 C 
ATOM     40  C   UNL     1     109.368 126.556 135.703  0.00  0.00    +0.000 C 
ATOM     41  C   UNL     1     109.616 127.617 136.626  0.00  0.00    +0.000 C 
ATOM     42  C   UNL     1     110.171 126.369 135.701  0.00  0.00    +0.000 C 
ATOM     43  C   UNL     1     110.420 127.431 136.625  0.00  0.00    +0.000 C 
BRANCH  42  45
ATOM     44  O   UNL     1     110.805 125.093 135.596  0.00  0.00    +0.000 OA
ATOM     45  C   UNL     1     110.448 125.745 135.239  0.00  0.00    +0.000 C 
ENDBRANCH  42  45
ENDBRANCH  34  43
ENDBRANCH   5  34
TORSDOF 7
ENDMDL
MODEL 10
REMARK VINA RESULT:      -9.7      3.120      6.108
REMARK  Name = 44259420
REMARK  7 active torsions:
REMARK  status: ('A' for Active; 'I' for Inactive)
REMARK    1  A    between atoms: O_3  and  C_27
REMARK    2  A    between atoms: O_3  and  C_31
REMARK    3  A    between atoms: O_5  and  C_28
REMARK    4  A    between atoms: O_5  and  C_32
REMARK    5  A    between atoms: C_24  and  C_29
REMARK    6  A    between atoms: C_26  and  C_30
REMARK    7  A    between atoms: C_33  and  C_34
REMARK                            x       y       z     vdW  Elec       q    Type
REMARK                         _______ _______ _______ _____ _____    ______ ____
ROOT
ATOM      1  O   UNL     1     111.681 128.220 138.012  0.00  0.00    +0.000 OA
ATOM      2  O   UNL     1     113.345 127.186 136.498  0.00  0.00    +0.000 OA
ATOM      3  O   UNL     1     112.874 127.982 135.390  0.00  0.00    +0.000 OA
ATOM      4  O   UNL     1     110.679 129.860 135.823  0.00  0.00    +0.000 OA
ATOM      5  C   UNL     1     112.755 127.303 137.794  0.00  0.00    +0.000 A 
ATOM      6  C   UNL     1     112.200 127.648 138.299  0.00  0.00    +0.000 A 
ATOM      7  C   UNL     1     112.790 127.531 137.003  0.00  0.00    +0.000 A 
ATOM      8  C   UNL     1     112.270 128.104 136.715  0.00  0.00    +0.000 A 
ATOM      9  C   UNL     1     111.716 128.448 137.219  0.00  0.00    +0.000 A 
ATOM     10  C   UNL     1     112.316 128.332 135.888  0.00  0.00    +0.000 A 
ATOM     11  C   UNL     1     111.169 129.045 136.932  0.00  0.00    +0.000 A 
ATOM     12  C   UNL     1     111.778 128.928 135.583  0.00  0.00    +0.000 A 
ATOM     13  C   UNL     1     111.200 129.287 136.108  0.00  0.00    +0.000 A 
ENDROOT
BRANCH   6  17
ATOM     14  O   UNL     1     112.065 126.735 141.468  0.00  0.00    +0.000 OA
ATOM     15  O   UNL     1     110.974 126.131 140.388  0.00  0.00    +0.000 OA
ATOM     16  C   UNL     1     112.678 127.494 140.423  0.00  0.00    +0.000 A 
ATOM     17  C   UNL     1     112.166 127.419 139.091  0.00  0.00    +0.000 A 
ATOM     18  C   UNL     1     112.712 127.722 139.631  0.00  0.00    +0.000 A 
ATOM     19  C   UNL     1     112.099 126.963 140.675  0.00  0.00    +0.000 A 
ATOM     20  C   UNL     1     111.587 126.889 139.343  0.00  0.00    +0.000 A 
ATOM     21  C   UNL     1     111.554 126.661 140.136  0.00  0.00    +0.000 A 
BRANCH  16  22
ATOM     22  O   UNL     1     113.224 127.796 140.963  0.00  0.00    +0.000 OA
BRANCH  22  31
ATOM     23  O   UNL     1     112.691 129.097 141.215  0.00  0.00    +0.000 OA
ATOM     24  O   UNL     1     114.931 130.086 140.858  0.00  0.00    +0.000 OA
ATOM     25  O   UNL     1     113.650 131.058 141.228  0.00  0.00    +0.000 OA
ATOM     26  O   UNL     1     114.718 128.455 140.725  0.00  0.00    +0.000 OA
ATOM     27  C   UNL     1     114.184 129.756 140.977  0.00  0.00    +0.000 C 
ATOM     28  C   UNL     1     113.543 130.243 141.162  0.00  0.00    +0.000 C 
ATOM     29  C   UNL     1     114.078 128.941 140.910  0.00  0.00    +0.000 C 
ATOM     30  C   UNL     1     112.797 129.912 141.281  0.00  0.00    +0.000 C 
ATOM     31  C   UNL     1     113.331 128.612 141.030  0.00  0.00    +0.000 C 
BRANCH  30  33
ATOM     32  O   UNL     1     111.610 130.161 142.037  0.00  0.00    +0.000 OA
ATOM     33  C   UNL     1     112.156 130.399 141.466  0.00  0.00    +0.000 C 
ENDBRANCH  30  33
ENDBRANCH  22  31
ENDBRANCH  16  22
ENDBRANCH   6  17
BRANCH   5  34
ATOM     34  O   UNL     1     113.275 126.730 138.082  0.00  0.00    +0.000 OA
BRANCH  34  43
ATOM     35  O   UNL     1     112.604 125.647 137.435  0.00  0.00    +0.000 OA
ATOM     36  O   UNL     1     114.739 124.401 137.306  0.00  0.00    +0.000 OA
ATOM     37  O   UNL     1     113.357 123.734 136.703  0.00  0.00    +0.000 OA
ATOM     38  O   UNL     1     114.698 125.900 137.996  0.00  0.00    +0.000 OA
ATOM     39  C   UNL     1     114.027 124.817 137.349  0.00  0.00    +0.000 C 
ATOM     40  C   UNL     1     113.336 124.483 137.048  0.00  0.00    +0.000 C 
ATOM     41  C   UNL     1     114.007 125.566 137.695  0.00  0.00    +0.000 C 
ATOM     42  C   UNL     1     112.624 124.898 137.091  0.00  0.00    +0.000 C 
ATOM     43  C   UNL     1     113.295 125.982 137.737  0.00  0.00    +0.000 C 
BRANCH  42  45
ATOM     44  O   UNL     1     111.303 124.393 137.293  0.00  0.00    +0.000 OA
ATOM     45  C   UNL     1     111.934 124.564 136.789  0.00  0.00    +0.000 C 
ENDBRANCH  42  45
ENDBRANCH  34  43
ENDBRANCH   5  34
TORSDOF 7
ENDMDL
