MODEL 1
REMARK VINA RESULT:     -10.6      0.000      0.000
REMARK  Name = 44257815
REMARK  7 active torsions:
REMARK  status: ('A' for Active; 'I' for Inactive)
REMARK    1  A    between atoms: O_1  and  C_18
REMARK    2  A    between atoms: O_1  and  C_20
REMARK    3  A    between atoms: O_5  and  C_23
REMARK    4  A    between atoms: O_5  and  C_30
REMARK    5  A    between atoms: C_26  and  C_28
REMARK    6  A    between atoms: C_27  and  C_29
REMARK    7  A    between atoms: C_37  and  C_39
REMARK                            x       y       z     vdW  Elec       q    Type
REMARK                         _______ _______ _______ _____ _____    ______ ____
ROOT
ATOM      1  O   UNL     1     106.244 128.710 142.182  0.00  0.00    +0.000 OA
ATOM      2  O   UNL     1     107.643 126.707 142.582  0.00  0.00    +0.000 OA
ATOM      3  O   UNL     1     108.326 128.085 141.986  0.00  0.00    +0.000 OA
ATOM      4  C   UNL     1     106.368 127.353 142.614  0.00  0.00    +0.000 C 
ATOM      5  C   UNL     1     107.176 127.375 142.449  0.00  0.00    +0.000 C 
ATOM      6  C   UNL     1     107.518 128.063 142.151  0.00  0.00    +0.000 C 
ATOM      7  C   UNL     1     105.902 128.020 142.481  0.00  0.00    +0.000 C 
ATOM      8  C   UNL     1     107.052 128.731 142.018  0.00  0.00    +0.000 C 
ENDROOT
BRANCH   8  11
ATOM      9  O   UNL     1     107.455 129.530 140.904  0.00  0.00    +0.000 OA
ATOM     10  O   UNL     1     107.673 130.000 142.236  0.00  0.00    +0.000 OA
ATOM     11  C   UNL     1     107.393 129.420 141.720  0.00  0.00    +0.000 C 
ENDBRANCH   8  11
BRANCH   4  12
ATOM     12  O   UNL     1     106.026 126.664 142.911  0.00  0.00    +0.000 OA
BRANCH  12  17
ATOM     13  O   UNL     1     106.297 127.062 144.257  0.00  0.00    +0.000 OA
ATOM     14  O   UNL     1     105.823 125.106 143.414  0.00  0.00    +0.000 OA
ATOM     15  O   UNL     1     105.991 124.725 145.011  0.00  0.00    +0.000 OA
ATOM     16  O   UNL     1     106.363 125.903 146.105  0.00  0.00    +0.000 OA
ATOM     17  C   UNL     1     106.111 126.474 143.710  0.00  0.00    +0.000 C 
ATOM     18  C   UNL     1     106.009 125.694 143.962  0.00  0.00    +0.000 C 
ATOM     19  C   UNL     1     106.093 125.504 144.760  0.00  0.00    +0.000 C 
ATOM     20  C   UNL     1     106.279 126.093 145.307  0.00  0.00    +0.000 C 
ATOM     21  C   UNL     1     106.381 126.872 145.056  0.00  0.00    +0.000 C 
BRANCH  21  24
ATOM     22  O   UNL     1     105.967 127.921 145.933  0.00  0.00    +0.000 OA
ATOM     23  O   UNL     1     107.352 127.592 145.818  0.00  0.00    +0.000 OA
ATOM     24  C   UNL     1     106.567 127.462 145.602  0.00  0.00    +0.000 C 
ENDBRANCH  21  24
ENDBRANCH  12  17
ENDBRANCH   4  12
BRANCH   7  25
ATOM     25  O   UNL     1     105.094 127.999 142.645  0.00  0.00    +0.000 OA
BRANCH  25  29
ATOM     26  O   UNL     1     103.231 130.114 141.913  0.00  0.00    +0.000 OA
ATOM     27  O   UNL     1     103.647 127.894 140.112  0.00  0.00    +0.000 OA
ATOM     28  O   UNL     1     102.732 128.959 139.781  0.00  0.00    +0.000 OA
ATOM     29  C   UNL     1     104.555 128.325 142.113  0.00  0.00    +0.000 A 
ATOM     30  C   UNL     1     104.164 129.069 142.294  0.00  0.00    +0.000 A 
ATOM     31  C   UNL     1     104.382 127.925 141.373  0.00  0.00    +0.000 A 
ATOM     32  C   UNL     1     103.604 129.401 141.733  0.00  0.00    +0.000 A 
ATOM     33  C   UNL     1     103.819 128.272 140.824  0.00  0.00    +0.000 A 
ATOM     34  C   UNL     1     103.438 129.016 141.023  0.00  0.00    +0.000 A 
ATOM     35  C   UNL     1     102.898 129.344 140.492  0.00  0.00    +0.000 A 
ATOM     36  C   UNL     1     102.692 130.443 141.382  0.00  0.00    +0.000 A 
ATOM     37  C   UNL     1     102.525 130.058 140.671  0.00  0.00    +0.000 A 
BRANCH  36  39
ATOM     38  O   UNL     1     101.200 133.297 142.100  0.00  0.00    +0.000 OA
ATOM     39  C   UNL     1     102.319 131.157 141.561  0.00  0.00    +0.000 A 
ATOM     40  C   UNL     1     102.695 131.872 141.395  0.00  0.00    +0.000 A 
ATOM     41  C   UNL     1     101.570 131.155 141.907  0.00  0.00    +0.000 A 
ATOM     42  C   UNL     1     102.322 132.586 141.574  0.00  0.00    +0.000 A 
ATOM     43  C   UNL     1     101.197 131.869 142.087  0.00  0.00    +0.000 A 
ATOM     44  C   UNL     1     101.573 132.584 141.920  0.00  0.00    +0.000 A 
ENDBRANCH  36  39
ENDBRANCH  25  29
ENDBRANCH   7  25
TORSDOF 7
ENDMDL
MODEL 2
REMARK VINA RESULT:     -10.5      2.856      5.576
REMARK  Name = 44257815
REMARK  7 active torsions:
REMARK  status: ('A' for Active; 'I' for Inactive)
REMARK    1  A    between atoms: O_1  and  C_18
REMARK    2  A    between atoms: O_1  and  C_20
REMARK    3  A    between atoms: O_5  and  C_23
REMARK    4  A    between atoms: O_5  and  C_30
REMARK    5  A    between atoms: C_26  and  C_28
REMARK    6  A    between atoms: C_27  and  C_29
REMARK    7  A    between atoms: C_37  and  C_39
REMARK                            x       y       z     vdW  Elec       q    Type
REMARK                         _______ _______ _______ _____ _____    ______ ____
ROOT
ATOM      1  O   UNL     1     106.218 125.776 143.089  0.00  0.00    +0.000 OA
ATOM      2  O   UNL     1     105.316 128.003 143.687  0.00  0.00    +0.000 OA
ATOM      3  O   UNL     1     105.320 126.788 144.802  0.00  0.00    +0.000 OA
ATOM      4  C   UNL     1     105.916 127.127 142.730  0.00  0.00    +0.000 C 
ATOM      5  C   UNL     1     105.617 127.261 143.488  0.00  0.00    +0.000 C 
ATOM      6  C   UNL     1     105.618 126.654 144.045  0.00  0.00    +0.000 C 
ATOM      7  C   UNL     1     106.216 126.385 142.531  0.00  0.00    +0.000 C 
ATOM      8  C   UNL     1     105.919 125.911 143.846  0.00  0.00    +0.000 C 
ENDROOT
BRANCH   8  11
ATOM      9  O   UNL     1     106.587 125.178 144.874  0.00  0.00    +0.000 OA
ATOM     10  O   UNL     1     105.257 124.822 144.491  0.00  0.00    +0.000 OA
ATOM     11  C   UNL     1     105.920 125.304 144.404  0.00  0.00    +0.000 C 
ENDBRANCH   8  11
BRANCH   4  12
ATOM     12  O   UNL     1     105.914 127.734 142.172  0.00  0.00    +0.000 OA
BRANCH  12  17
ATOM     13  O   UNL     1     107.227 128.135 142.568  0.00  0.00    +0.000 OA
ATOM     14  O   UNL     1     105.727 129.155 141.355  0.00  0.00    +0.000 OA
ATOM     15  O   UNL     1     106.946 130.267 141.343  0.00  0.00    +0.000 OA
ATOM     16  O   UNL     1     108.353 129.957 142.148  0.00  0.00    +0.000 OA
ATOM     17  C   UNL     1     106.524 128.290 142.166  0.00  0.00    +0.000 C 
ATOM     18  C   UNL     1     106.430 129.001 141.757  0.00  0.00    +0.000 C 
ATOM     19  C   UNL     1     107.040 129.557 141.751  0.00  0.00    +0.000 C 
ATOM     20  C   UNL     1     107.743 129.401 142.154  0.00  0.00    +0.000 C 
ATOM     21  C   UNL     1     107.837 128.691 142.562  0.00  0.00    +0.000 C 
BRANCH  21  24
ATOM     22  O   UNL     1     108.626 128.773 143.751  0.00  0.00    +0.000 OA
ATOM     23  O   UNL     1     109.157 128.144 142.583  0.00  0.00    +0.000 OA
ATOM     24  C   UNL     1     108.540 128.536 142.965  0.00  0.00    +0.000 C 
ENDBRANCH  21  24
ENDBRANCH  12  17
ENDBRANCH   4  12
BRANCH   7  25
ATOM     25  O   UNL     1     106.515 126.250 141.774  0.00  0.00    +0.000 OA
BRANCH  25  29
ATOM     26  O   UNL     1     104.773 124.620 140.103  0.00  0.00    +0.000 OA
ATOM     27  O   UNL     1     107.263 123.517 141.067  0.00  0.00    +0.000 OA
ATOM     28  O   UNL     1     106.376 122.739 140.238  0.00  0.00    +0.000 OA
ATOM     29  C   UNL     1     106.354 125.539 141.387  0.00  0.00    +0.000 A 
ATOM     30  C   UNL     1     105.629 125.447 140.935  0.00  0.00    +0.000 A 
ATOM     31  C   UNL     1     106.911 124.886 141.434  0.00  0.00    +0.000 A 
ATOM     32  C   UNL     1     105.471 124.702 140.536  0.00  0.00    +0.000 A 
ATOM     33  C   UNL     1     106.735 124.149 141.028  0.00  0.00    +0.000 A 
ATOM     34  C   UNL     1     106.005 124.076 140.580  0.00  0.00    +0.000 A 
ATOM     35  C   UNL     1     105.842 123.366 140.193  0.00  0.00    +0.000 A 
ATOM     36  C   UNL     1     104.610 123.911 139.715  0.00  0.00    +0.000 A 
ATOM     37  C   UNL     1     105.144 123.283 139.760  0.00  0.00    +0.000 A 
BRANCH  36  39
ATOM     38  O   UNL     1     101.820 123.579 137.986  0.00  0.00    +0.000 OA
ATOM     39  C   UNL     1     103.912 123.828 139.283  0.00  0.00    +0.000 A 
ATOM     40  C   UNL     1     103.862 124.135 138.519  0.00  0.00    +0.000 A 
ATOM     41  C   UNL     1     103.265 123.438 139.614  0.00  0.00    +0.000 A 
ATOM     42  C   UNL     1     103.164 124.052 138.086  0.00  0.00    +0.000 A 
ATOM     43  C   UNL     1     102.568 123.355 139.181  0.00  0.00    +0.000 A 
ATOM     44  C   UNL     1     102.517 123.662 138.417  0.00  0.00    +0.000 A 
ENDBRANCH  36  39
ENDBRANCH  25  29
ENDBRANCH   7  25
TORSDOF 7
ENDMDL
MODEL 3
REMARK VINA RESULT:     -10.5      6.119      9.722
REMARK  Name = 44257815
REMARK  7 active torsions:
REMARK  status: ('A' for Active; 'I' for Inactive)
REMARK    1  A    between atoms: O_1  and  C_18
REMARK    2  A    between atoms: O_1  and  C_20
REMARK    3  A    between atoms: O_5  and  C_23
REMARK    4  A    between atoms: O_5  and  C_30
REMARK    5  A    between atoms: C_26  and  C_28
REMARK    6  A    between atoms: C_27  and  C_29
REMARK    7  A    between atoms: C_37  and  C_39
REMARK                            x       y       z     vdW  Elec       q    Type
REMARK                         _______ _______ _______ _____ _____    ______ ____
ROOT
ATOM      1  O   UNL     1     109.958 129.032 136.773  0.00  0.00    +0.000 OA
ATOM      2  O   UNL     1     108.480 130.967 137.215  0.00  0.00    +0.000 OA
ATOM      3  O   UNL     1     107.976 129.755 136.217  0.00  0.00    +0.000 OA
ATOM      4  C   UNL     1     109.718 130.284 137.420  0.00  0.00    +0.000 C 
ATOM      5  C   UNL     1     108.973 130.322 137.068  0.00  0.00    +0.000 C 
ATOM      6  C   UNL     1     108.720 129.716 136.569  0.00  0.00    +0.000 C 
ATOM      7  C   UNL     1     110.211 129.638 137.273  0.00  0.00    +0.000 C 
ATOM      8  C   UNL     1     109.213 129.071 136.421  0.00  0.00    +0.000 C 
ENDROOT
BRANCH   8  11
ATOM      9  O   UNL     1     108.534 127.829 136.229  0.00  0.00    +0.000 OA
ATOM     10  O   UNL     1     109.136 128.494 135.116  0.00  0.00    +0.000 OA
ATOM     11  C   UNL     1     108.961 128.465 135.922  0.00  0.00    +0.000 C 
ENDBRANCH   8  11
BRANCH   4  12
ATOM     12  O   UNL     1     109.970 130.889 137.919  0.00  0.00    +0.000 OA
BRANCH  12  17
ATOM     13  O   UNL     1     109.334 130.246 139.026  0.00  0.00    +0.000 OA
ATOM     14  O   UNL     1     110.594 132.027 138.939  0.00  0.00    +0.000 OA
ATOM     15  O   UNL     1     110.269 131.952 140.555  0.00  0.00    +0.000 OA
ATOM     16  O   UNL     1     109.321 130.740 141.152  0.00  0.00    +0.000 OA
ATOM     17  C   UNL     1     109.808 130.852 138.728  0.00  0.00    +0.000 C 
ATOM     18  C   UNL     1     110.120 131.421 139.238  0.00  0.00    +0.000 C 
ATOM     19  C   UNL     1     109.958 131.384 140.046  0.00  0.00    +0.000 C 
ATOM     20  C   UNL     1     109.484 130.778 140.344  0.00  0.00    +0.000 C 
ATOM     21  C   UNL     1     109.172 130.209 139.834  0.00  0.00    +0.000 C 
BRANCH  21  24
ATOM     22  O   UNL     1     109.024 128.859 140.279  0.00  0.00    +0.000 OA
ATOM     23  O   UNL     1     107.899 129.739 140.282  0.00  0.00    +0.000 OA
ATOM     24  C   UNL     1     108.698 129.603 140.132  0.00  0.00    +0.000 C 
ENDBRANCH  21  24
ENDBRANCH  12  17
ENDBRANCH   4  12
BRANCH   7  25
ATOM     25  O   UNL     1     110.956 129.599 137.624  0.00  0.00    +0.000 OA
BRANCH  25  29
ATOM     26  O   UNL     1     112.700 127.321 137.124  0.00  0.00    +0.000 OA
ATOM     27  O   UNL     1     113.085 129.766 135.633  0.00  0.00    +0.000 OA
ATOM     28  O   UNL     1     113.930 128.618 135.411  0.00  0.00    +0.000 OA
ATOM     29  C   UNL     1     111.587 129.256 137.218  0.00  0.00    +0.000 A 
ATOM     30  C   UNL     1     111.821 128.447 137.387  0.00  0.00    +0.000 A 
ATOM     31  C   UNL     1     112.013 129.706 136.624  0.00  0.00    +0.000 A 
ATOM     32  C   UNL     1     112.480 128.098 136.958  0.00  0.00    +0.000 A 
ATOM     33  C   UNL     1     112.669 129.341 136.205  0.00  0.00    +0.000 A 
ATOM     34  C   UNL     1     112.890 128.531 136.387  0.00  0.00    +0.000 A 
ATOM     35  C   UNL     1     113.520 128.186 135.982  0.00  0.00    +0.000 A 
ATOM     36  C   UNL     1     113.331 126.976 136.719  0.00  0.00    +0.000 A 
ATOM     37  C   UNL     1     113.741 127.408 136.148  0.00  0.00    +0.000 A 
BRANCH  36  39
ATOM     38  O   UNL     1     114.214 123.867 137.382  0.00  0.00    +0.000 OA
ATOM     39  C   UNL     1     113.552 126.199 136.885  0.00  0.00    +0.000 A 
ATOM     40  C   UNL     1     114.135 126.047 137.448  0.00  0.00    +0.000 A 
ATOM     41  C   UNL     1     113.189 125.573 136.488  0.00  0.00    +0.000 A 
ATOM     42  C   UNL     1     114.356 125.269 137.614  0.00  0.00    +0.000 A 
ATOM     43  C   UNL     1     113.409 124.796 136.654  0.00  0.00    +0.000 A 
ATOM     44  C   UNL     1     113.993 124.644 137.217  0.00  0.00    +0.000 A 
ENDBRANCH  36  39
ENDBRANCH  25  29
ENDBRANCH   7  25
TORSDOF 7
ENDMDL
MODEL 4
REMARK VINA RESULT:     -10.4      3.452      5.977
REMARK  Name = 44257815
REMARK  7 active torsions:
REMARK  status: ('A' for Active; 'I' for Inactive)
REMARK    1  A    between atoms: O_1  and  C_18
REMARK    2  A    between atoms: O_1  and  C_20
REMARK    3  A    between atoms: O_5  and  C_23
REMARK    4  A    between atoms: O_5  and  C_30
REMARK    5  A    between atoms: C_26  and  C_28
REMARK    6  A    between atoms: C_27  and  C_29
REMARK    7  A    between atoms: C_37  and  C_39
REMARK                            x       y       z     vdW  Elec       q    Type
REMARK                         _______ _______ _______ _____ _____    ______ ____
ROOT
ATOM      1  O   UNL     1     106.405 126.652 141.270  0.00  0.00    +0.000 OA
ATOM      2  O   UNL     1     108.393 127.382 142.550  0.00  0.00    +0.000 OA
ATOM      3  O   UNL     1     106.964 128.188 142.715  0.00  0.00    +0.000 OA
ATOM      4  C   UNL     1     107.783 126.492 141.614  0.00  0.00    +0.000 C 
ATOM      5  C   UNL     1     107.730 127.139 142.123  0.00  0.00    +0.000 C 
ATOM      6  C   UNL     1     107.016 127.542 142.206  0.00  0.00    +0.000 C 
ATOM      7  C   UNL     1     107.121 126.248 141.187  0.00  0.00    +0.000 C 
ATOM      8  C   UNL     1     106.353 127.298 141.779  0.00  0.00    +0.000 C 
ENDROOT
BRANCH   8  11
ATOM      9  O   UNL     1     105.462 128.334 141.362  0.00  0.00    +0.000 OA
ATOM     10  O   UNL     1     105.099 127.471 142.442  0.00  0.00    +0.000 OA
ATOM     11  C   UNL     1     105.638 127.701 141.862  0.00  0.00    +0.000 C 
ENDBRANCH   8  11
BRANCH   4  12
ATOM     12  O   UNL     1     108.498 126.089 141.531  0.00  0.00    +0.000 OA
BRANCH  12  17
ATOM     13  O   UNL     1     108.899 126.952 140.465  0.00  0.00    +0.000 OA
ATOM     14  O   UNL     1     110.056 125.573 141.698  0.00  0.00    +0.000 OA
ATOM     15  O   UNL     1     111.235 126.178 140.716  0.00  0.00    +0.000 OA
ATOM     16  O   UNL     1     110.856 127.300 139.567  0.00  0.00    +0.000 OA
ATOM     17  C   UNL     1     109.087 126.392 141.040  0.00  0.00    +0.000 C 
ATOM     18  C   UNL     1     109.867 126.133 141.123  0.00  0.00    +0.000 C 
ATOM     19  C   UNL     1     110.457 126.436 140.632  0.00  0.00    +0.000 C 
ATOM     20  C   UNL     1     110.267 126.997 140.058  0.00  0.00    +0.000 C 
ATOM     21  C   UNL     1     109.488 127.255 139.974  0.00  0.00    +0.000 C 
BRANCH  21  24
ATOM     22  O   UNL     1     109.282 128.617 139.595  0.00  0.00    +0.000 OA
ATOM     23  O   UNL     1     109.125 127.576 138.630  0.00  0.00    +0.000 OA
ATOM     24  C   UNL     1     109.298 127.816 139.399  0.00  0.00    +0.000 C 
ENDBRANCH  21  24
ENDBRANCH  12  17
ENDBRANCH   4  12
BRANCH   7  25
ATOM     25  O   UNL     1     107.172 125.602 140.678  0.00  0.00    +0.000 OA
BRANCH  25  29
ATOM     26  O   UNL     1     104.951 124.310 139.308  0.00  0.00    +0.000 OA
ATOM     27  O   UNL     1     105.697 123.430 141.957  0.00  0.00    +0.000 OA
ATOM     28  O   UNL     1     104.602 122.813 141.249  0.00  0.00    +0.000 OA
ATOM     29  C   UNL     1     106.571 125.037 140.664  0.00  0.00    +0.000 A 
ATOM     30  C   UNL     1     106.061 124.965 139.976  0.00  0.00    +0.000 A 
ATOM     31  C   UNL     1     106.450 124.518 141.337  0.00  0.00    +0.000 A 
ATOM     32  C   UNL     1     105.437 124.374 139.971  0.00  0.00    +0.000 A 
ATOM     33  C   UNL     1     105.820 123.933 141.314  0.00  0.00    +0.000 A 
ATOM     34  C   UNL     1     105.321 123.875 140.618  0.00  0.00    +0.000 A 
ATOM     35  C   UNL     1     104.718 123.312 140.602  0.00  0.00    +0.000 A 
ATOM     36  C   UNL     1     104.348 123.746 139.292  0.00  0.00    +0.000 A 
ATOM     37  C   UNL     1     104.232 123.247 139.939  0.00  0.00    +0.000 A 
BRANCH  36  39
ATOM     38  O   UNL     1     102.402 123.487 136.640  0.00  0.00    +0.000 OA
ATOM     39  C   UNL     1     103.862 123.681 138.628  0.00  0.00    +0.000 A 
ATOM     40  C   UNL     1     104.173 123.412 137.913  0.00  0.00    +0.000 A 
ATOM     41  C   UNL     1     103.064 123.886 138.680  0.00  0.00    +0.000 A 
ATOM     42  C   UNL     1     103.686 123.347 137.250  0.00  0.00    +0.000 A 
ATOM     43  C   UNL     1     102.578 123.821 138.017  0.00  0.00    +0.000 A 
ATOM     44  C   UNL     1     102.889 123.551 137.302  0.00  0.00    +0.000 A 
ENDBRANCH  36  39
ENDBRANCH  25  29
ENDBRANCH   7  25
TORSDOF 7
ENDMDL
MODEL 5
REMARK VINA RESULT:     -10.4      6.349      9.870
REMARK  Name = 44257815
REMARK  7 active torsions:
REMARK  status: ('A' for Active; 'I' for Inactive)
REMARK    1  A    between atoms: O_1  and  C_18
REMARK    2  A    between atoms: O_1  and  C_20
REMARK    3  A    between atoms: O_5  and  C_23
REMARK    4  A    between atoms: O_5  and  C_30
REMARK    5  A    between atoms: C_26  and  C_28
REMARK    6  A    between atoms: C_27  and  C_29
REMARK    7  A    between atoms: C_37  and  C_39
REMARK                            x       y       z     vdW  Elec       q    Type
REMARK                         _______ _______ _______ _____ _____    ______ ____
ROOT
ATOM      1  O   UNL     1     109.577 128.567 136.723  0.00  0.00    +0.000 OA
ATOM      2  O   UNL     1     110.041 130.610 135.405  0.00  0.00    +0.000 OA
ATOM      3  O   UNL     1     109.056 129.438 134.791  0.00  0.00    +0.000 OA
ATOM      4  C   UNL     1     110.225 129.835 136.591  0.00  0.00    +0.000 C 
ATOM      5  C   UNL     1     109.886 129.929 135.844  0.00  0.00    +0.000 C 
ATOM      6  C   UNL     1     109.394 129.343 135.537  0.00  0.00    +0.000 C 
ATOM      7  C   UNL     1     110.070 129.154 137.030  0.00  0.00    +0.000 C 
ATOM      8  C   UNL     1     109.239 128.663 135.976  0.00  0.00    +0.000 C 
ENDROOT
BRANCH   8  11
ATOM      9  O   UNL     1     109.070 127.449 135.242  0.00  0.00    +0.000 OA
ATOM     10  O   UNL     1     107.931 128.117 135.791  0.00  0.00    +0.000 OA
ATOM     11  C   UNL     1     108.746 128.076 135.670  0.00  0.00    +0.000 C 
ENDBRANCH   8  11
BRANCH   4  12
ATOM     12  O   UNL     1     110.717 130.420 136.898  0.00  0.00    +0.000 OA
BRANCH  12  17
ATOM     13  O   UNL     1     109.623 131.059 137.559  0.00  0.00    +0.000 OA
ATOM     14  O   UNL     1     111.599 131.810 137.016  0.00  0.00    +0.000 OA
ATOM     15  O   UNL     1     110.945 133.143 137.736  0.00  0.00    +0.000 OA
ATOM     16  O   UNL     1     109.410 133.086 138.339  0.00  0.00    +0.000 OA
ATOM     17  C   UNL     1     110.390 131.087 137.258  0.00  0.00    +0.000 C 
ATOM     18  C   UNL     1     110.831 131.782 137.317  0.00  0.00    +0.000 C 
ATOM     19  C   UNL     1     110.505 132.449 137.678  0.00  0.00    +0.000 C 
ATOM     20  C   UNL     1     109.737 132.419 137.979  0.00  0.00    +0.000 C 
ATOM     21  C   UNL     1     109.296 131.725 137.920  0.00  0.00    +0.000 C 
BRANCH  21  24
ATOM     22  O   UNL     1     107.898 131.975 137.769  0.00  0.00    +0.000 OA
ATOM     23  O   UNL     1     108.392 131.388 138.973  0.00  0.00    +0.000 OA
ATOM     24  C   UNL     1     108.529 131.696 138.221  0.00  0.00    +0.000 C 
ENDBRANCH  21  24
ENDBRANCH  12  17
ENDBRANCH   4  12
BRANCH   7  25
ATOM     25  O   UNL     1     110.408 129.059 137.777  0.00  0.00    +0.000 OA
BRANCH  25  29
ATOM     26  O   UNL     1     112.226 126.784 137.761  0.00  0.00    +0.000 OA
ATOM     27  O   UNL     1     109.866 126.710 139.425  0.00  0.00    +0.000 OA
ATOM     28  O   UNL     1     110.788 125.602 139.392  0.00  0.00    +0.000 OA
ATOM     29  C   UNL     1     110.614 128.306 138.043  0.00  0.00    +0.000 A 
ATOM     30  C   UNL     1     111.331 127.927 137.756  0.00  0.00    +0.000 A 
ATOM     31  C   UNL     1     110.116 127.896 138.609  0.00  0.00    +0.000 A 
ATOM     32  C   UNL     1     111.538 127.142 138.040  0.00  0.00    +0.000 A 
ATOM     33  C   UNL     1     110.339 127.111 138.882  0.00  0.00    +0.000 A 
ATOM     34  C   UNL     1     111.059 126.748 138.584  0.00  0.00    +0.000 A 
ATOM     35  C   UNL     1     111.268 125.996 138.849  0.00  0.00    +0.000 A 
ATOM     36  C   UNL     1     112.436 126.032 138.026  0.00  0.00    +0.000 A 
ATOM     37  C   UNL     1     111.956 125.637 138.570  0.00  0.00    +0.000 A 
BRANCH  36  39
ATOM     38  O   UNL     1     115.190 124.596 136.912  0.00  0.00    +0.000 OA
ATOM     39  C   UNL     1     113.124 125.673 137.747  0.00  0.00    +0.000 A 
ATOM     40  C   UNL     1     113.104 125.220 137.058  0.00  0.00    +0.000 A 
ATOM     41  C   UNL     1     113.834 125.766 138.158  0.00  0.00    +0.000 A 
ATOM     42  C   UNL     1     113.792 124.861 136.779  0.00  0.00    +0.000 A 
ATOM     43  C   UNL     1     114.522 125.407 137.879  0.00  0.00    +0.000 A 
ATOM     44  C   UNL     1     114.502 124.955 137.190  0.00  0.00    +0.000 A 
ENDBRANCH  36  39
ENDBRANCH  25  29
ENDBRANCH   7  25
TORSDOF 7
ENDMDL
MODEL 6
REMARK VINA RESULT:     -10.4      6.815     10.227
REMARK  Name = 44257815
REMARK  7 active torsions:
REMARK  status: ('A' for Active; 'I' for Inactive)
REMARK    1  A    between atoms: O_1  and  C_18
REMARK    2  A    between atoms: O_1  and  C_20
REMARK    3  A    between atoms: O_5  and  C_23
REMARK    4  A    between atoms: O_5  and  C_30
REMARK    5  A    between atoms: C_26  and  C_28
REMARK    6  A    between atoms: C_27  and  C_29
REMARK    7  A    between atoms: C_37  and  C_39
REMARK                            x       y       z     vdW  Elec       q    Type
REMARK                         _______ _______ _______ _____ _____    ______ ____
ROOT
ATOM      1  O   UNL     1     112.682 130.053 138.776  0.00  0.00    +0.000 OA
ATOM      2  O   UNL     1     110.745 130.310 140.295  0.00  0.00    +0.000 OA
ATOM      3  O   UNL     1     112.278 130.490 140.875  0.00  0.00    +0.000 OA
ATOM      4  C   UNL     1     111.269 130.048 138.992  0.00  0.00    +0.000 C 
ATOM      5  C   UNL     1     111.391 130.224 139.789  0.00  0.00    +0.000 C 
ATOM      6  C   UNL     1     112.157 130.314 140.079  0.00  0.00    +0.000 C 
ATOM      7  C   UNL     1     111.914 129.963 138.485  0.00  0.00    +0.000 C 
ATOM      8  C   UNL     1     112.802 130.229 139.573  0.00  0.00    +0.000 C 
ENDROOT
BRANCH   8  11
ATOM      9  O   UNL     1     113.961 129.675 140.199  0.00  0.00    +0.000 OA
ATOM     10  O   UNL     1     113.945 131.052 139.816  0.00  0.00    +0.000 OA
ATOM     11  C   UNL     1     113.569 130.319 139.862  0.00  0.00    +0.000 C 
ENDBRANCH   8  11
BRANCH   4  12
ATOM     12  O   UNL     1     110.502 129.958 138.701  0.00  0.00    +0.000 OA
BRANCH  12  17
ATOM     13  O   UNL     1     110.435 131.358 138.424  0.00  0.00    +0.000 OA
ATOM     14  O   UNL     1     108.904 129.806 138.321  0.00  0.00    +0.000 OA
ATOM     15  O   UNL     1     108.038 131.131 137.854  0.00  0.00    +0.000 OA
ATOM     16  O   UNL     1     108.770 132.607 137.767  0.00  0.00    +0.000 OA
ATOM     17  C   UNL     1     110.069 130.620 138.468  0.00  0.00    +0.000 C 
ATOM     18  C   UNL     1     109.269 130.545 138.277  0.00  0.00    +0.000 C 
ATOM     19  C   UNL     1     108.836 131.207 138.044  0.00  0.00    +0.000 C 
ATOM     20  C   UNL     1     109.203 131.945 138.001  0.00  0.00    +0.000 C 
ATOM     21  C   UNL     1     110.002 132.021 138.191  0.00  0.00    +0.000 C 
BRANCH  21  24
ATOM     22  O   UNL     1     110.829 132.952 137.491  0.00  0.00    +0.000 OA
ATOM     23  O   UNL     1     110.275 133.303 138.760  0.00  0.00    +0.000 OA
ATOM     24  C   UNL     1     110.369 132.759 138.148  0.00  0.00    +0.000 C 
ENDBRANCH  21  24
ENDBRANCH  12  17
ENDBRANCH   4  12
BRANCH   7  25
ATOM     25  O   UNL     1     111.794 129.787 137.688  0.00  0.00    +0.000 OA
BRANCH  25  29
ATOM     26  O   UNL     1     112.903 127.168 137.062  0.00  0.00    +0.000 OA
ATOM     27  O   UNL     1     114.022 129.524 135.821  0.00  0.00    +0.000 OA
ATOM     28  O   UNL     1     114.547 128.212 135.534  0.00  0.00    +0.000 OA
ATOM     29  C   UNL     1     112.338 129.319 137.282  0.00  0.00    +0.000 A 
ATOM     30  C   UNL     1     112.337 128.466 137.386  0.00  0.00    +0.000 A 
ATOM     31  C   UNL     1     112.908 129.681 136.752  0.00  0.00    +0.000 A 
ATOM     32  C   UNL     1     112.908 127.986 136.958  0.00  0.00    +0.000 A 
ATOM     33  C   UNL     1     113.471 129.185 136.332  0.00  0.00    +0.000 A 
ATOM     34  C   UNL     1     113.456 128.334 136.449  0.00  0.00    +0.000 A 
ATOM     35  C   UNL     1     113.999 127.864 136.043  0.00  0.00    +0.000 A 
ATOM     36  C   UNL     1     113.446 126.698 136.657  0.00  0.00    +0.000 A 
ATOM     37  C   UNL     1     113.994 127.045 136.147  0.00  0.00    +0.000 A 
BRANCH  36  39
ATOM     38  O   UNL     1     113.427 123.424 137.072  0.00  0.00    +0.000 OA
ATOM     39  C   UNL     1     113.441 125.879 136.760  0.00  0.00    +0.000 A 
ATOM     40  C   UNL     1     112.811 125.431 136.473  0.00  0.00    +0.000 A 
ATOM     41  C   UNL     1     114.066 125.509 137.151  0.00  0.00    +0.000 A 
ATOM     42  C   UNL     1     112.806 124.612 136.577  0.00  0.00    +0.000 A 
ATOM     43  C   UNL     1     114.061 124.691 137.255  0.00  0.00    +0.000 A 
ATOM     44  C   UNL     1     113.431 124.242 136.968  0.00  0.00    +0.000 A 
ENDBRANCH  36  39
ENDBRANCH  25  29
ENDBRANCH   7  25
TORSDOF 7
ENDMDL
MODEL 7
REMARK VINA RESULT:     -10.3      3.445      6.125
REMARK  Name = 44257815
REMARK  7 active torsions:
REMARK  status: ('A' for Active; 'I' for Inactive)
REMARK    1  A    between atoms: O_1  and  C_18
REMARK    2  A    between atoms: O_1  and  C_20
REMARK    3  A    between atoms: O_5  and  C_23
REMARK    4  A    between atoms: O_5  and  C_30
REMARK    5  A    between atoms: C_26  and  C_28
REMARK    6  A    between atoms: C_27  and  C_29
REMARK    7  A    between atoms: C_37  and  C_39
REMARK                            x       y       z     vdW  Elec       q    Type
REMARK                         _______ _______ _______ _____ _____    ______ ____
ROOT
ATOM      1  O   UNL     1     107.013 126.248 142.173  0.00  0.00    +0.000 OA
ATOM      2  O   UNL     1     107.500 124.248 140.798  0.00  0.00    +0.000 OA
ATOM      3  O   UNL     1     108.530 125.536 140.775  0.00  0.00    +0.000 OA
ATOM      4  C   UNL     1     106.659 124.937 141.726  0.00  0.00    +0.000 C 
ATOM      5  C   UNL     1     107.337 124.915 141.256  0.00  0.00    +0.000 C 
ATOM      6  C   UNL     1     107.853 125.558 141.244  0.00  0.00    +0.000 C 
ATOM      7  C   UNL     1     106.497 125.603 142.184  0.00  0.00    +0.000 C 
ATOM      8  C   UNL     1     107.690 126.225 141.703  0.00  0.00    +0.000 C 
ENDROOT
BRANCH   8  11
ATOM      9  O   UNL     1     108.082 127.486 141.156  0.00  0.00    +0.000 OA
ATOM     10  O   UNL     1     108.843 126.897 142.214  0.00  0.00    +0.000 OA
ATOM     11  C   UNL     1     108.205 126.869 141.691  0.00  0.00    +0.000 C 
ENDBRANCH   8  11
BRANCH   4  12
ATOM     12  O   UNL     1     106.144 124.293 141.738  0.00  0.00    +0.000 OA
BRANCH  12  17
ATOM     13  O   UNL     1     105.489 124.791 140.569  0.00  0.00    +0.000 OA
ATOM     14  O   UNL     1     105.220 122.928 141.674  0.00  0.00    +0.000 OA
ATOM     15  O   UNL     1     104.103 122.743 140.473  0.00  0.00    +0.000 OA
ATOM     16  O   UNL     1     103.911 123.924 139.337  0.00  0.00    +0.000 OA
ATOM     17  C   UNL     1     105.586 124.201 141.138  0.00  0.00    +0.000 C 
ATOM     18  C   UNL     1     105.123 123.518 141.105  0.00  0.00    +0.000 C 
ATOM     19  C   UNL     1     104.565 123.426 140.505  0.00  0.00    +0.000 C 
ATOM     20  C   UNL     1     104.469 124.017 139.937  0.00  0.00    +0.000 C 
ATOM     21  C   UNL     1     104.931 124.699 139.969  0.00  0.00    +0.000 C 
BRANCH  21  24
ATOM     22  O   UNL     1     105.229 125.234 138.679  0.00  0.00    +0.000 OA
ATOM     23  O   UNL     1     104.346 125.935 139.556  0.00  0.00    +0.000 OA
ATOM     24  C   UNL     1     104.835 125.290 139.401  0.00  0.00    +0.000 C 
ENDBRANCH  21  24
ENDBRANCH  12  17
ENDBRANCH   4  12
BRANCH   7  25
ATOM     25  O   UNL     1     105.820 125.626 142.655  0.00  0.00    +0.000 OA
BRANCH  25  29
ATOM     26  O   UNL     1     106.425 125.587 145.503  0.00  0.00    +0.000 OA
ATOM     27  O   UNL     1     105.333 127.981 144.311  0.00  0.00    +0.000 OA
ATOM     28  O   UNL     1     105.644 127.926 145.718  0.00  0.00    +0.000 OA
ATOM     29  C   UNL     1     105.839 126.004 143.388  0.00  0.00    +0.000 A 
ATOM     30  C   UNL     1     106.129 125.588 144.081  0.00  0.00    +0.000 A 
ATOM     31  C   UNL     1     105.568 126.816 143.462  0.00  0.00    +0.000 A 
ATOM     32  C   UNL     1     106.145 125.991 144.841  0.00  0.00    +0.000 A 
ATOM     33  C   UNL     1     105.591 127.202 144.230  0.00  0.00    +0.000 A 
ATOM     34  C   UNL     1     105.885 126.771 144.912  0.00  0.00    +0.000 A 
ATOM     35  C   UNL     1     105.905 127.146 145.647  0.00  0.00    +0.000 A 
ATOM     36  C   UNL     1     106.444 125.962 146.237  0.00  0.00    +0.000 A 
ATOM     37  C   UNL     1     106.184 126.742 146.309  0.00  0.00    +0.000 A 
BRANCH  36  39
ATOM     38  O   UNL     1     107.563 124.347 148.888  0.00  0.00    +0.000 OA
ATOM     39  C   UNL     1     106.724 125.558 146.900  0.00  0.00    +0.000 A 
ATOM     40  C   UNL     1     107.526 125.589 147.094  0.00  0.00    +0.000 A 
ATOM     41  C   UNL     1     106.203 125.124 147.369  0.00  0.00    +0.000 A 
ATOM     42  C   UNL     1     107.806 125.185 147.756  0.00  0.00    +0.000 A 
ATOM     43  C   UNL     1     106.483 124.720 148.032  0.00  0.00    +0.000 A 
ATOM     44  C   UNL     1     107.284 124.751 148.226  0.00  0.00    +0.000 A 
ENDBRANCH  36  39
ENDBRANCH  25  29
ENDBRANCH   7  25
TORSDOF 7
ENDMDL
MODEL 8
REMARK VINA RESULT:     -10.2      6.167      8.297
REMARK  Name = 44257815
REMARK  7 active torsions:
REMARK  status: ('A' for Active; 'I' for Inactive)
REMARK    1  A    between atoms: O_1  and  C_18
REMARK    2  A    between atoms: O_1  and  C_20
REMARK    3  A    between atoms: O_5  and  C_23
REMARK    4  A    between atoms: O_5  and  C_30
REMARK    5  A    between atoms: C_26  and  C_28
REMARK    6  A    between atoms: C_27  and  C_29
REMARK    7  A    between atoms: C_37  and  C_39
REMARK                            x       y       z     vdW  Elec       q    Type
REMARK                         _______ _______ _______ _____ _____    ______ ____
ROOT
ATOM      1  O   UNL     1     109.962 126.747 138.340  0.00  0.00    +0.000 OA
ATOM      2  O   UNL     1     112.015 125.996 139.500  0.00  0.00    +0.000 OA
ATOM      3  O   UNL     1     110.553 125.887 140.256  0.00  0.00    +0.000 OA
ATOM      4  C   UNL     1     111.378 126.551 138.348  0.00  0.00    +0.000 C 
ATOM      5  C   UNL     1     111.330 126.246 139.113  0.00  0.00    +0.000 C 
ATOM      6  C   UNL     1     110.600 126.192 139.491  0.00  0.00    +0.000 C 
ATOM      7  C   UNL     1     110.694 126.802 137.961  0.00  0.00    +0.000 C 
ATOM      8  C   UNL     1     109.916 126.442 139.105  0.00  0.00    +0.000 C 
ENDROOT
BRANCH   8  11
ATOM      9  O   UNL     1     108.937 126.990 139.990  0.00  0.00    +0.000 OA
ATOM     10  O   UNL     1     108.700 125.732 139.353  0.00  0.00    +0.000 OA
ATOM     11  C   UNL     1     109.184 126.388 139.482  0.00  0.00    +0.000 C 
ENDBRANCH   8  11
BRANCH   4  12
ATOM     12  O   UNL     1     112.108 126.606 137.970  0.00  0.00    +0.000 OA
BRANCH  12  17
ATOM     13  O   UNL     1     111.962 125.302 137.402  0.00  0.00    +0.000 OA
ATOM     14  O   UNL     1     113.735 126.541 137.698  0.00  0.00    +0.000 OA
ATOM     15  O   UNL     1     114.401 125.205 136.995  0.00  0.00    +0.000 OA
ATOM     16  O   UNL     1     113.441 123.935 136.563  0.00  0.00    +0.000 OA
ATOM     17  C   UNL     1     112.442 125.938 137.618  0.00  0.00    +0.000 C 
ATOM     18  C   UNL     1     113.255 125.905 137.482  0.00  0.00    +0.000 C 
ATOM     19  C   UNL     1     113.588 125.238 137.130  0.00  0.00    +0.000 C 
ATOM     20  C   UNL     1     113.108 124.602 136.915  0.00  0.00    +0.000 C 
ATOM     21  C   UNL     1     112.295 124.635 137.050  0.00  0.00    +0.000 C 
BRANCH  21  24
ATOM     22  O   UNL     1     111.704 123.370 137.357  0.00  0.00    +0.000 OA
ATOM     23  O   UNL     1     111.445 123.993 136.098  0.00  0.00    +0.000 OA
ATOM     24  C   UNL     1     111.815 123.999 136.835  0.00  0.00    +0.000 C 
ENDBRANCH  21  24
ENDBRANCH  12  17
ENDBRANCH   4  12
BRANCH   7  25
ATOM     25  O   UNL     1     110.740 127.107 137.196  0.00  0.00    +0.000 OA
BRANCH  25  29
ATOM     26  O   UNL     1     110.102 129.948 137.223  0.00  0.00    +0.000 OA
ATOM     27  O   UNL     1     108.388 128.116 135.791  0.00  0.00    +0.000 OA
ATOM     28  O   UNL     1     108.102 129.529 135.826  0.00  0.00    +0.000 OA
ATOM     29  C   UNL     1     110.252 127.733 136.971  0.00  0.00    +0.000 A 
ATOM     30  C   UNL     1     110.435 128.535 137.220  0.00  0.00    +0.000 A 
ATOM     31  C   UNL     1     109.558 127.587 136.486  0.00  0.00    +0.000 A 
ATOM     32  C   UNL     1     109.921 129.181 136.981  0.00  0.00    +0.000 A 
ATOM     33  C   UNL     1     109.056 128.247 136.257  0.00  0.00    +0.000 A 
ATOM     34  C   UNL     1     109.254 129.041 136.515  0.00  0.00    +0.000 A 
ATOM     35  C   UNL     1     108.769 129.669 136.292  0.00  0.00    +0.000 A 
ATOM     36  C   UNL     1     109.616 130.576 137.000  0.00  0.00    +0.000 A 
ATOM     37  C   UNL     1     108.949 130.437 136.534  0.00  0.00    +0.000 A 
BRANCH  36  39
ATOM     38  O   UNL     1     110.338 133.647 137.967  0.00  0.00    +0.000 OA
ATOM     39  C   UNL     1     109.796 131.344 137.242  0.00  0.00    +0.000 A 
ATOM     40  C   UNL     1     109.464 131.647 137.933  0.00  0.00    +0.000 A 
ATOM     41  C   UNL     1     110.310 131.808 136.793  0.00  0.00    +0.000 A 
ATOM     42  C   UNL     1     109.644 132.415 138.175  0.00  0.00    +0.000 A 
ATOM     43  C   UNL     1     110.490 132.576 137.035  0.00  0.00    +0.000 A 
ATOM     44  C   UNL     1     110.157 132.879 137.726  0.00  0.00    +0.000 A 
ENDBRANCH  36  39
ENDBRANCH  25  29
ENDBRANCH   7  25
TORSDOF 7
ENDMDL
MODEL 9
REMARK VINA RESULT:     -10.1      6.904      9.943
REMARK  Name = 44257815
REMARK  7 active torsions:
REMARK  status: ('A' for Active; 'I' for Inactive)
REMARK    1  A    between atoms: O_1  and  C_18
REMARK    2  A    between atoms: O_1  and  C_20
REMARK    3  A    between atoms: O_5  and  C_23
REMARK    4  A    between atoms: O_5  and  C_30
REMARK    5  A    between atoms: C_26  and  C_28
REMARK    6  A    between atoms: C_27  and  C_29
REMARK    7  A    between atoms: C_37  and  C_39
REMARK                            x       y       z     vdW  Elec       q    Type
REMARK                         _______ _______ _______ _____ _____    ______ ____
ROOT
ATOM      1  O   UNL     1     112.070 129.915 137.363  0.00  0.00    +0.000 OA
ATOM      2  O   UNL     1     111.291 132.253 137.591  0.00  0.00    +0.000 OA
ATOM      3  O   UNL     1     112.694 131.926 136.787  0.00  0.00    +0.000 OA
ATOM      4  C   UNL     1     111.108 130.858 137.841  0.00  0.00    +0.000 C 
ATOM      5  C   UNL     1     111.551 131.474 137.515  0.00  0.00    +0.000 C 
ATOM      6  C   UNL     1     112.252 131.310 137.113  0.00  0.00    +0.000 C 
ATOM      7  C   UNL     1     111.368 130.079 137.765  0.00  0.00    +0.000 C 
ATOM      8  C   UNL     1     112.512 130.531 137.037  0.00  0.00    +0.000 C 
ENDROOT
BRANCH   8  11
ATOM      9  O   UNL     1     113.192 130.164 135.835  0.00  0.00    +0.000 OA
ATOM     10  O   UNL     1     113.935 130.405 137.033  0.00  0.00    +0.000 OA
ATOM     11  C   UNL     1     113.213 130.367 136.635  0.00  0.00    +0.000 C 
ENDBRANCH   8  11
BRANCH   4  12
ATOM     12  O   UNL     1     110.407 131.021 138.242  0.00  0.00    +0.000 OA
BRANCH  12  17
ATOM     13  O   UNL     1     109.635 130.862 137.050  0.00  0.00    +0.000 OA
ATOM     14  O   UNL     1     109.162 131.852 138.937  0.00  0.00    +0.000 OA
ATOM     15  O   UNL     1     107.768 132.109 138.092  0.00  0.00    +0.000 OA
ATOM     16  O   UNL     1     107.619 131.534 136.552  0.00  0.00    +0.000 OA
ATOM     17  C   UNL     1     109.710 131.149 137.820  0.00  0.00    +0.000 C 
ATOM     18  C   UNL     1     109.087 131.565 138.167  0.00  0.00    +0.000 C 
ATOM     19  C   UNL     1     108.390 131.693 137.745  0.00  0.00    +0.000 C 
ATOM     20  C   UNL     1     108.316 131.406 136.975  0.00  0.00    +0.000 C 
ATOM     21  C   UNL     1     108.938 130.991 136.628  0.00  0.00    +0.000 C 
BRANCH  21  24
ATOM     22  O   UNL     1     109.120 131.160 135.221  0.00  0.00    +0.000 OA
ATOM     23  O   UNL     1     108.536 129.959 135.725  0.00  0.00    +0.000 OA
ATOM     24  C   UNL     1     108.864 130.703 135.858  0.00  0.00    +0.000 C 
ENDBRANCH  21  24
ENDBRANCH  12  17
ENDBRANCH   4  12
BRANCH   7  25
ATOM     25  O   UNL     1     110.927 129.463 138.090  0.00  0.00    +0.000 OA
BRANCH  25  29
ATOM     26  O   UNL     1     111.840 126.707 137.858  0.00  0.00    +0.000 OA
ATOM     27  O   UNL     1     112.358 128.180 140.289  0.00  0.00    +0.000 OA
ATOM     28  O   UNL     1     112.795 126.814 140.139  0.00  0.00    +0.000 OA
ATOM     29  C   UNL     1     111.309 128.806 138.412  0.00  0.00    +0.000 A 
ATOM     30  C   UNL     1     111.377 128.080 137.956  0.00  0.00    +0.000 A 
ATOM     31  C   UNL     1     111.640 128.843 139.203  0.00  0.00    +0.000 A 
ATOM     32  C   UNL     1     111.777 127.401 138.300  0.00  0.00    +0.000 A 
ATOM     33  C   UNL     1     112.037 128.153 139.530  0.00  0.00    +0.000 A 
ATOM     34  C   UNL     1     112.096 127.437 139.060  0.00  0.00    +0.000 A 
ATOM     35  C   UNL     1     112.477 126.778 139.379  0.00  0.00    +0.000 A 
ATOM     36  C   UNL     1     112.221 126.049 138.177  0.00  0.00    +0.000 A 
ATOM     37  C   UNL     1     112.540 126.084 138.938  0.00  0.00    +0.000 A 
BRANCH  36  39
ATOM     38  O   UNL     1     112.472 123.272 136.412  0.00  0.00    +0.000 OA
ATOM     39  C   UNL     1     112.284 125.355 137.736  0.00  0.00    +0.000 A 
ATOM     40  C   UNL     1     112.990 125.174 137.349  0.00  0.00    +0.000 A 
ATOM     41  C   UNL     1     111.641 124.841 137.681  0.00  0.00    +0.000 A 
ATOM     42  C   UNL     1     113.053 124.480 136.908  0.00  0.00    +0.000 A 
ATOM     43  C   UNL     1     111.704 124.147 137.239  0.00  0.00    +0.000 A 
ATOM     44  C   UNL     1     112.410 123.966 136.853  0.00  0.00    +0.000 A 
ENDBRANCH  36  39
ENDBRANCH  25  29
ENDBRANCH   7  25
TORSDOF 7
ENDMDL
MODEL 10
REMARK VINA RESULT:     -10.0      7.426      9.776
REMARK  Name = 44257815
REMARK  7 active torsions:
REMARK  status: ('A' for Active; 'I' for Inactive)
REMARK    1  A    between atoms: O_1  and  C_18
REMARK    2  A    between atoms: O_1  and  C_20
REMARK    3  A    between atoms: O_5  and  C_23
REMARK    4  A    between atoms: O_5  and  C_30
REMARK    5  A    between atoms: C_26  and  C_28
REMARK    6  A    between atoms: C_27  and  C_29
REMARK    7  A    between atoms: C_37  and  C_39
REMARK                            x       y       z     vdW  Elec       q    Type
REMARK                         _______ _______ _______ _____ _____    ______ ____
ROOT
ATOM      1  O   UNL     1     112.264 126.468 137.646  0.00  0.00    +0.000 OA
ATOM      2  O   UNL     1     110.740 125.594 135.903  0.00  0.00    +0.000 OA
ATOM      3  O   UNL     1     112.319 125.120 135.931  0.00  0.00    +0.000 OA
ATOM      4  C   UNL     1     110.965 126.414 137.051  0.00  0.00    +0.000 C 
ATOM      5  C   UNL     1     111.248 125.885 136.484  0.00  0.00    +0.000 C 
ATOM      6  C   UNL     1     112.037 125.648 136.498  0.00  0.00    +0.000 C 
ATOM      7  C   UNL     1     111.474 126.705 137.632  0.00  0.00    +0.000 C 
ATOM      8  C   UNL     1     112.545 125.939 137.079  0.00  0.00    +0.000 C 
ENDROOT
BRANCH   8  11
ATOM      9  O   UNL     1     113.908 126.154 136.708  0.00  0.00    +0.000 OA
ATOM     10  O   UNL     1     113.553 125.013 137.492  0.00  0.00    +0.000 OA
ATOM     11  C   UNL     1     113.335 125.702 137.093  0.00  0.00    +0.000 C 
ENDBRANCH   8  11
BRANCH   4  12
ATOM     12  O   UNL     1     110.176 126.652 137.038  0.00  0.00    +0.000 OA
BRANCH  12  17
ATOM     13  O   UNL     1     110.509 127.760 136.198  0.00  0.00    +0.000 OA
ATOM     14  O   UNL     1     108.572 126.932 136.772  0.00  0.00    +0.000 OA
ATOM     15  O   UNL     1     108.103 128.181 135.800  0.00  0.00    +0.000 OA
ATOM     16  O   UNL     1     109.238 129.148 135.094  0.00  0.00    +0.000 OA
ATOM     17  C   UNL     1     109.942 127.276 136.552  0.00  0.00    +0.000 C 
ATOM     18  C   UNL     1     109.139 127.416 136.419  0.00  0.00    +0.000 C 
ATOM     19  C   UNL     1     108.905 128.040 135.933  0.00  0.00    +0.000 C 
ATOM     20  C   UNL     1     109.473 128.524 135.580  0.00  0.00    +0.000 C 
ATOM     21  C   UNL     1     110.274 128.384 135.713  0.00  0.00    +0.000 C 
BRANCH  21  24
ATOM     22  O   UNL     1     111.115 129.538 135.755  0.00  0.00    +0.000 OA
ATOM     23  O   UNL     1     111.137 128.680 134.613  0.00  0.00    +0.000 OA
ATOM     24  C   UNL     1     110.842 128.867 135.360  0.00  0.00    +0.000 C 
ENDBRANCH  21  24
ENDBRANCH  12  17
ENDBRANCH   4  12
BRANCH   7  25
ATOM     25  O   UNL     1     111.193 127.234 138.200  0.00  0.00    +0.000 OA
BRANCH  25  29
ATOM     26  O   UNL     1     112.962 128.792 139.909  0.00  0.00    +0.000 OA
ATOM     27  O   UNL     1     111.917 126.272 140.860  0.00  0.00    +0.000 OA
ATOM     28  O   UNL     1     112.795 127.069 141.679  0.00  0.00    +0.000 OA
ATOM     29  C   UNL     1     111.598 127.330 138.912  0.00  0.00    +0.000 A 
ATOM     30  C   UNL     1     112.081 128.028 139.043  0.00  0.00    +0.000 A 
ATOM     31  C   UNL     1     111.540 126.732 139.526  0.00  0.00    +0.000 A 
ATOM     32  C   UNL     1     112.500 128.119 139.789  0.00  0.00    +0.000 A 
ATOM     33  C   UNL     1     111.967 126.841 140.265  0.00  0.00    +0.000 A 
ATOM     34  C   UNL     1     112.444 127.545 140.379  0.00  0.00    +0.000 A 
ATOM     35  C   UNL     1     112.851 127.644 141.090  0.00  0.00    +0.000 A 
ATOM     36  C   UNL     1     113.368 128.890 140.620  0.00  0.00    +0.000 A 
ATOM     37  C   UNL     1     113.313 128.316 141.211  0.00  0.00    +0.000 A 
BRANCH  36  39
ATOM     38  O   UNL     1     115.216 131.581 141.106  0.00  0.00    +0.000 OA
ATOM     39  C   UNL     1     113.831 129.563 140.742  0.00  0.00    +0.000 A 
ATOM     40  C   UNL     1     114.586 129.609 140.413  0.00  0.00    +0.000 A 
ATOM     41  C   UNL     1     113.537 130.189 141.192  0.00  0.00    +0.000 A 
ATOM     42  C   UNL     1     115.048 130.282 140.535  0.00  0.00    +0.000 A 
ATOM     43  C   UNL     1     113.999 130.862 141.313  0.00  0.00    +0.000 A 
ATOM     44  C   UNL     1     114.755 130.908 140.985  0.00  0.00    +0.000 A 
ENDBRANCH  36  39
ENDBRANCH  25  29
ENDBRANCH   7  25
TORSDOF 7
ENDMDL
