MODEL 1
REMARK VINA RESULT:     -11.6      0.000      0.000
REMARK  Name = 131751349
REMARK  10 active torsions:
REMARK  status: ('A' for Active; 'I' for Inactive)
REMARK    1  A    between atoms: O_1  and  C_19
REMARK    2  A    between atoms: O_1  and  C_24
REMARK    3  A    between atoms: O_10  and  C_31
REMARK    4  A    between atoms: O_10  and  C_40
REMARK    5  A    between atoms: C_21  and  C_29
REMARK    6  A    between atoms: C_23  and  C_30
REMARK    7  A    between atoms: C_28  and  C_31
REMARK    8  A    between atoms: C_39  and  C_41
REMARK    9  A    between atoms: C_40  and  C_42
REMARK   10  A    between atoms: C_45  and  C_49
REMARK                            x       y       z     vdW  Elec       q    Type
REMARK                         _______ _______ _______ _____ _____    ______ ____
ROOT
ATOM      1  O   UNL     1     105.173 128.062 143.162  0.00  0.00    +0.000 OA
ATOM      2  O   UNL     1     106.957 128.380 141.477  0.00  0.00    +0.000 OA
ATOM      3  O   UNL     1     105.415 128.864 141.147  0.00  0.00    +0.000 OA
ATOM      4  C   UNL     1     106.539 127.927 142.766  0.00  0.00    +0.000 C 
ATOM      5  C   UNL     1     106.363 128.274 142.039  0.00  0.00    +0.000 C 
ATOM      6  C   UNL     1     105.944 127.821 143.328  0.00  0.00    +0.000 C 
ATOM      7  C   UNL     1     105.592 128.516 141.873  0.00  0.00    +0.000 C 
ATOM      8  C   UNL     1     104.996 128.410 142.435  0.00  0.00    +0.000 C 
ENDROOT
BRANCH   6  13
ATOM      9  O   UNL     1     105.555 126.241 143.604  0.00  0.00    +0.000 OA
ATOM     10  O   UNL     1     106.686 128.706 144.506  0.00  0.00    +0.000 OA
ATOM     11  O   UNL     1     106.661 126.430 146.272  0.00  0.00    +0.000 OA
ATOM     12  O   UNL     1     105.523 125.078 144.458  0.00  0.00    +0.000 OA
ATOM     13  C   UNL     1     106.120 127.473 144.055  0.00  0.00    +0.000 A 
ATOM     14  C   UNL     1     105.925 126.684 144.193  0.00  0.00    +0.000 A 
ATOM     15  C   UNL     1     106.491 127.916 144.644  0.00  0.00    +0.000 A 
ATOM     16  C   UNL     1     106.101 126.336 144.921  0.00  0.00    +0.000 A 
ATOM     17  C   UNL     1     106.667 127.569 145.372  0.00  0.00    +0.000 A 
ATOM     18  C   UNL     1     106.472 126.779 145.510  0.00  0.00    +0.000 A 
ATOM     19  C   UNL     1     105.893 125.514 145.052  0.00  0.00    +0.000 A 
ATOM     20  C   UNL     1     106.074 125.146 145.809  0.00  0.00    +0.000 A 
ATOM     21  C   UNL     1     106.460 125.608 146.423  0.00  0.00    +0.000 A 
BRANCH  21  24
ATOM     22  O   UNL     1     108.387 124.758 148.355  0.00  0.00    +0.000 OA
ATOM     23  O   UNL     1     107.170 124.230 149.336  0.00  0.00    +0.000 OA
ATOM     24  C   UNL     1     106.637 125.263 147.151  0.00  0.00    +0.000 A 
ATOM     25  C   UNL     1     107.424 125.183 147.388  0.00  0.00    +0.000 A 
ATOM     26  C   UNL     1     106.029 124.999 147.642  0.00  0.00    +0.000 A 
ATOM     27  C   UNL     1     107.601 124.839 148.117  0.00  0.00    +0.000 A 
ATOM     28  C   UNL     1     106.206 124.655 148.369  0.00  0.00    +0.000 A 
ATOM     29  C   UNL     1     106.992 124.575 148.607  0.00  0.00    +0.000 A 
ENDBRANCH  21  24
ENDBRANCH   6  13
BRANCH   8  31
ATOM     30  O   UNL     1     103.836 129.169 142.782  0.00  0.00    +0.000 OA
ATOM     31  C   UNL     1     104.225 128.652 142.270  0.00  0.00    +0.000 C 
ENDBRANCH   8  31
BRANCH   4  32
ATOM     32  O   UNL     1     107.310 127.685 142.932  0.00  0.00    +0.000 OA
BRANCH  32  37
ATOM     33  O   UNL     1     107.384 126.646 141.953  0.00  0.00    +0.000 OA
ATOM     34  O   UNL     1     108.884 128.079 142.632  0.00  0.00    +0.000 OA
ATOM     35  O   UNL     1     109.745 127.237 141.504  0.00  0.00    +0.000 OA
ATOM     36  O   UNL     1     109.031 126.001 140.675  0.00  0.00    +0.000 OA
ATOM     37  C   UNL     1     107.741 127.264 142.367  0.00  0.00    +0.000 C 
ATOM     38  C   UNL     1     108.528 127.461 142.217  0.00  0.00    +0.000 C 
ATOM     39  C   UNL     1     108.958 127.040 141.654  0.00  0.00    +0.000 C 
ATOM     40  C   UNL     1     108.602 126.422 141.239  0.00  0.00    +0.000 C 
ATOM     41  C   UNL     1     107.815 126.225 141.389  0.00  0.00    +0.000 C 
BRANCH  41  42
ATOM     42  C   UNL     1     107.457 125.607 140.975  0.00  0.00    +0.000 C 
BRANCH  42  43
ATOM     43  O   UNL     1     106.857 125.166 141.330  0.00  0.00    +0.000 OA
BRANCH  43  45
ATOM     44  O   UNL     1     107.004 123.765 141.088  0.00  0.00    +0.000 OA
ATOM     45  C   UNL     1     106.591 124.471 140.975  0.00  0.00    +0.000 C 
BRANCH  45  46
ATOM     46  C   UNL     1     105.912 124.481 140.506  0.00  0.00    +0.000 C 
ATOM     47  C   UNL     1     105.572 123.772 140.257  0.00  0.00    +0.000 C 
BRANCH  47  49
ATOM     48  O   UNL     1     102.857 123.813 138.382  0.00  0.00    +0.000 OA
ATOM     49  C   UNL     1     104.893 123.782 139.788  0.00  0.00    +0.000 A 
ATOM     50  C   UNL     1     104.196 123.439 140.065  0.00  0.00    +0.000 A 
ATOM     51  C   UNL     1     104.912 124.135 139.042  0.00  0.00    +0.000 A 
ATOM     52  C   UNL     1     103.518 123.450 139.596  0.00  0.00    +0.000 A 
ATOM     53  C   UNL     1     104.233 124.145 138.574  0.00  0.00    +0.000 A 
ATOM     54  C   UNL     1     103.536 123.803 138.850  0.00  0.00    +0.000 A 
ENDBRANCH  47  49
ENDBRANCH  45  46
ENDBRANCH  43  45
ENDBRANCH  42  43
ENDBRANCH  41  42
ENDBRANCH  32  37
ENDBRANCH   4  32
TORSDOF 10
ENDMDL
MODEL 2
REMARK VINA RESULT:     -11.5      5.670      8.423
REMARK  Name = 131751349
REMARK  10 active torsions:
REMARK  status: ('A' for Active; 'I' for Inactive)
REMARK    1  A    between atoms: O_1  and  C_19
REMARK    2  A    between atoms: O_1  and  C_24
REMARK    3  A    between atoms: O_10  and  C_31
REMARK    4  A    between atoms: O_10  and  C_40
REMARK    5  A    between atoms: C_21  and  C_29
REMARK    6  A    between atoms: C_23  and  C_30
REMARK    7  A    between atoms: C_28  and  C_31
REMARK    8  A    between atoms: C_39  and  C_41
REMARK    9  A    between atoms: C_40  and  C_42
REMARK   10  A    between atoms: C_45  and  C_49
REMARK                            x       y       z     vdW  Elec       q    Type
REMARK                         _______ _______ _______ _____ _____    ______ ____
ROOT
ATOM      1  O   UNL     1     112.880 129.503 136.764  0.00  0.00    +0.000 OA
ATOM      2  O   UNL     1     110.973 129.478 135.188  0.00  0.00    +0.000 OA
ATOM      3  O   UNL     1     112.519 129.450 134.612  0.00  0.00    +0.000 OA
ATOM      4  C   UNL     1     111.472 129.509 136.526  0.00  0.00    +0.000 C 
ATOM      5  C   UNL     1     111.608 129.487 135.713  0.00  0.00    +0.000 C 
ATOM      6  C   UNL     1     112.107 129.517 137.051  0.00  0.00    +0.000 C 
ATOM      7  C   UNL     1     112.381 129.473 135.425  0.00  0.00    +0.000 C 
ATOM      8  C   UNL     1     113.018 129.481 135.951  0.00  0.00    +0.000 C 
ENDROOT
BRANCH   6  13
ATOM      9  O   UNL     1     112.292 128.151 137.958  0.00  0.00    +0.000 OA
ATOM     10  O   UNL     1     111.649 130.930 137.771  0.00  0.00    +0.000 OA
ATOM     11  O   UNL     1     111.553 129.624 140.338  0.00  0.00    +0.000 OA
ATOM     12  O   UNL     1     112.256 127.460 139.225  0.00  0.00    +0.000 OA
ATOM     13  C   UNL     1     111.971 129.540 137.865  0.00  0.00    +0.000 A 
ATOM     14  C   UNL     1     112.063 128.857 138.318  0.00  0.00    +0.000 A 
ATOM     15  C   UNL     1     111.742 130.246 138.225  0.00  0.00    +0.000 A 
ATOM     16  C   UNL     1     111.927 128.880 139.132  0.00  0.00    +0.000 A 
ATOM     17  C   UNL     1     111.605 130.270 139.038  0.00  0.00    +0.000 A 
ATOM     18  C   UNL     1     111.698 129.586 139.492  0.00  0.00    +0.000 A 
ATOM     19  C   UNL     1     112.027 128.162 139.593  0.00  0.00    +0.000 A 
ATOM     20  C   UNL     1     111.886 128.179 140.441  0.00  0.00    +0.000 A 
ATOM     21  C   UNL     1     111.647 128.915 140.816  0.00  0.00    +0.000 A 
BRANCH  21  24
ATOM     22  O   UNL     1     109.929 128.450 143.051  0.00  0.00    +0.000 OA
ATOM     23  O   UNL     1     111.097 129.019 144.068  0.00  0.00    +0.000 OA
ATOM     24  C   UNL     1     111.510 128.941 141.629  0.00  0.00    +0.000 A 
ATOM     25  C   UNL     1     110.788 128.683 141.933  0.00  0.00    +0.000 A 
ATOM     26  C   UNL     1     112.095 129.226 142.137  0.00  0.00    +0.000 A 
ATOM     27  C   UNL     1     110.651 128.709 142.746  0.00  0.00    +0.000 A 
ATOM     28  C   UNL     1     111.957 129.251 142.949  0.00  0.00    +0.000 A 
ATOM     29  C   UNL     1     111.235 128.993 143.254  0.00  0.00    +0.000 A 
ENDBRANCH  21  24
ENDBRANCH   6  13
BRANCH   8  31
ATOM     30  O   UNL     1     114.383 129.893 136.049  0.00  0.00    +0.000 OA
ATOM     31  C   UNL     1     113.791 129.467 135.663  0.00  0.00    +0.000 C 
ENDBRANCH   8  31
BRANCH   4  32
ATOM     32  O   UNL     1     110.699 129.523 136.814  0.00  0.00    +0.000 OA
BRANCH  32  37
ATOM     33  O   UNL     1     110.342 128.222 136.343  0.00  0.00    +0.000 OA
ATOM     34  O   UNL     1     109.159 130.047 136.535  0.00  0.00    +0.000 OA
ATOM     35  O   UNL     1     108.033 129.007 135.924  0.00  0.00    +0.000 OA
ATOM     36  O   UNL     1     108.445 127.444 135.593  0.00  0.00    +0.000 OA
ATOM     37  C   UNL     1     110.135 129.003 136.509  0.00  0.00    +0.000 C 
ATOM     38  C   UNL     1     109.365 129.265 136.369  0.00  0.00    +0.000 C 
ATOM     39  C   UNL     1     108.802 128.746 136.064  0.00  0.00    +0.000 C 
ATOM     40  C   UNL     1     109.008 127.964 135.898  0.00  0.00    +0.000 C 
ATOM     41  C   UNL     1     109.778 127.702 136.038  0.00  0.00    +0.000 C 
BRANCH  41  42
ATOM     42  C   UNL     1     109.985 126.921 135.872  0.00  0.00    +0.000 C 
BRANCH  42  43
ATOM     43  O   UNL     1     110.454 126.498 136.404  0.00  0.00    +0.000 OA
BRANCH  43  45
ATOM     44  O   UNL     1     110.523 125.360 135.541  0.00  0.00    +0.000 OA
ATOM     45  C   UNL     1     110.837 125.810 136.158  0.00  0.00    +0.000 C 
BRANCH  45  46
ATOM     46  C   UNL     1     111.535 125.571 136.529  0.00  0.00    +0.000 C 
ATOM     47  C   UNL     1     112.186 125.345 136.076  0.00  0.00    +0.000 C 
BRANCH  47  49
ATOM     48  O   UNL     1     114.975 124.392 137.559  0.00  0.00    +0.000 OA
ATOM     49  C   UNL     1     112.884 125.106 136.447  0.00  0.00    +0.000 A 
ATOM     50  C   UNL     1     113.540 125.606 136.451  0.00  0.00    +0.000 A 
ATOM     51  C   UNL     1     112.925 124.368 136.813  0.00  0.00    +0.000 A 
ATOM     52  C   UNL     1     114.236 125.368 136.822  0.00  0.00    +0.000 A 
ATOM     53  C   UNL     1     113.622 124.130 137.184  0.00  0.00    +0.000 A 
ATOM     54  C   UNL     1     114.277 124.630 137.188  0.00  0.00    +0.000 A 
ENDBRANCH  47  49
ENDBRANCH  45  46
ENDBRANCH  43  45
ENDBRANCH  42  43
ENDBRANCH  41  42
ENDBRANCH  32  37
ENDBRANCH   4  32
TORSDOF 10
ENDMDL
MODEL 3
REMARK VINA RESULT:     -11.4      5.811      8.791
REMARK  Name = 131751349
REMARK  10 active torsions:
REMARK  status: ('A' for Active; 'I' for Inactive)
REMARK    1  A    between atoms: O_1  and  C_19
REMARK    2  A    between atoms: O_1  and  C_24
REMARK    3  A    between atoms: O_10  and  C_31
REMARK    4  A    between atoms: O_10  and  C_40
REMARK    5  A    between atoms: C_21  and  C_29
REMARK    6  A    between atoms: C_23  and  C_30
REMARK    7  A    between atoms: C_28  and  C_31
REMARK    8  A    between atoms: C_39  and  C_41
REMARK    9  A    between atoms: C_40  and  C_42
REMARK   10  A    between atoms: C_45  and  C_49
REMARK                            x       y       z     vdW  Elec       q    Type
REMARK                         _______ _______ _______ _____ _____    ______ ____
ROOT
ATOM      1  O   UNL     1     114.076 129.701 140.480  0.00  0.00    +0.000 OA
ATOM      2  O   UNL     1     112.500 130.083 142.349  0.00  0.00    +0.000 OA
ATOM      3  O   UNL     1     113.642 131.218 141.987  0.00  0.00    +0.000 OA
ATOM      4  C   UNL     1     112.981 129.261 141.283  0.00  0.00    +0.000 C 
ATOM      5  C   UNL     1     113.025 129.955 141.726  0.00  0.00    +0.000 C 
ATOM      6  C   UNL     1     113.506 129.133 140.661  0.00  0.00    +0.000 C 
ATOM      7  C   UNL     1     113.596 130.523 141.545  0.00  0.00    +0.000 C 
ATOM      8  C   UNL     1     114.122 130.396 140.922  0.00  0.00    +0.000 C 
ENDROOT
BRANCH   6  13
ATOM      9  O   UNL     1     112.781 129.143 139.178  0.00  0.00    +0.000 OA
ATOM     10  O   UNL     1     114.142 127.733 141.258  0.00  0.00    +0.000 OA
ATOM     11  O   UNL     1     113.333 126.317 138.883  0.00  0.00    +0.000 OA
ATOM     12  O   UNL     1     112.359 128.471 137.973  0.00  0.00    +0.000 OA
ATOM     13  C   UNL     1     113.461 128.438 140.218  0.00  0.00    +0.000 A 
ATOM     14  C   UNL     1     113.099 128.443 139.477  0.00  0.00    +0.000 A 
ATOM     15  C   UNL     1     113.779 127.738 140.517  0.00  0.00    +0.000 A 
ATOM     16  C   UNL     1     113.054 127.748 139.034  0.00  0.00    +0.000 A 
ATOM     17  C   UNL     1     113.735 127.043 140.075  0.00  0.00    +0.000 A 
ATOM     18  C   UNL     1     113.372 127.048 139.333  0.00  0.00    +0.000 A 
ATOM     19  C   UNL     1     112.674 127.767 138.264  0.00  0.00    +0.000 A 
ATOM     20  C   UNL     1     112.625 127.046 137.799  0.00  0.00    +0.000 A 
ATOM     21  C   UNL     1     112.956 126.316 138.110  0.00  0.00    +0.000 A 
BRANCH  21  24
ATOM     22  O   UNL     1     111.513 123.987 137.298  0.00  0.00    +0.000 OA
ATOM     23  O   UNL     1     112.784 123.530 136.350  0.00  0.00    +0.000 OA
ATOM     24  C   UNL     1     112.914 125.619 137.670  0.00  0.00    +0.000 A 
ATOM     25  C   UNL     1     112.235 125.152 137.705  0.00  0.00    +0.000 A 
ATOM     26  C   UNL     1     113.549 125.391 137.196  0.00  0.00    +0.000 A 
ATOM     27  C   UNL     1     112.192 124.455 137.265  0.00  0.00    +0.000 A 
ATOM     28  C   UNL     1     113.506 124.695 136.757  0.00  0.00    +0.000 A 
ATOM     29  C   UNL     1     112.827 124.227 136.790  0.00  0.00    +0.000 A 
ENDBRANCH  21  24
ENDBRANCH   6  13
BRANCH   8  31
ATOM     30  O   UNL     1     114.779 131.228 139.964  0.00  0.00    +0.000 OA
ATOM     31  C   UNL     1     114.693 130.964 140.741  0.00  0.00    +0.000 C 
ENDBRANCH   8  31
BRANCH   4  32
ATOM     32  O   UNL     1     112.410 128.693 141.464  0.00  0.00    +0.000 OA
BRANCH  32  37
ATOM     33  O   UNL     1     111.298 129.521 141.119  0.00  0.00    +0.000 OA
ATOM     34  O   UNL     1     111.494 127.942 142.613  0.00  0.00    +0.000 OA
ATOM     35  O   UNL     1     109.924 128.394 142.842  0.00  0.00    +0.000 OA
ATOM     36  O   UNL     1     109.270 129.598 141.922  0.00  0.00    +0.000 OA
ATOM     37  C   UNL     1     111.624 128.919 141.579  0.00  0.00    +0.000 C 
ATOM     38  C   UNL     1     111.166 128.544 142.153  0.00  0.00    +0.000 C 
ATOM     39  C   UNL     1     110.382 128.770 142.268  0.00  0.00    +0.000 C 
ATOM     40  C   UNL     1     110.054 129.372 141.808  0.00  0.00    +0.000 C 
ATOM     41  C   UNL     1     110.512 129.747 141.234  0.00  0.00    +0.000 C 
BRANCH  41  42
ATOM     42  C   UNL     1     110.185 130.349 140.773  0.00  0.00    +0.000 C 
BRANCH  42  43
ATOM     43  O   UNL     1     110.221 130.303 139.950  0.00  0.00    +0.000 OA
BRANCH  43  45
ATOM     44  O   UNL     1     110.377 131.697 139.677  0.00  0.00    +0.000 OA
ATOM     45  C   UNL     1     110.042 130.966 139.493  0.00  0.00    +0.000 C 
BRANCH  45  46
ATOM     46  C   UNL     1     109.528 130.897 138.850  0.00  0.00    +0.000 C 
ATOM     47  C   UNL     1     109.787 131.094 138.092  0.00  0.00    +0.000 C 
BRANCH  47  49
ATOM     48  O   UNL     1     107.731 130.819 135.526  0.00  0.00    +0.000 OA
ATOM     49  C   UNL     1     109.272 131.025 137.450  0.00  0.00    +0.000 A 
ATOM     50  C   UNL     1     108.782 131.656 137.246  0.00  0.00    +0.000 A 
ATOM     51  C   UNL     1     109.249 130.326 137.014  0.00  0.00    +0.000 A 
ATOM     52  C   UNL     1     108.268 131.587 136.604  0.00  0.00    +0.000 A 
ATOM     53  C   UNL     1     108.735 130.257 136.373  0.00  0.00    +0.000 A 
ATOM     54  C   UNL     1     108.245 130.887 136.168  0.00  0.00    +0.000 A 
ENDBRANCH  47  49
ENDBRANCH  45  46
ENDBRANCH  43  45
ENDBRANCH  42  43
ENDBRANCH  41  42
ENDBRANCH  32  37
ENDBRANCH   4  32
TORSDOF 10
ENDMDL
MODEL 4
REMARK VINA RESULT:     -11.3      5.269      9.699
REMARK  Name = 131751349
REMARK  10 active torsions:
REMARK  status: ('A' for Active; 'I' for Inactive)
REMARK    1  A    between atoms: O_1  and  C_19
REMARK    2  A    between atoms: O_1  and  C_24
REMARK    3  A    between atoms: O_10  and  C_31
REMARK    4  A    between atoms: O_10  and  C_40
REMARK    5  A    between atoms: C_21  and  C_29
REMARK    6  A    between atoms: C_23  and  C_30
REMARK    7  A    between atoms: C_28  and  C_31
REMARK    8  A    between atoms: C_39  and  C_41
REMARK    9  A    between atoms: C_40  and  C_42
REMARK   10  A    between atoms: C_45  and  C_49
REMARK                            x       y       z     vdW  Elec       q    Type
REMARK                         _______ _______ _______ _____ _____    ______ ____
ROOT
ATOM      1  O   UNL     1     111.498 125.966 136.882  0.00  0.00    +0.000 OA
ATOM      2  O   UNL     1     110.639 124.967 138.976  0.00  0.00    +0.000 OA
ATOM      3  O   UNL     1     111.743 124.148 138.064  0.00  0.00    +0.000 OA
ATOM      4  C   UNL     1     110.660 126.043 138.036  0.00  0.00    +0.000 C 
ATOM      5  C   UNL     1     110.925 125.300 138.278  0.00  0.00    +0.000 C 
ATOM      6  C   UNL     1     110.946 126.376 137.338  0.00  0.00    +0.000 C 
ATOM      7  C   UNL     1     111.477 124.891 137.822  0.00  0.00    +0.000 C 
ATOM      8  C   UNL     1     111.764 125.224 137.123  0.00  0.00    +0.000 C 
ENDROOT
BRANCH   6  13
ATOM      9  O   UNL     1     109.479 126.528 136.597  0.00  0.00    +0.000 OA
ATOM     10  O   UNL     1     111.883 127.710 137.594  0.00  0.00    +0.000 OA
ATOM     11  O   UNL     1     109.887 129.384 136.362  0.00  0.00    +0.000 OA
ATOM     12  O   UNL     1     108.455 127.331 135.973  0.00  0.00    +0.000 OA
ATOM     13  C   UNL     1     110.680 127.119 137.095  0.00  0.00    +0.000 A 
ATOM     14  C   UNL     1     109.948 127.195 136.725  0.00  0.00    +0.000 A 
ATOM     15  C   UNL     1     111.149 127.786 137.223  0.00  0.00    +0.000 A 
ATOM     16  C   UNL     1     109.682 127.937 136.482  0.00  0.00    +0.000 A 
ATOM     17  C   UNL     1     110.885 128.528 136.981  0.00  0.00    +0.000 A 
ATOM     18  C   UNL     1     110.151 128.604 136.610  0.00  0.00    +0.000 A 
ATOM     19  C   UNL     1     108.917 128.003 136.097  0.00  0.00    +0.000 A 
ATOM     20  C   UNL     1     108.636 128.774 135.842  0.00  0.00    +0.000 A 
ATOM     21  C   UNL     1     109.124 129.470 135.976  0.00  0.00    +0.000 A 
BRANCH  21  24
ATOM     22  O   UNL     1     107.454 131.754 136.375  0.00  0.00    +0.000 OA
ATOM     23  O   UNL     1     108.074 132.445 135.011  0.00  0.00    +0.000 OA
ATOM     24  C   UNL     1     108.862 130.214 135.734  0.00  0.00    +0.000 A 
ATOM     25  C   UNL     1     108.289 130.611 136.176  0.00  0.00    +0.000 A 
ATOM     26  C   UNL     1     109.172 130.559 135.052  0.00  0.00    +0.000 A 
ATOM     27  C   UNL     1     108.027 131.355 135.934  0.00  0.00    +0.000 A 
ATOM     28  C   UNL     1     108.909 131.302 134.811  0.00  0.00    +0.000 A 
ATOM     29  C   UNL     1     108.337 131.701 135.252  0.00  0.00    +0.000 A 
ENDBRANCH  21  24
ENDBRANCH   6  13
BRANCH   8  31
ATOM     30  O   UNL     1     112.288 124.864 135.844  0.00  0.00    +0.000 OA
ATOM     31  C   UNL     1     112.316 124.814 136.667  0.00  0.00    +0.000 C 
ENDBRANCH   8  31
BRANCH   4  32
ATOM     32  O   UNL     1     110.108 126.452 138.492  0.00  0.00    +0.000 OA
BRANCH  32  37
ATOM     33  O   UNL     1     110.938 126.628 139.641  0.00  0.00    +0.000 OA
ATOM     34  O   UNL     1     108.796 126.246 139.471  0.00  0.00    +0.000 OA
ATOM     35  O   UNL     1     108.971 126.318 141.111  0.00  0.00    +0.000 OA
ATOM     36  O   UNL     1     110.458 126.597 141.770  0.00  0.00    +0.000 OA
ATOM     37  C   UNL     1     110.195 126.489 139.312  0.00  0.00    +0.000 C 
ATOM     38  C   UNL     1     109.539 126.385 139.802  0.00  0.00    +0.000 C 
ATOM     39  C   UNL     1     109.627 126.422 140.621  0.00  0.00    +0.000 C 
ATOM     40  C   UNL     1     110.370 126.561 140.951  0.00  0.00    +0.000 C 
ATOM     41  C   UNL     1     111.026 126.664 140.461  0.00  0.00    +0.000 C 
BRANCH  41  42
ATOM     42  C   UNL     1     111.769 126.803 140.790  0.00  0.00    +0.000 C 
BRANCH  42  43
ATOM     43  O   UNL     1     112.213 127.454 140.545  0.00  0.00    +0.000 OA
BRANCH  43  45
ATOM     44  O   UNL     1     113.481 126.859 140.829  0.00  0.00    +0.000 OA
ATOM     45  C   UNL     1     113.001 127.528 140.779  0.00  0.00    +0.000 C 
BRANCH  45  46
ATOM     46  C   UNL     1     113.308 128.271 140.964  0.00  0.00    +0.000 C 
ATOM     47  C   UNL     1     113.790 128.664 140.421  0.00  0.00    +0.000 C 
BRANCH  47  49
ATOM     48  O   UNL     1     115.018 131.637 141.159  0.00  0.00    +0.000 OA
ATOM     49  C   UNL     1     114.097 129.408 140.606  0.00  0.00    +0.000 A 
ATOM     50  C   UNL     1     113.635 129.954 141.017  0.00  0.00    +0.000 A 
ATOM     51  C   UNL     1     114.866 129.605 140.379  0.00  0.00    +0.000 A 
ATOM     52  C   UNL     1     113.943 130.697 141.201  0.00  0.00    +0.000 A 
ATOM     53  C   UNL     1     115.172 130.347 140.564  0.00  0.00    +0.000 A 
ATOM     54  C   UNL     1     114.711 130.893 140.974  0.00  0.00    +0.000 A 
ENDBRANCH  47  49
ENDBRANCH  45  46
ENDBRANCH  43  45
ENDBRANCH  42  43
ENDBRANCH  41  42
ENDBRANCH  32  37
ENDBRANCH   4  32
TORSDOF 10
ENDMDL
MODEL 5
REMARK VINA RESULT:     -11.2      6.326      9.084
REMARK  Name = 131751349
REMARK  10 active torsions:
REMARK  status: ('A' for Active; 'I' for Inactive)
REMARK    1  A    between atoms: O_1  and  C_19
REMARK    2  A    between atoms: O_1  and  C_24
REMARK    3  A    between atoms: O_10  and  C_31
REMARK    4  A    between atoms: O_10  and  C_40
REMARK    5  A    between atoms: C_21  and  C_29
REMARK    6  A    between atoms: C_23  and  C_30
REMARK    7  A    between atoms: C_28  and  C_31
REMARK    8  A    between atoms: C_39  and  C_41
REMARK    9  A    between atoms: C_40  and  C_42
REMARK   10  A    between atoms: C_45  and  C_49
REMARK                            x       y       z     vdW  Elec       q    Type
REMARK                         _______ _______ _______ _____ _____    ______ ____
ROOT
ATOM      1  O   UNL     1     113.519 125.932 137.397  0.00  0.00    +0.000 OA
ATOM      2  O   UNL     1     111.375 124.709 137.567  0.00  0.00    +0.000 OA
ATOM      3  O   UNL     1     112.452 124.326 136.377  0.00  0.00    +0.000 OA
ATOM      4  C   UNL     1     112.266 125.717 138.049  0.00  0.00    +0.000 C 
ATOM      5  C   UNL     1     112.089 125.117 137.510  0.00  0.00    +0.000 C 
ATOM      6  C   UNL     1     112.981 126.124 137.992  0.00  0.00    +0.000 C 
ATOM      7  C   UNL     1     112.628 124.925 136.915  0.00  0.00    +0.000 C 
ATOM      8  C   UNL     1     113.343 125.333 136.859  0.00  0.00    +0.000 C 
ENDROOT
BRANCH   6  13
ATOM      9  O   UNL     1     112.831 127.706 137.546  0.00  0.00    +0.000 OA
ATOM     10  O   UNL     1     113.485 125.741 139.516  0.00  0.00    +0.000 OA
ATOM     11  O   UNL     1     113.701 128.537 140.179  0.00  0.00    +0.000 OA
ATOM     12  O   UNL     1     112.925 129.116 137.838  0.00  0.00    +0.000 OA
ATOM     13  C   UNL     1     113.158 126.724 138.530  0.00  0.00    +0.000 A 
ATOM     14  C   UNL     1     113.083 127.514 138.308  0.00  0.00    +0.000 A 
ATOM     15  C   UNL     1     113.410 126.533 139.292  0.00  0.00    +0.000 A 
ATOM     16  C   UNL     1     113.261 128.114 138.846  0.00  0.00    +0.000 A 
ATOM     17  C   UNL     1     113.588 127.131 139.831  0.00  0.00    +0.000 A 
ATOM     18  C   UNL     1     113.513 127.923 139.608  0.00  0.00    +0.000 A 
ATOM     19  C   UNL     1     113.178 128.933 138.601  0.00  0.00    +0.000 A 
ATOM     20  C   UNL     1     113.362 129.562 139.158  0.00  0.00    +0.000 A 
ATOM     21  C   UNL     1     113.625 129.363 139.952  0.00  0.00    +0.000 A 
BRANCH  21  24
ATOM     22  O   UNL     1     115.422 131.355 140.935  0.00  0.00    +0.000 OA
ATOM     23  O   UNL     1     114.338 131.752 142.114  0.00  0.00    +0.000 OA
ATOM     24  C   UNL     1     113.803 129.960 140.493  0.00  0.00    +0.000 A 
ATOM     25  C   UNL     1     114.523 130.359 140.443  0.00  0.00    +0.000 A 
ATOM     26  C   UNL     1     113.261 130.158 141.082  0.00  0.00    +0.000 A 
ATOM     27  C   UNL     1     114.701 130.956 140.984  0.00  0.00    +0.000 A 
ATOM     28  C   UNL     1     113.439 130.754 141.622  0.00  0.00    +0.000 A 
ATOM     29  C   UNL     1     114.159 131.154 141.573  0.00  0.00    +0.000 A 
ENDBRANCH  21  24
ENDBRANCH   6  13
BRANCH   8  31
ATOM     30  O   UNL     1     114.688 125.108 136.433  0.00  0.00    +0.000 OA
ATOM     31  C   UNL     1     113.882 125.141 136.264  0.00  0.00    +0.000 C 
ENDBRANCH   8  31
BRANCH   4  32
ATOM     32  O   UNL     1     111.728 125.909 138.643  0.00  0.00    +0.000 OA
BRANCH  32  37
ATOM     33  O   UNL     1     110.750 126.436 137.745  0.00  0.00    +0.000 OA
ATOM     34  O   UNL     1     110.529 125.451 139.681  0.00  0.00    +0.000 OA
ATOM     35  O   UNL     1     108.951 125.749 139.301  0.00  0.00    +0.000 OA
ATOM     36  O   UNL     1     108.572 126.505 137.884  0.00  0.00    +0.000 OA
ATOM     37  C   UNL     1     110.938 126.058 138.454  0.00  0.00    +0.000 C 
ATOM     38  C   UNL     1     110.339 125.829 138.972  0.00  0.00    +0.000 C 
ATOM     39  C   UNL     1     109.551 125.978 138.782  0.00  0.00    +0.000 C 
ATOM     40  C   UNL     1     109.361 126.356 138.074  0.00  0.00    +0.000 C 
ATOM     41  C   UNL     1     109.960 126.585 137.555  0.00  0.00    +0.000 C 
BRANCH  41  42
ATOM     42  C   UNL     1     109.771 126.962 136.847  0.00  0.00    +0.000 C 
BRANCH  42  43
ATOM     43  O   UNL     1     109.968 127.757 136.738  0.00  0.00    +0.000 OA
BRANCH  43  45
ATOM     44  O   UNL     1     110.153 127.662 135.324  0.00  0.00    +0.000 OA
ATOM     45  C   UNL     1     109.920 128.094 135.987  0.00  0.00    +0.000 C 
BRANCH  45  46
ATOM     46  C   UNL     1     109.638 128.865 135.899  0.00  0.00    +0.000 C 
ATOM     47  C   UNL     1     110.120 129.444 135.562  0.00  0.00    +0.000 C 
BRANCH  47  49
ATOM     48  O   UNL     1     108.993 132.526 135.210  0.00  0.00    +0.000 OA
ATOM     49  C   UNL     1     109.838 130.215 135.474  0.00  0.00    +0.000 A 
ATOM     50  C   UNL     1     109.979 130.775 136.063  0.00  0.00    +0.000 A 
ATOM     51  C   UNL     1     109.415 130.425 134.797  0.00  0.00    +0.000 A 
ATOM     52  C   UNL     1     109.697 131.545 135.975  0.00  0.00    +0.000 A 
ATOM     53  C   UNL     1     109.134 131.195 134.710  0.00  0.00    +0.000 A 
ATOM     54  C   UNL     1     109.274 131.755 135.298  0.00  0.00    +0.000 A 
ENDBRANCH  47  49
ENDBRANCH  45  46
ENDBRANCH  43  45
ENDBRANCH  42  43
ENDBRANCH  41  42
ENDBRANCH  32  37
ENDBRANCH   4  32
TORSDOF 10
ENDMDL
MODEL 6
REMARK VINA RESULT:     -11.1      3.031      7.505
REMARK  Name = 131751349
REMARK  10 active torsions:
REMARK  status: ('A' for Active; 'I' for Inactive)
REMARK    1  A    between atoms: O_1  and  C_19
REMARK    2  A    between atoms: O_1  and  C_24
REMARK    3  A    between atoms: O_10  and  C_31
REMARK    4  A    between atoms: O_10  and  C_40
REMARK    5  A    between atoms: C_21  and  C_29
REMARK    6  A    between atoms: C_23  and  C_30
REMARK    7  A    between atoms: C_28  and  C_31
REMARK    8  A    between atoms: C_39  and  C_41
REMARK    9  A    between atoms: C_40  and  C_42
REMARK   10  A    between atoms: C_45  and  C_49
REMARK                            x       y       z     vdW  Elec       q    Type
REMARK                         _______ _______ _______ _____ _____    ______ ____
ROOT
ATOM      1  O   UNL     1     106.817 125.700 146.708  0.00  0.00    +0.000 OA
ATOM      2  O   UNL     1     105.241 123.938 147.441  0.00  0.00    +0.000 OA
ATOM      3  O   UNL     1     106.637 124.198 148.281  0.00  0.00    +0.000 OA
ATOM      4  C   UNL     1     105.594 124.983 146.532  0.00  0.00    +0.000 C 
ATOM      5  C   UNL     1     105.766 124.525 147.197  0.00  0.00    +0.000 C 
ATOM      6  C   UNL     1     106.119 125.570 146.288  0.00  0.00    +0.000 C 
ATOM      7  C   UNL     1     106.464 124.655 147.617  0.00  0.00    +0.000 C 
ATOM      8  C   UNL     1     106.990 125.243 147.373  0.00  0.00    +0.000 C 
ENDROOT
BRANCH   6  13
ATOM      9  O   UNL     1     105.597 127.125 146.469  0.00  0.00    +0.000 OA
ATOM     10  O   UNL     1     106.298 124.931 144.778  0.00  0.00    +0.000 OA
ATOM     11  O   UNL     1     105.428 127.409 143.593  0.00  0.00    +0.000 OA
ATOM     12  O   UNL     1     105.156 128.383 145.916  0.00  0.00    +0.000 OA
ATOM     13  C   UNL     1     105.947 126.028 145.624  0.00  0.00    +0.000 A 
ATOM     14  C   UNL     1     105.686 126.805 145.714  0.00  0.00    +0.000 A 
ATOM     15  C   UNL     1     106.037 125.708 144.868  0.00  0.00    +0.000 A 
ATOM     16  C   UNL     1     105.514 127.263 145.049  0.00  0.00    +0.000 A 
ATOM     17  C   UNL     1     105.865 126.165 144.203  0.00  0.00    +0.000 A 
ATOM     18  C   UNL     1     105.604 126.943 144.294  0.00  0.00    +0.000 A 
ATOM     19  C   UNL     1     105.243 128.071 145.157  0.00  0.00    +0.000 A 
ATOM     20  C   UNL     1     105.062 128.553 144.468  0.00  0.00    +0.000 A 
ATOM     21  C   UNL     1     105.156 128.219 143.681  0.00  0.00    +0.000 A 
BRANCH  21  24
ATOM     22  O   UNL     1     106.033 129.622 141.351  0.00  0.00    +0.000 OA
ATOM     23  O   UNL     1     104.473 130.040 141.015  0.00  0.00    +0.000 OA
ATOM     24  C   UNL     1     104.985 128.675 143.014  0.00  0.00    +0.000 A 
ATOM     25  C   UNL     1     105.595 128.920 142.516  0.00  0.00    +0.000 A 
ATOM     26  C   UNL     1     104.204 128.884 142.847  0.00  0.00    +0.000 A 
ATOM     27  C   UNL     1     105.424 129.376 141.850  0.00  0.00    +0.000 A 
ATOM     28  C   UNL     1     104.034 129.339 142.181  0.00  0.00    +0.000 A 
ATOM     29  C   UNL     1     104.643 129.585 141.682  0.00  0.00    +0.000 A 
ENDBRANCH  21  24
ENDBRANCH   6  13
BRANCH   8  31
ATOM     30  O   UNL     1     108.409 125.411 147.393  0.00  0.00    +0.000 OA
ATOM     31  C   UNL     1     107.688 125.372 147.793  0.00  0.00    +0.000 C 
ENDBRANCH   8  31
BRANCH   4  32
ATOM     32  O   UNL     1     104.896 124.854 146.112  0.00  0.00    +0.000 OA
BRANCH  32  37
ATOM     33  O   UNL     1     104.003 125.322 147.124  0.00  0.00    +0.000 OA
ATOM     34  O   UNL     1     103.809 123.685 145.693  0.00  0.00    +0.000 OA
ATOM     35  O   UNL     1     102.372 123.570 146.495  0.00  0.00    +0.000 OA
ATOM     36  O   UNL     1     102.022 124.623 147.717  0.00  0.00    +0.000 OA
ATOM     37  C   UNL     1     104.177 124.796 146.513  0.00  0.00    +0.000 C 
ATOM     38  C   UNL     1     103.633 124.212 146.304  0.00  0.00    +0.000 C 
ATOM     39  C   UNL     1     102.916 124.154 146.705  0.00  0.00    +0.000 C 
ATOM     40  C   UNL     1     102.740 124.680 147.316  0.00  0.00    +0.000 C 
ATOM     41  C   UNL     1     103.284 125.264 147.525  0.00  0.00    +0.000 C 
BRANCH  41  42
ATOM     42  C   UNL     1     103.109 125.791 148.136  0.00  0.00    +0.000 C 
BRANCH  42  43
ATOM     43  O   UNL     1     103.198 126.603 148.017  0.00  0.00    +0.000 OA
BRANCH  43  45
ATOM     44  O   UNL     1     103.264 126.958 149.400  0.00  0.00    +0.000 OA
ATOM     45  C   UNL     1     103.027 127.130 148.629  0.00  0.00    +0.000 C 
BRANCH  45  46
ATOM     46  C   UNL     1     102.617 127.829 148.468  0.00  0.00    +0.000 C 
ATOM     47  C   UNL     1     102.938 128.555 148.694  0.00  0.00    +0.000 C 
BRANCH  47  49
ATOM     48  O   UNL     1     101.302 131.348 148.051  0.00  0.00    +0.000 OA
ATOM     49  C   UNL     1     102.528 129.253 148.533  0.00  0.00    +0.000 A 
ATOM     50  C   UNL     1     102.866 129.826 148.044  0.00  0.00    +0.000 A 
ATOM     51  C   UNL     1     101.782 129.379 148.861  0.00  0.00    +0.000 A 
ATOM     52  C   UNL     1     102.457 130.524 147.884  0.00  0.00    +0.000 A 
ATOM     53  C   UNL     1     101.374 130.077 148.701  0.00  0.00    +0.000 A 
ATOM     54  C   UNL     1     101.711 130.649 148.212  0.00  0.00    +0.000 A 
ENDBRANCH  47  49
ENDBRANCH  45  46
ENDBRANCH  43  45
ENDBRANCH  42  43
ENDBRANCH  41  42
ENDBRANCH  32  37
ENDBRANCH   4  32
TORSDOF 10
ENDMDL
MODEL 7
REMARK VINA RESULT:     -11.1      4.912      8.516
REMARK  Name = 131751349
REMARK  10 active torsions:
REMARK  status: ('A' for Active; 'I' for Inactive)
REMARK    1  A    between atoms: O_1  and  C_19
REMARK    2  A    between atoms: O_1  and  C_24
REMARK    3  A    between atoms: O_10  and  C_31
REMARK    4  A    between atoms: O_10  and  C_40
REMARK    5  A    between atoms: C_21  and  C_29
REMARK    6  A    between atoms: C_23  and  C_30
REMARK    7  A    between atoms: C_28  and  C_31
REMARK    8  A    between atoms: C_39  and  C_41
REMARK    9  A    between atoms: C_40  and  C_42
REMARK   10  A    between atoms: C_45  and  C_49
REMARK                            x       y       z     vdW  Elec       q    Type
REMARK                         _______ _______ _______ _____ _____    ______ ____
ROOT
ATOM      1  O   UNL     1     111.469 130.674 141.618  0.00  0.00    +0.000 OA
ATOM      2  O   UNL     1     110.826 128.640 142.872  0.00  0.00    +0.000 OA
ATOM      3  O   UNL     1     112.065 129.586 143.414  0.00  0.00    +0.000 OA
ATOM      4  C   UNL     1     110.636 129.523 141.765  0.00  0.00    +0.000 C 
ATOM      5  C   UNL     1     111.040 129.318 142.454  0.00  0.00    +0.000 C 
ATOM      6  C   UNL     1     110.850 130.201 141.348  0.00  0.00    +0.000 C 
ATOM      7  C   UNL     1     111.660 129.790 142.725  0.00  0.00    +0.000 C 
ATOM      8  C   UNL     1     111.874 130.469 142.307  0.00  0.00    +0.000 C 
ENDROOT
BRANCH   6  13
ATOM      9  O   UNL     1     111.516 129.884 139.872  0.00  0.00    +0.000 OA
ATOM     10  O   UNL     1     109.373 130.931 141.446  0.00  0.00    +0.000 OA
ATOM     11  O   UNL     1     109.203 131.039 138.572  0.00  0.00    +0.000 OA
ATOM     12  O   UNL     1     111.470 129.919 138.430  0.00  0.00    +0.000 OA
ATOM     13  C   UNL     1     110.445 130.407 140.658  0.00  0.00    +0.000 A 
ATOM     14  C   UNL     1     110.778 130.248 139.921  0.00  0.00    +0.000 A 
ATOM     15  C   UNL     1     109.707 130.772 140.708  0.00  0.00    +0.000 A 
ATOM     16  C   UNL     1     110.373 130.454 139.232  0.00  0.00    +0.000 A 
ATOM     17  C   UNL     1     109.301 130.978 140.020  0.00  0.00    +0.000 A 
ATOM     18  C   UNL     1     109.635 130.819 139.281  0.00  0.00    +0.000 A 
ATOM     19  C   UNL     1     110.731 130.284 138.470  0.00  0.00    +0.000 A 
ATOM     20  C   UNL     1     110.314 130.496 137.749  0.00  0.00    +0.000 A 
ATOM     21  C   UNL     1     109.544 130.876 137.800  0.00  0.00    +0.000 A 
BRANCH  21  24
ATOM     22  O   UNL     1     107.647 130.239 135.761  0.00  0.00    +0.000 OA
ATOM     23  O   UNL     1     107.915 131.704 135.053  0.00  0.00    +0.000 OA
ATOM     24  C   UNL     1     109.137 131.084 137.113  0.00  0.00    +0.000 A 
ATOM     25  C   UNL     1     108.596 130.557 136.781  0.00  0.00    +0.000 A 
ATOM     26  C   UNL     1     109.272 131.817 136.759  0.00  0.00    +0.000 A 
ATOM     27  C   UNL     1     108.189 130.764 136.094  0.00  0.00    +0.000 A 
ATOM     28  C   UNL     1     108.865 132.023 136.073  0.00  0.00    +0.000 A 
ATOM     29  C   UNL     1     108.323 131.497 135.740  0.00  0.00    +0.000 A 
ENDBRANCH  21  24
ENDBRANCH   6  13
BRANCH   8  31
ATOM     30  O   UNL     1     112.479 131.757 142.445  0.00  0.00    +0.000 OA
ATOM     31  C   UNL     1     112.493 130.942 142.578  0.00  0.00    +0.000 C 
ENDBRANCH   8  31
BRANCH   4  32
ATOM     32  O   UNL     1     110.016 129.050 141.494  0.00  0.00    +0.000 OA
BRANCH  32  37
ATOM     33  O   UNL     1     110.833 127.914 141.202  0.00  0.00    +0.000 OA
ATOM     34  O   UNL     1     108.766 128.050 141.893  0.00  0.00    +0.000 OA
ATOM     35  O   UNL     1     108.958 126.414 141.800  0.00  0.00    +0.000 OA
ATOM     36  O   UNL     1     110.399 125.778 141.309  0.00  0.00    +0.000 OA
ATOM     37  C   UNL     1     110.112 128.232 141.448  0.00  0.00    +0.000 C 
ATOM     38  C   UNL     1     109.487 127.731 141.647  0.00  0.00    +0.000 C 
ATOM     39  C   UNL     1     109.583 126.914 141.601  0.00  0.00    +0.000 C 
ATOM     40  C   UNL     1     110.303 126.595 141.355  0.00  0.00    +0.000 C 
ATOM     41  C   UNL     1     110.928 127.096 141.156  0.00  0.00    +0.000 C 
BRANCH  41  42
ATOM     42  C   UNL     1     111.649 126.778 140.910  0.00  0.00    +0.000 C 
BRANCH  42  43
ATOM     43  O   UNL     1     111.954 126.975 140.168  0.00  0.00    +0.000 OA
BRANCH  43  45
ATOM     44  O   UNL     1     113.345 127.055 140.487  0.00  0.00    +0.000 OA
ATOM     45  C   UNL     1     112.740 126.801 139.987  0.00  0.00    +0.000 C 
BRANCH  45  46
ATOM     46  C   UNL     1     112.920 126.373 139.305  0.00  0.00    +0.000 C 
ATOM     47  C   UNL     1     113.540 126.616 138.818  0.00  0.00    +0.000 C 
BRANCH  47  49
ATOM     48  O   UNL     1     114.263 124.903 136.091  0.00  0.00    +0.000 OA
ATOM     49  C   UNL     1     113.721 126.188 138.135  0.00  0.00    +0.000 A 
ATOM     50  C   UNL     1     114.247 125.554 138.175  0.00  0.00    +0.000 A 
ATOM     51  C   UNL     1     113.375 126.394 137.415  0.00  0.00    +0.000 A 
ATOM     52  C   UNL     1     114.427 125.126 137.493  0.00  0.00    +0.000 A 
ATOM     53  C   UNL     1     113.556 125.966 136.734  0.00  0.00    +0.000 A 
ATOM     54  C   UNL     1     114.081 125.332 136.773  0.00  0.00    +0.000 A 
ENDBRANCH  47  49
ENDBRANCH  45  46
ENDBRANCH  43  45
ENDBRANCH  42  43
ENDBRANCH  41  42
ENDBRANCH  32  37
ENDBRANCH   4  32
TORSDOF 10
ENDMDL
MODEL 8
REMARK VINA RESULT:     -11.1      5.081      7.107
REMARK  Name = 131751349
REMARK  10 active torsions:
REMARK  status: ('A' for Active; 'I' for Inactive)
REMARK    1  A    between atoms: O_1  and  C_19
REMARK    2  A    between atoms: O_1  and  C_24
REMARK    3  A    between atoms: O_10  and  C_31
REMARK    4  A    between atoms: O_10  and  C_40
REMARK    5  A    between atoms: C_21  and  C_29
REMARK    6  A    between atoms: C_23  and  C_30
REMARK    7  A    between atoms: C_28  and  C_31
REMARK    8  A    between atoms: C_39  and  C_41
REMARK    9  A    between atoms: C_40  and  C_42
REMARK   10  A    between atoms: C_45  and  C_49
REMARK                            x       y       z     vdW  Elec       q    Type
REMARK                         _______ _______ _______ _____ _____    ______ ____
ROOT
ATOM      1  O   UNL     1     110.238 130.923 141.815  0.00  0.00    +0.000 OA
ATOM      2  O   UNL     1     112.010 130.642 140.111  0.00  0.00    +0.000 OA
ATOM      3  O   UNL     1     110.422 130.576 139.668  0.00  0.00    +0.000 OA
ATOM      4  C   UNL     1     111.622 130.863 141.469  0.00  0.00    +0.000 C 
ATOM      5  C   UNL     1     111.420 130.736 140.679  0.00  0.00    +0.000 C 
ATOM      6  C   UNL     1     111.032 130.957 142.037  0.00  0.00    +0.000 C 
ATOM      7  C   UNL     1     110.626 130.703 140.458  0.00  0.00    +0.000 C 
ATOM      8  C   UNL     1     110.034 130.796 141.026  0.00  0.00    +0.000 C 
ENDROOT
BRANCH   6  13
ATOM      9  O   UNL     1     111.484 132.461 142.542  0.00  0.00    +0.000 OA
ATOM     10  O   UNL     1     110.984 129.705 143.111  0.00  0.00    +0.000 OA
ATOM     11  O   UNL     1     111.847 131.454 145.231  0.00  0.00    +0.000 OA
ATOM     12  O   UNL     1     111.917 133.370 143.576  0.00  0.00    +0.000 OA
ATOM     13  C   UNL     1     111.234 131.084 142.826  0.00  0.00    +0.000 A 
ATOM     14  C   UNL     1     111.460 131.835 143.079  0.00  0.00    +0.000 A 
ATOM     15  C   UNL     1     111.211 130.458 143.363  0.00  0.00    +0.000 A 
ATOM     16  C   UNL     1     111.663 131.962 143.869  0.00  0.00    +0.000 A 
ATOM     17  C   UNL     1     111.413 130.584 144.153  0.00  0.00    +0.000 A 
ATOM     18  C   UNL     1     111.639 131.336 144.406  0.00  0.00    +0.000 A 
ATOM     19  C   UNL     1     111.896 132.750 144.119  0.00  0.00    +0.000 A 
ATOM     20  C   UNL     1     112.108 132.888 144.941  0.00  0.00    +0.000 A 
ATOM     21  C   UNL     1     112.083 132.236 145.501  0.00  0.00    +0.000 A 
BRANCH  21  24
ATOM     22  O   UNL     1     111.490 133.363 148.059  0.00  0.00    +0.000 OA
ATOM     23  O   UNL     1     112.889 132.731 148.662  0.00  0.00    +0.000 OA
ATOM     24  C   UNL     1     112.285 132.359 146.291  0.00  0.00    +0.000 A 
ATOM     25  C   UNL     1     111.786 132.799 146.780  0.00  0.00    +0.000 A 
ATOM     26  C   UNL     1     112.985 132.043 146.593  0.00  0.00    +0.000 A 
ATOM     27  C   UNL     1     111.988 132.923 147.570  0.00  0.00    +0.000 A 
ATOM     28  C   UNL     1     113.186 132.167 147.383  0.00  0.00    +0.000 A 
ATOM     29  C   UNL     1     112.688 132.607 147.871  0.00  0.00    +0.000 A 
ENDBRANCH  21  24
ENDBRANCH   6  13
BRANCH   8  31
ATOM     30  O   UNL     1     108.701 131.300 141.123  0.00  0.00    +0.000 OA
ATOM     31  C   UNL     1     109.240 130.763 140.804  0.00  0.00    +0.000 C 
ENDBRANCH   8  31
BRANCH   4  32
ATOM     32  O   UNL     1     112.416 130.896 141.690  0.00  0.00    +0.000 OA
BRANCH  32  37
ATOM     33  O   UNL     1     112.708 129.560 141.276  0.00  0.00    +0.000 OA
ATOM     34  O   UNL     1     113.967 131.341 141.346  0.00  0.00    +0.000 OA
ATOM     35  O   UNL     1     115.035 130.228 140.760  0.00  0.00    +0.000 OA
ATOM     36  O   UNL     1     114.551 128.669 140.518  0.00  0.00    +0.000 OA
ATOM     37  C   UNL     1     112.951 130.339 141.397  0.00  0.00    +0.000 C 
ATOM     38  C   UNL     1     113.726 130.562 141.225  0.00  0.00    +0.000 C 
ATOM     39  C   UNL     1     114.259 130.005 140.932  0.00  0.00    +0.000 C 
ATOM     40  C   UNL     1     114.018 129.226 140.811  0.00  0.00    +0.000 C 
ATOM     41  C   UNL     1     113.242 129.003 140.983  0.00  0.00    +0.000 C 
BRANCH  41  42
ATOM     42  C   UNL     1     113.000 128.224 140.862  0.00  0.00    +0.000 C 
BRANCH  42  43
ATOM     43  O   UNL     1     112.489 127.863 141.401  0.00  0.00    +0.000 OA
BRANCH  43  45
ATOM     44  O   UNL     1     112.560 126.454 141.174  0.00  0.00    +0.000 OA
ATOM     45  C   UNL     1     112.121 127.151 141.206  0.00  0.00    +0.000 C 
BRANCH  45  46
ATOM     46  C   UNL     1     111.311 127.137 141.043  0.00  0.00    +0.000 C 
ATOM     47  C   UNL     1     110.814 126.635 141.468  0.00  0.00    +0.000 C 
BRANCH  47  49
ATOM     48  O   UNL     1     107.580 126.578 140.815  0.00  0.00    +0.000 OA
ATOM     49  C   UNL     1     110.005 126.621 141.305  0.00  0.00    +0.000 A 
ATOM     50  C   UNL     1     109.694 126.034 140.817  0.00  0.00    +0.000 A 
ATOM     51  C   UNL     1     109.508 127.194 141.630  0.00  0.00    +0.000 A 
ATOM     52  C   UNL     1     108.885 126.020 140.654  0.00  0.00    +0.000 A 
ATOM     53  C   UNL     1     108.701 127.180 141.467  0.00  0.00    +0.000 A 
ATOM     54  C   UNL     1     108.389 126.593 140.979  0.00  0.00    +0.000 A 
ENDBRANCH  47  49
ENDBRANCH  45  46
ENDBRANCH  43  45
ENDBRANCH  42  43
ENDBRANCH  41  42
ENDBRANCH  32  37
ENDBRANCH   4  32
TORSDOF 10
ENDMDL
MODEL 9
REMARK VINA RESULT:     -11.1      6.073      8.413
REMARK  Name = 131751349
REMARK  10 active torsions:
REMARK  status: ('A' for Active; 'I' for Inactive)
REMARK    1  A    between atoms: O_1  and  C_19
REMARK    2  A    between atoms: O_1  and  C_24
REMARK    3  A    between atoms: O_10  and  C_31
REMARK    4  A    between atoms: O_10  and  C_40
REMARK    5  A    between atoms: C_21  and  C_29
REMARK    6  A    between atoms: C_23  and  C_30
REMARK    7  A    between atoms: C_28  and  C_31
REMARK    8  A    between atoms: C_39  and  C_41
REMARK    9  A    between atoms: C_40  and  C_42
REMARK   10  A    between atoms: C_45  and  C_49
REMARK                            x       y       z     vdW  Elec       q    Type
REMARK                         _______ _______ _______ _____ _____    ______ ____
ROOT
ATOM      1  O   UNL     1     110.442 132.468 137.468  0.00  0.00    +0.000 OA
ATOM      2  O   UNL     1     109.070 131.317 135.759  0.00  0.00    +0.000 OA
ATOM      3  O   UNL     1     109.767 132.772 135.414  0.00  0.00    +0.000 OA
ATOM      4  C   UNL     1     109.636 131.357 137.071  0.00  0.00    +0.000 C 
ATOM      5  C   UNL     1     109.527 131.700 136.328  0.00  0.00    +0.000 C 
ATOM      6  C   UNL     1     110.093 131.740 137.640  0.00  0.00    +0.000 C 
ATOM      7  C   UNL     1     109.876 132.428 136.156  0.00  0.00    +0.000 C 
ATOM      8  C   UNL     1     110.333 132.812 136.726  0.00  0.00    +0.000 C 
ENDROOT
BRANCH   6  13
ATOM      9  O   UNL     1     111.520 130.997 138.005  0.00  0.00    +0.000 OA
ATOM     10  O   UNL     1     108.882 131.796 138.760  0.00  0.00    +0.000 OA
ATOM     11  O   UNL     1     110.518 130.356 140.644  0.00  0.00    +0.000 OA
ATOM     12  O   UNL     1     112.372 130.275 138.919  0.00  0.00    +0.000 OA
ATOM     13  C   UNL     1     110.202 131.396 138.382  0.00  0.00    +0.000 A 
ATOM     14  C   UNL     1     110.915 131.025 138.565  0.00  0.00    +0.000 A 
ATOM     15  C   UNL     1     109.597 131.425 138.942  0.00  0.00    +0.000 A 
ATOM     16  C   UNL     1     111.024 130.682 139.307  0.00  0.00    +0.000 A 
ATOM     17  C   UNL     1     109.704 131.082 139.684  0.00  0.00    +0.000 A 
ATOM     18  C   UNL     1     110.419 130.710 139.867  0.00  0.00    +0.000 A 
ATOM     19  C   UNL     1     111.772 130.298 139.485  0.00  0.00    +0.000 A 
ATOM     20  C   UNL     1     111.891 129.939 140.257  0.00  0.00    +0.000 A 
ATOM     21  C   UNL     1     111.260 129.968 140.840  0.00  0.00    +0.000 A 
BRANCH  21  24
ATOM     22  O   UNL     1     110.873 127.776 142.632  0.00  0.00    +0.000 OA
ATOM     23  O   UNL     1     111.682 128.597 143.812  0.00  0.00    +0.000 OA
ATOM     24  C   UNL     1     111.366 129.626 141.584  0.00  0.00    +0.000 A 
ATOM     25  C   UNL     1     111.066 128.872 141.736  0.00  0.00    +0.000 A 
ATOM     26  C   UNL     1     111.770 130.037 142.174  0.00  0.00    +0.000 A 
ATOM     27  C   UNL     1     111.172 128.529 142.479  0.00  0.00    +0.000 A 
ATOM     28  C   UNL     1     111.875 129.694 142.916  0.00  0.00    +0.000 A 
ATOM     29  C   UNL     1     111.577 128.941 143.069  0.00  0.00    +0.000 A 
ENDBRANCH  21  24
ENDBRANCH   6  13
BRANCH   8  31
ATOM     30  O   UNL     1     110.659 134.149 137.109  0.00  0.00    +0.000 OA
ATOM     31  C   UNL     1     110.682 133.540 136.554  0.00  0.00    +0.000 C 
ENDBRANCH   8  31
BRANCH   4  32
ATOM     32  O   UNL     1     109.287 130.629 137.243  0.00  0.00    +0.000 OA
BRANCH  32  37
ATOM     33  O   UNL     1     110.093 129.771 136.433  0.00  0.00    +0.000 OA
ATOM     34  O   UNL     1     107.931 129.845 136.726  0.00  0.00    +0.000 OA
ATOM     35  O   UNL     1     108.059 128.594 135.656  0.00  0.00    +0.000 OA
ATOM     36  O   UNL     1     109.543 128.129 135.105  0.00  0.00    +0.000 OA
ATOM     37  C   UNL     1     109.351 130.004 136.708  0.00  0.00    +0.000 C 
ATOM     38  C   UNL     1     108.673 129.611 136.449  0.00  0.00    +0.000 C 
ATOM     39  C   UNL     1     108.737 128.987 135.915  0.00  0.00    +0.000 C 
ATOM     40  C   UNL     1     109.479 128.753 135.639  0.00  0.00    +0.000 C 
ATOM     41  C   UNL     1     110.157 129.146 135.898  0.00  0.00    +0.000 C 
BRANCH  41  42
ATOM     42  C   UNL     1     110.899 128.914 135.622  0.00  0.00    +0.000 C 
BRANCH  42  43
ATOM     43  O   UNL     1     111.485 128.688 136.158  0.00  0.00    +0.000 OA
BRANCH  43  45
ATOM     44  O   UNL     1     112.639 128.887 135.339  0.00  0.00    +0.000 OA
ATOM     45  C   UNL     1     112.218 128.430 135.882  0.00  0.00    +0.000 C 
BRANCH  45  46
ATOM     46  C   UNL     1     112.531 127.714 136.149  0.00  0.00    +0.000 C 
ATOM     47  C   UNL     1     113.232 127.708 136.584  0.00  0.00    +0.000 C 
BRANCH  47  49
ATOM     48  O   UNL     1     114.481 124.846 137.653  0.00  0.00    +0.000 OA
ATOM     49  C   UNL     1     113.545 126.992 136.852  0.00  0.00    +0.000 A 
ATOM     50  C   UNL     1     114.018 126.537 136.352  0.00  0.00    +0.000 A 
ATOM     51  C   UNL     1     113.383 126.732 137.618  0.00  0.00    +0.000 A 
ATOM     52  C   UNL     1     114.330 125.822 136.620  0.00  0.00    +0.000 A 
ATOM     53  C   UNL     1     113.696 126.017 137.885  0.00  0.00    +0.000 A 
ATOM     54  C   UNL     1     114.169 125.562 137.386  0.00  0.00    +0.000 A 
ENDBRANCH  47  49
ENDBRANCH  45  46
ENDBRANCH  43  45
ENDBRANCH  42  43
ENDBRANCH  41  42
ENDBRANCH  32  37
ENDBRANCH   4  32
TORSDOF 10
ENDMDL
MODEL 10
REMARK VINA RESULT:     -11.1      6.542      8.421
REMARK  Name = 131751349
REMARK  10 active torsions:
REMARK  status: ('A' for Active; 'I' for Inactive)
REMARK    1  A    between atoms: O_1  and  C_19
REMARK    2  A    between atoms: O_1  and  C_24
REMARK    3  A    between atoms: O_10  and  C_31
REMARK    4  A    between atoms: O_10  and  C_40
REMARK    5  A    between atoms: C_21  and  C_29
REMARK    6  A    between atoms: C_23  and  C_30
REMARK    7  A    between atoms: C_28  and  C_31
REMARK    8  A    between atoms: C_39  and  C_41
REMARK    9  A    between atoms: C_40  and  C_42
REMARK   10  A    between atoms: C_45  and  C_49
REMARK                            x       y       z     vdW  Elec       q    Type
REMARK                         _______ _______ _______ _____ _____    ______ ____
ROOT
ATOM      1  O   UNL     1     112.750 129.029 136.732  0.00  0.00    +0.000 OA
ATOM      2  O   UNL     1     111.125 129.832 135.048  0.00  0.00    +0.000 OA
ATOM      3  O   UNL     1     112.301 128.761 134.613  0.00  0.00    +0.000 OA
ATOM      4  C   UNL     1     111.620 129.832 136.388  0.00  0.00    +0.000 C 
ATOM      5  C   UNL     1     111.666 129.565 135.609  0.00  0.00    +0.000 C 
ATOM      6  C   UNL     1     112.161 129.565 136.950  0.00  0.00    +0.000 C 
ATOM      7  C   UNL     1     112.254 129.029 135.392  0.00  0.00    +0.000 C 
ATOM      8  C   UNL     1     112.797 128.761 135.954  0.00  0.00    +0.000 C 
ENDROOT
BRANCH   6  13
ATOM      9  O   UNL     1     111.511 128.598 138.118  0.00  0.00    +0.000 OA
ATOM     10  O   UNL     1     112.720 131.068 137.339  0.00  0.00    +0.000 OA
ATOM     11  O   UNL     1     111.982 130.660 140.094  0.00  0.00    +0.000 OA
ATOM     12  O   UNL     1     111.127 128.354 139.488  0.00  0.00    +0.000 OA
ATOM     13  C   UNL     1     112.115 129.832 137.729  0.00  0.00    +0.000 A 
ATOM     14  C   UNL     1     111.790 129.349 138.313  0.00  0.00    +0.000 A 
ATOM     15  C   UNL     1     112.394 130.584 137.924  0.00  0.00    +0.000 A 
ATOM     16  C   UNL     1     111.744 129.617 139.092  0.00  0.00    +0.000 A 
ATOM     17  C   UNL     1     112.349 130.852 138.702  0.00  0.00    +0.000 A 
ATOM     18  C   UNL     1     112.024 130.368 139.287  0.00  0.00    +0.000 A 
ATOM     19  C   UNL     1     111.404 129.104 139.691  0.00  0.00    +0.000 A 
ATOM     20  C   UNL     1     111.353 129.378 140.505  0.00  0.00    +0.000 A 
ATOM     21  C   UNL     1     111.644 130.161 140.708  0.00  0.00    +0.000 A 
BRANCH  21  24
ATOM     22  O   UNL     1     110.208 131.502 142.782  0.00  0.00    +0.000 OA
ATOM     23  O   UNL     1     111.465 131.244 143.819  0.00  0.00    +0.000 OA
ATOM     24  C   UNL     1     111.600 130.432 141.486  0.00  0.00    +0.000 A 
ATOM     25  C   UNL     1     110.926 130.831 141.744  0.00  0.00    +0.000 A 
ATOM     26  C   UNL     1     112.229 130.303 142.004  0.00  0.00    +0.000 A 
ATOM     27  C   UNL     1     110.882 131.102 142.522  0.00  0.00    +0.000 A 
ATOM     28  C   UNL     1     112.184 130.573 142.781  0.00  0.00    +0.000 A 
ATOM     29  C   UNL     1     111.510 130.973 143.041  0.00  0.00    +0.000 A 
ENDBRANCH  21  24
ENDBRANCH   6  13
BRANCH   8  31
ATOM     30  O   UNL     1     113.937 127.970 136.294  0.00  0.00    +0.000 OA
ATOM     31  C   UNL     1     113.385 128.225 135.736  0.00  0.00    +0.000 C 
ENDBRANCH   8  31
BRANCH   4  32
ATOM     32  O   UNL     1     111.031 130.368 136.606  0.00  0.00    +0.000 OA
BRANCH  32  37
ATOM     33  O   UNL     1     109.963 129.458 136.336  0.00  0.00    +0.000 OA
ATOM     34  O   UNL     1     110.032 131.639 136.275  0.00  0.00    +0.000 OA
ATOM     35  O   UNL     1     108.464 131.364 135.840  0.00  0.00    +0.000 OA
ATOM     36  O   UNL     1     107.896 129.818 135.736  0.00  0.00    +0.000 OA
ATOM     37  C   UNL     1     110.247 130.231 136.388  0.00  0.00    +0.000 C 
ATOM     38  C   UNL     1     109.747 130.866 136.223  0.00  0.00    +0.000 C 
ATOM     39  C   UNL     1     108.964 130.728 136.005  0.00  0.00    +0.000 C 
ATOM     40  C   UNL     1     108.679 129.956 135.953  0.00  0.00    +0.000 C 
ATOM     41  C   UNL     1     109.179 129.320 136.118  0.00  0.00    +0.000 C 
BRANCH  41  42
ATOM     42  C   UNL     1     108.895 128.548 136.066  0.00  0.00    +0.000 C 
BRANCH  42  43
ATOM     43  O   UNL     1     109.078 128.001 136.658  0.00  0.00    +0.000 OA
BRANCH  43  45
ATOM     44  O   UNL     1     108.267 126.835 136.498  0.00  0.00    +0.000 OA
ATOM     45  C   UNL     1     109.010 127.193 136.506  0.00  0.00    +0.000 C 
BRANCH  45  46
ATOM     46  C   UNL     1     109.687 126.742 136.363  0.00  0.00    +0.000 C 
ATOM     47  C   UNL     1     109.868 126.104 136.853  0.00  0.00    +0.000 C 
BRANCH  47  49
ATOM     48  O   UNL     1     112.574 124.303 136.281  0.00  0.00    +0.000 OA
ATOM     49  C   UNL     1     110.545 125.653 136.710  0.00  0.00    +0.000 A 
ATOM     50  C   UNL     1     110.694 125.363 135.953  0.00  0.00    +0.000 A 
ATOM     51  C   UNL     1     111.072 125.494 137.325  0.00  0.00    +0.000 A 
ATOM     52  C   UNL     1     111.370 124.912 135.811  0.00  0.00    +0.000 A 
ATOM     53  C   UNL     1     111.748 125.044 137.182  0.00  0.00    +0.000 A 
ATOM     54  C   UNL     1     111.897 124.753 136.425  0.00  0.00    +0.000 A 
ENDBRANCH  47  49
ENDBRANCH  45  46
ENDBRANCH  43  45
ENDBRANCH  42  43
ENDBRANCH  41  42
ENDBRANCH  32  37
ENDBRANCH   4  32
TORSDOF 10
ENDMDL
