MODEL 1
REMARK VINA RESULT:      -9.3      0.000      0.000
REMARK  Name = 131837168
REMARK  11 active torsions:
REMARK  status: ('A' for Active; 'I' for Inactive)
REMARK    1  A    between atoms: O_2  and  C_16
REMARK    2  A    between atoms: O_2  and  C_19
REMARK    3  A    between atoms: C_17  and  C_18
REMARK    4  A    between atoms: C_20  and  C_24
REMARK    5  A    between atoms: C_22  and  C_27
REMARK    6  A    between atoms: C_24  and  C_30
REMARK    7  A    between atoms: C_26  and  C_27
REMARK    8  A    between atoms: C_26  and  C_28
REMARK    9  A    between atoms: C_28  and  C_29
REMARK   10  A    between atoms: C_32  and  C_35
REMARK   11  A    between atoms: C_35  and  C_40
REMARK                            x       y       z     vdW  Elec       q    Type
REMARK                         _______ _______ _______ _____ _____    ______ ____
ROOT
ATOM      1  O   UNL     1     111.643 130.577 137.006  0.00  0.00    +0.000 OA
ATOM      2  C   UNL     1     111.842 129.472 138.877  0.00  0.00    +0.000 A 
ATOM      3  C   UNL     1     112.069 128.729 138.597  0.00  0.00    +0.000 A 
ATOM      4  C   UNL     1     111.700 130.087 138.347  0.00  0.00    +0.000 A 
ATOM      5  C   UNL     1     112.012 129.220 137.255  0.00  0.00    +0.000 A 
ATOM      6  C   UNL     1     112.154 128.603 137.786  0.00  0.00    +0.000 A 
ATOM      7  C   UNL     1     111.785 129.961 137.536  0.00  0.00    +0.000 A 
ENDROOT
BRANCH   5   9
ATOM      8  O   UNL     1     112.731 129.430 136.039  0.00  0.00    +0.000 OA
ATOM      9  C   UNL     1     112.097 129.094 136.444  0.00  0.00    +0.000 C 
BRANCH   9  11
ATOM     10  O   UNL     1     110.743 128.697 136.213  0.00  0.00    +0.000 OA
ATOM     11  C   UNL     1     111.546 128.631 136.039  0.00  0.00    +0.000 C 
BRANCH  11  13
ATOM     12  O   UNL     1     112.483 128.262 135.025  0.00  0.00    +0.000 OA
ATOM     13  C   UNL     1     111.800 128.101 135.460  0.00  0.00    +0.000 C 
BRANCH  13  15
ATOM     14  O   UNL     1     110.090 125.339 134.883  0.00  0.00    +0.000 OA
ATOM     15  C   UNL     1     111.373 127.411 135.315  0.00  0.00    +0.000 A 
ATOM     16  C   UNL     1     111.552 126.720 135.731  0.00  0.00    +0.000 A 
ATOM     17  C   UNL     1     111.124 126.030 135.586  0.00  0.00    +0.000 A 
ATOM     18  C   UNL     1     110.766 127.411 134.756  0.00  0.00    +0.000 A 
ATOM     19  C   UNL     1     110.517 126.030 135.027  0.00  0.00    +0.000 A 
ATOM     20  C   UNL     1     110.339 126.719 134.612  0.00  0.00    +0.000 A 
BRANCH  17  21
ATOM     21  C   UNL     1     111.303 125.340 136.002  0.00  0.00    +0.000 C 
BRANCH  21  22
ATOM     22  C   UNL     1     112.088 125.104 136.090  0.00  0.00    +0.000 C 
ATOM     23  C   UNL     1     112.281 124.499 136.618  0.00  0.00    +0.000 C 
ATOM     24  C   UNL     1     113.066 124.263 136.706  0.00  0.00    +0.000 C 
ATOM     25  C   UNL     1     111.687 124.131 137.057  0.00  0.00    +0.000 C 
ENDBRANCH  21  22
ENDBRANCH  17  21
ENDBRANCH  13  15
ENDBRANCH  11  13
ENDBRANCH   9  11
ENDBRANCH   5   9
BRANCH   2  26
ATOM     26  O   UNL     1     111.757 129.597 139.688  0.00  0.00    +0.000 OA
BRANCH  26  34
ATOM     27  O   UNL     1     110.342 129.784 139.755  0.00  0.00    +0.000 OA
ATOM     28  O   UNL     1     110.668 131.708 141.277  0.00  0.00    +0.000 OA
ATOM     29  O   UNL     1     111.975 130.880 140.702  0.00  0.00    +0.000 OA
ATOM     30  O   UNL     1     109.145 131.253 140.837  0.00  0.00    +0.000 OA
ATOM     31  C   UNL     1     110.560 131.067 140.769  0.00  0.00    +0.000 C 
ATOM     32  C   UNL     1     111.213 130.653 140.482  0.00  0.00    +0.000 C 
ATOM     33  C   UNL     1     109.798 130.840 140.550  0.00  0.00    +0.000 C 
ATOM     34  C   UNL     1     111.105 130.012 139.975  0.00  0.00    +0.000 C 
ATOM     35  C   UNL     1     109.690 130.198 140.043  0.00  0.00    +0.000 C 
BRANCH  35  38
ATOM     36  O   UNL     1     108.547 130.354 139.198  0.00  0.00    +0.000 OA
ATOM     37  O   UNL     1     108.547 129.360 140.225  0.00  0.00    +0.000 OA
ATOM     38  C   UNL     1     108.928 129.970 139.822  0.00  0.00    +0.000 C 
ENDBRANCH  35  38
ENDBRANCH  26  34
ENDBRANCH   2  26
BRANCH   3  39
ATOM     39  C   UNL     1     112.212 128.114 139.126  0.00  0.00    +0.000 C 
BRANCH  39  40
ATOM     40  C   UNL     1     112.904 127.669 139.066  0.00  0.00    +0.000 C 
ATOM     41  C   UNL     1     112.964 126.945 139.456  0.00  0.00    +0.000 C 
ATOM     42  C   UNL     1     113.656 126.500 139.396  0.00  0.00    +0.000 C 
ATOM     43  C   UNL     1     112.332 126.665 139.907  0.00  0.00    +0.000 C 
ENDBRANCH  39  40
ENDBRANCH   3  39
TORSDOF 11
ENDMDL
MODEL 2
REMARK VINA RESULT:      -9.3      2.283      4.363
REMARK  Name = 131837168
REMARK  11 active torsions:
REMARK  status: ('A' for Active; 'I' for Inactive)
REMARK    1  A    between atoms: O_2  and  C_16
REMARK    2  A    between atoms: O_2  and  C_19
REMARK    3  A    between atoms: C_17  and  C_18
REMARK    4  A    between atoms: C_20  and  C_24
REMARK    5  A    between atoms: C_22  and  C_27
REMARK    6  A    between atoms: C_24  and  C_30
REMARK    7  A    between atoms: C_26  and  C_27
REMARK    8  A    between atoms: C_26  and  C_28
REMARK    9  A    between atoms: C_28  and  C_29
REMARK   10  A    between atoms: C_32  and  C_35
REMARK   11  A    between atoms: C_35  and  C_40
REMARK                            x       y       z     vdW  Elec       q    Type
REMARK                         _______ _______ _______ _____ _____    ______ ____
ROOT
ATOM      1  O   UNL     1     110.499 126.215 134.704  0.00  0.00    +0.000 OA
ATOM      2  C   UNL     1     109.612 127.211 136.432  0.00  0.00    +0.000 A 
ATOM      3  C   UNL     1     109.900 126.744 137.048  0.00  0.00    +0.000 A 
ATOM      4  C   UNL     1     109.812 127.036 135.652  0.00  0.00    +0.000 A 
ATOM      5  C   UNL     1     110.588 125.923 136.100  0.00  0.00    +0.000 A 
ATOM      6  C   UNL     1     110.388 126.099 136.882  0.00  0.00    +0.000 A 
ATOM      7  C   UNL     1     110.300 126.391 135.486  0.00  0.00    +0.000 A 
ENDROOT
BRANCH   5   9
ATOM      8  O   UNL     1     110.755 124.590 135.614  0.00  0.00    +0.000 OA
ATOM      9  C   UNL     1     111.076 125.279 135.934  0.00  0.00    +0.000 C 
BRANCH   9  11
ATOM     10  O   UNL     1     112.327 125.956 135.798  0.00  0.00    +0.000 OA
ATOM     11  C   UNL     1     111.885 125.324 136.089  0.00  0.00    +0.000 C 
BRANCH  11  13
ATOM     12  O   UNL     1     111.886 124.003 136.635  0.00  0.00    +0.000 OA
ATOM     13  C   UNL     1     112.253 124.736 136.536  0.00  0.00    +0.000 C 
BRANCH  13  15
ATOM     14  O   UNL     1     115.187 125.312 137.933  0.00  0.00    +0.000 OA
ATOM     15  C   UNL     1     112.986 124.880 136.885  0.00  0.00    +0.000 A 
ATOM     16  C   UNL     1     113.031 125.311 137.588  0.00  0.00    +0.000 A 
ATOM     17  C   UNL     1     113.765 125.454 137.936  0.00  0.00    +0.000 A 
ATOM     18  C   UNL     1     113.675 124.593 136.532  0.00  0.00    +0.000 A 
ATOM     19  C   UNL     1     114.453 125.168 137.583  0.00  0.00    +0.000 A 
ATOM     20  C   UNL     1     114.408 124.737 136.882  0.00  0.00    +0.000 A 
BRANCH  17  21
ATOM     21  C   UNL     1     113.810 125.885 138.639  0.00  0.00    +0.000 C 
BRANCH  21  22
ATOM     22  C   UNL     1     113.519 126.657 138.668  0.00  0.00    +0.000 C 
ATOM     23  C   UNL     1     113.453 127.045 139.394  0.00  0.00    +0.000 C 
ATOM     24  C   UNL     1     113.162 127.816 139.423  0.00  0.00    +0.000 C 
ATOM     25  C   UNL     1     113.677 126.662 140.089  0.00  0.00    +0.000 C 
ENDBRANCH  21  22
ENDBRANCH  17  21
ENDBRANCH  13  15
ENDBRANCH  11  13
ENDBRANCH   9  11
ENDBRANCH   5   9
BRANCH   2  26
ATOM     26  O   UNL     1     109.124 127.856 136.598  0.00  0.00    +0.000 OA
BRANCH  26  34
ATOM     27  O   UNL     1     110.074 128.903 136.388  0.00  0.00    +0.000 OA
ATOM     28  O   UNL     1     108.343 130.240 135.229  0.00  0.00    +0.000 OA
ATOM     29  O   UNL     1     107.971 128.747 135.825  0.00  0.00    +0.000 OA
ATOM     30  O   UNL     1     109.869 130.840 135.405  0.00  0.00    +0.000 OA
ATOM     31  C   UNL     1     108.920 129.794 135.615  0.00  0.00    +0.000 C 
ATOM     32  C   UNL     1     108.733 129.048 135.913  0.00  0.00    +0.000 C 
ATOM     33  C   UNL     1     109.683 130.095 135.703  0.00  0.00    +0.000 C 
ATOM     34  C   UNL     1     109.310 128.602 136.299  0.00  0.00    +0.000 C 
ATOM     35  C   UNL     1     110.260 129.649 136.089  0.00  0.00    +0.000 C 
BRANCH  35  38
ATOM     36  O   UNL     1     111.229 130.353 136.867  0.00  0.00    +0.000 OA
ATOM     37  O   UNL     1     111.579 129.846 135.578  0.00  0.00    +0.000 OA
ATOM     38  C   UNL     1     111.023 129.949 136.178  0.00  0.00    +0.000 C 
ENDBRANCH  35  38
ENDBRANCH  26  34
ENDBRANCH   2  26
BRANCH   3  39
ATOM     39  C   UNL     1     109.701 126.919 137.828  0.00  0.00    +0.000 C 
BRANCH  39  40
ATOM     40  C   UNL     1     109.682 126.320 138.395  0.00  0.00    +0.000 C 
ATOM     41  C   UNL     1     109.664 126.510 139.197  0.00  0.00    +0.000 C 
ATOM     42  C   UNL     1     109.645 125.910 139.763  0.00  0.00    +0.000 C 
ATOM     43  C   UNL     1     109.667 127.300 139.433  0.00  0.00    +0.000 C 
ENDBRANCH  39  40
ENDBRANCH   3  39
TORSDOF 11
ENDMDL
MODEL 3
REMARK VINA RESULT:      -9.1      1.590      2.867
REMARK  Name = 131837168
REMARK  11 active torsions:
REMARK  status: ('A' for Active; 'I' for Inactive)
REMARK    1  A    between atoms: O_2  and  C_16
REMARK    2  A    between atoms: O_2  and  C_19
REMARK    3  A    between atoms: C_17  and  C_18
REMARK    4  A    between atoms: C_20  and  C_24
REMARK    5  A    between atoms: C_22  and  C_27
REMARK    6  A    between atoms: C_24  and  C_30
REMARK    7  A    between atoms: C_26  and  C_27
REMARK    8  A    between atoms: C_26  and  C_28
REMARK    9  A    between atoms: C_28  and  C_29
REMARK   10  A    between atoms: C_32  and  C_35
REMARK   11  A    between atoms: C_35  and  C_40
REMARK                            x       y       z     vdW  Elec       q    Type
REMARK                         _______ _______ _______ _____ _____    ______ ____
ROOT
ATOM      1  O   UNL     1     109.567 128.800 135.977  0.00  0.00    +0.000 OA
ATOM      2  C   UNL     1     111.438 129.866 136.335  0.00  0.00    +0.000 A 
ATOM      3  C   UNL     1     111.987 129.317 136.056  0.00  0.00    +0.000 A 
ATOM      4  C   UNL     1     110.632 129.694 136.309  0.00  0.00    +0.000 A 
ATOM      5  C   UNL     1     110.922 128.423 135.724  0.00  0.00    +0.000 A 
ATOM      6  C   UNL     1     111.729 128.595 135.750  0.00  0.00    +0.000 A 
ATOM      7  C   UNL     1     110.374 128.973 136.003  0.00  0.00    +0.000 A 
ENDROOT
BRANCH   5   9
ATOM      8  O   UNL     1     110.267 127.678 134.696  0.00  0.00    +0.000 OA
ATOM      9  C   UNL     1     110.664 127.701 135.418  0.00  0.00    +0.000 C 
BRANCH   9  11
ATOM     10  O   UNL     1     110.684 126.979 136.651  0.00  0.00    +0.000 OA
ATOM     11  C   UNL     1     110.804 127.003 135.836  0.00  0.00    +0.000 C 
BRANCH  11  13
ATOM     12  O   UNL     1     111.041 126.304 134.612  0.00  0.00    +0.000 OA
ATOM     13  C   UNL     1     111.065 126.330 135.437  0.00  0.00    +0.000 C 
BRANCH  13  15
ATOM     14  O   UNL     1     112.206 123.742 137.136  0.00  0.00    +0.000 OA
ATOM     15  C   UNL     1     111.350 125.683 135.862  0.00  0.00    +0.000 A 
ATOM     16  C   UNL     1     112.139 125.664 136.104  0.00  0.00    +0.000 A 
ATOM     17  C   UNL     1     112.423 125.017 136.529  0.00  0.00    +0.000 A 
ATOM     18  C   UNL     1     110.847 125.055 136.044  0.00  0.00    +0.000 A 
ATOM     19  C   UNL     1     111.920 124.389 136.711  0.00  0.00    +0.000 A 
ATOM     20  C   UNL     1     111.133 124.408 136.469  0.00  0.00    +0.000 A 
BRANCH  17  21
ATOM     21  C   UNL     1     113.212 124.998 136.772  0.00  0.00    +0.000 C 
BRANCH  21  22
ATOM     22  C   UNL     1     113.804 125.280 136.271  0.00  0.00    +0.000 C 
ATOM     23  C   UNL     1     114.585 125.319 136.537  0.00  0.00    +0.000 C 
ATOM     24  C   UNL     1     115.177 125.600 136.036  0.00  0.00    +0.000 C 
ATOM     25  C   UNL     1     114.773 125.076 137.303  0.00  0.00    +0.000 C 
ENDBRANCH  21  22
ENDBRANCH  17  21
ENDBRANCH  13  15
ENDBRANCH  11  13
ENDBRANCH   9  11
ENDBRANCH   5   9
BRANCH   2  26
ATOM     26  O   UNL     1     111.696 130.588 136.640  0.00  0.00    +0.000 OA
BRANCH  26  34
ATOM     27  O   UNL     1     111.399 130.378 138.022  0.00  0.00    +0.000 OA
ATOM     28  O   UNL     1     110.476 132.669 138.172  0.00  0.00    +0.000 OA
ATOM     29  O   UNL     1     111.081 132.116 136.740  0.00  0.00    +0.000 OA
ATOM     30  O   UNL     1     110.487 131.695 139.503  0.00  0.00    +0.000 OA
ATOM     31  C   UNL     1     110.784 131.905 138.122  0.00  0.00    +0.000 C 
ATOM     32  C   UNL     1     111.086 131.629 137.406  0.00  0.00    +0.000 C 
ATOM     33  C   UNL     1     110.789 131.419 138.788  0.00  0.00    +0.000 C 
ATOM     34  C   UNL     1     111.394 130.865 137.356  0.00  0.00    +0.000 C 
ATOM     35  C   UNL     1     111.097 130.655 138.738  0.00  0.00    +0.000 C 
BRANCH  35  38
ATOM     36  O   UNL     1     110.433 129.725 139.595  0.00  0.00    +0.000 OA
ATOM     37  O   UNL     1     111.777 130.123 139.876  0.00  0.00    +0.000 OA
ATOM     38  C   UNL     1     111.102 130.168 139.403  0.00  0.00    +0.000 C 
ENDBRANCH  35  38
ENDBRANCH  26  34
ENDBRANCH   2  26
BRANCH   3  39
ATOM     39  C   UNL     1     112.793 129.489 136.082  0.00  0.00    +0.000 C 
BRANCH  39  40
ATOM     40  C   UNL     1     113.287 129.251 135.464  0.00  0.00    +0.000 C 
ATOM     41  C   UNL     1     114.105 129.309 135.545  0.00  0.00    +0.000 C 
ATOM     42  C   UNL     1     114.599 129.072 134.927  0.00  0.00    +0.000 C 
ATOM     43  C   UNL     1     114.431 129.604 136.242  0.00  0.00    +0.000 C 
ENDBRANCH  39  40
ENDBRANCH   3  39
TORSDOF 11
ENDMDL
MODEL 4
REMARK VINA RESULT:      -8.8      1.756      2.775
REMARK  Name = 131837168
REMARK  11 active torsions:
REMARK  status: ('A' for Active; 'I' for Inactive)
REMARK    1  A    between atoms: O_2  and  C_16
REMARK    2  A    between atoms: O_2  and  C_19
REMARK    3  A    between atoms: C_17  and  C_18
REMARK    4  A    between atoms: C_20  and  C_24
REMARK    5  A    between atoms: C_22  and  C_27
REMARK    6  A    between atoms: C_24  and  C_30
REMARK    7  A    between atoms: C_26  and  C_27
REMARK    8  A    between atoms: C_26  and  C_28
REMARK    9  A    between atoms: C_28  and  C_29
REMARK   10  A    between atoms: C_32  and  C_35
REMARK   11  A    between atoms: C_35  and  C_40
REMARK                            x       y       z     vdW  Elec       q    Type
REMARK                         _______ _______ _______ _____ _____    ______ ____
ROOT
ATOM      1  O   UNL     1     109.314 128.927 136.741  0.00  0.00    +0.000 OA
ATOM      2  C   UNL     1     111.208 129.887 137.245  0.00  0.00    +0.000 A 
ATOM      3  C   UNL     1     111.727 129.482 136.747  0.00  0.00    +0.000 A 
ATOM      4  C   UNL     1     110.405 129.703 137.243  0.00  0.00    +0.000 A 
ATOM      5  C   UNL     1     110.636 128.707 136.245  0.00  0.00    +0.000 A 
ATOM      6  C   UNL     1     111.441 128.892 136.247  0.00  0.00    +0.000 A 
ATOM      7  C   UNL     1     110.119 129.113 136.743  0.00  0.00    +0.000 A 
ENDROOT
BRANCH   5   9
ATOM      8  O   UNL     1     109.972 128.320 135.041  0.00  0.00    +0.000 OA
ATOM      9  C   UNL     1     110.350 128.117 135.745  0.00  0.00    +0.000 C 
BRANCH   9  11
ATOM     10  O   UNL     1     110.200 127.057 136.691  0.00  0.00    +0.000 OA
ATOM     11  C   UNL     1     110.442 127.323 135.949  0.00  0.00    +0.000 C 
BRANCH  11  13
ATOM     12  O   UNL     1     110.832 126.999 134.613  0.00  0.00    +0.000 OA
ATOM     13  C   UNL     1     110.776 126.794 135.411  0.00  0.00    +0.000 C 
BRANCH  13  15
ATOM     14  O   UNL     1     111.890 123.865 136.443  0.00  0.00    +0.000 OA
ATOM     15  C   UNL     1     111.054 126.062 135.669  0.00  0.00    +0.000 A 
ATOM     16  C   UNL     1     111.828 125.989 135.945  0.00  0.00    +0.000 A 
ATOM     17  C   UNL     1     112.106 125.256 136.203  0.00  0.00    +0.000 A 
ATOM     18  C   UNL     1     110.558 125.402 135.650  0.00  0.00    +0.000 A 
ATOM     19  C   UNL     1     111.610 124.597 136.185  0.00  0.00    +0.000 A 
ATOM     20  C   UNL     1     110.837 124.670 135.908  0.00  0.00    +0.000 A 
BRANCH  17  21
ATOM     21  C   UNL     1     112.880 125.184 136.480  0.00  0.00    +0.000 C 
BRANCH  21  22
ATOM     22  C   UNL     1     113.133 125.638 137.121  0.00  0.00    +0.000 C 
ATOM     23  C   UNL     1     113.933 125.656 137.323  0.00  0.00    +0.000 C 
ATOM     24  C   UNL     1     114.186 126.110 137.964  0.00  0.00    +0.000 C 
ATOM     25  C   UNL     1     114.480 125.221 136.884  0.00  0.00    +0.000 C 
ENDBRANCH  21  22
ENDBRANCH  17  21
ENDBRANCH  13  15
ENDBRANCH  11  13
ENDBRANCH   9  11
ENDBRANCH   5   9
BRANCH   2  26
ATOM     26  O   UNL     1     111.495 130.478 137.746  0.00  0.00    +0.000 OA
BRANCH  26  34
ATOM     27  O   UNL     1     110.889 131.661 137.222  0.00  0.00    +0.000 OA
ATOM     28  O   UNL     1     110.088 132.254 139.487  0.00  0.00    +0.000 OA
ATOM     29  O   UNL     1     110.961 130.873 139.256  0.00  0.00    +0.000 OA
ATOM     30  O   UNL     1     109.750 133.239 138.209  0.00  0.00    +0.000 OA
ATOM     31  C   UNL     1     110.355 132.056 138.732  0.00  0.00    +0.000 C 
ATOM     32  C   UNL     1     110.791 131.366 138.617  0.00  0.00    +0.000 C 
ATOM     33  C   UNL     1     110.186 132.549 138.093  0.00  0.00    +0.000 C 
ATOM     34  C   UNL     1     111.058 131.168 137.862  0.00  0.00    +0.000 C 
ATOM     35  C   UNL     1     110.453 132.351 137.338  0.00  0.00    +0.000 C 
BRANCH  35  38
ATOM     36  O   UNL     1     110.814 133.440 136.486  0.00  0.00    +0.000 OA
ATOM     37  O   UNL     1     109.585 132.741 136.271  0.00  0.00    +0.000 OA
ATOM     38  C   UNL     1     110.284 132.844 136.698  0.00  0.00    +0.000 C 
ENDBRANCH  35  38
ENDBRANCH  26  34
ENDBRANCH   2  26
BRANCH   3  39
ATOM     39  C   UNL     1     112.530 129.667 136.749  0.00  0.00    +0.000 C 
BRANCH  39  40
ATOM     40  C   UNL     1     113.040 129.300 136.214  0.00  0.00    +0.000 C 
ATOM     41  C   UNL     1     113.847 129.465 136.233  0.00  0.00    +0.000 C 
ATOM     42  C   UNL     1     114.357 129.098 135.698  0.00  0.00    +0.000 C 
ATOM     43  C   UNL     1     114.147 129.996 136.789  0.00  0.00    +0.000 C 
ENDBRANCH  39  40
ENDBRANCH   3  39
TORSDOF 11
ENDMDL
MODEL 5
REMARK VINA RESULT:      -8.8      2.250      3.982
REMARK  Name = 131837168
REMARK  11 active torsions:
REMARK  status: ('A' for Active; 'I' for Inactive)
REMARK    1  A    between atoms: O_2  and  C_16
REMARK    2  A    between atoms: O_2  and  C_19
REMARK    3  A    between atoms: C_17  and  C_18
REMARK    4  A    between atoms: C_20  and  C_24
REMARK    5  A    between atoms: C_22  and  C_27
REMARK    6  A    between atoms: C_24  and  C_30
REMARK    7  A    between atoms: C_26  and  C_27
REMARK    8  A    between atoms: C_26  and  C_28
REMARK    9  A    between atoms: C_28  and  C_29
REMARK   10  A    between atoms: C_32  and  C_35
REMARK   11  A    between atoms: C_35  and  C_40
REMARK                            x       y       z     vdW  Elec       q    Type
REMARK                         _______ _______ _______ _____ _____    ______ ____
ROOT
ATOM      1  O   UNL     1     108.899 127.429 137.383  0.00  0.00    +0.000 OA
ATOM      2  C   UNL     1     110.085 129.021 136.475  0.00  0.00    +0.000 A 
ATOM      3  C   UNL     1     110.850 128.762 136.644  0.00  0.00    +0.000 A 
ATOM      4  C   UNL     1     109.435 128.577 136.721  0.00  0.00    +0.000 A 
ATOM      5  C   UNL     1     110.314 127.614 137.306  0.00  0.00    +0.000 A 
ATOM      6  C   UNL     1     110.964 128.059 137.060  0.00  0.00    +0.000 A 
ATOM      7  C   UNL     1     109.549 127.874 137.136  0.00  0.00    +0.000 A 
ENDROOT
BRANCH   5   9
ATOM      8  O   UNL     1     110.216 126.191 137.380  0.00  0.00    +0.000 OA
ATOM      9  C   UNL     1     110.428 126.911 137.722  0.00  0.00    +0.000 C 
BRANCH   9  11
ATOM     10  O   UNL     1     110.667 127.598 138.952  0.00  0.00    +0.000 OA
ATOM     11  C   UNL     1     110.755 126.928 138.479  0.00  0.00    +0.000 C 
BRANCH  11  13
ATOM     12  O   UNL     1     110.800 125.539 138.814  0.00  0.00    +0.000 OA
ATOM     13  C   UNL     1     111.171 126.275 138.764  0.00  0.00    +0.000 C 
BRANCH  13  15
ATOM     14  O   UNL     1     114.320 126.598 139.698  0.00  0.00    +0.000 OA
ATOM     15  C   UNL     1     111.958 126.356 138.998  0.00  0.00    +0.000 A 
ATOM     16  C   UNL     1     112.559 126.015 138.546  0.00  0.00    +0.000 A 
ATOM     17  C   UNL     1     113.346 126.096 138.780  0.00  0.00    +0.000 A 
ATOM     18  C   UNL     1     112.144 126.778 139.682  0.00  0.00    +0.000 A 
ATOM     19  C   UNL     1     113.532 126.518 139.465  0.00  0.00    +0.000 A 
ATOM     20  C   UNL     1     112.932 126.859 139.915  0.00  0.00    +0.000 A 
BRANCH  17  21
ATOM     21  C   UNL     1     113.948 125.755 138.329  0.00  0.00    +0.000 C 
BRANCH  21  22
ATOM     22  C   UNL     1     113.948 125.843 137.509  0.00  0.00    +0.000 C 
ATOM     23  C   UNL     1     114.421 125.354 137.042  0.00  0.00    +0.000 C 
ATOM     24  C   UNL     1     114.422 125.443 136.222  0.00  0.00    +0.000 C 
ATOM     25  C   UNL     1     114.893 124.777 137.395  0.00  0.00    +0.000 C 
ENDBRANCH  21  22
ENDBRANCH  17  21
ENDBRANCH  13  15
ENDBRANCH  11  13
ENDBRANCH   9  11
ENDBRANCH   5   9
BRANCH   2  26
ATOM     26  O   UNL     1     109.971 129.724 136.059  0.00  0.00    +0.000 OA
BRANCH  26  34
ATOM     27  O   UNL     1     109.397 130.565 137.062  0.00  0.00    +0.000 OA
ATOM     28  O   UNL     1     107.606 131.224 135.486  0.00  0.00    +0.000 OA
ATOM     29  O   UNL     1     108.776 130.163 135.008  0.00  0.00    +0.000 OA
ATOM     30  O   UNL     1     107.630 131.844 137.014  0.00  0.00    +0.000 OA
ATOM     31  C   UNL     1     108.203 131.004 136.011  0.00  0.00    +0.000 C 
ATOM     32  C   UNL     1     108.788 130.474 135.772  0.00  0.00    +0.000 C 
ATOM     33  C   UNL     1     108.215 131.314 136.775  0.00  0.00    +0.000 C 
ATOM     34  C   UNL     1     109.385 130.254 136.297  0.00  0.00    +0.000 C 
ATOM     35  C   UNL     1     108.812 131.095 137.300  0.00  0.00    +0.000 C 
BRANCH  35  38
ATOM     36  O   UNL     1     108.378 131.049 138.661  0.00  0.00    +0.000 OA
ATOM     37  O   UNL     1     109.281 132.071 138.233  0.00  0.00    +0.000 OA
ATOM     38  C   UNL     1     108.824 131.405 138.065  0.00  0.00    +0.000 C 
ENDBRANCH  35  38
ENDBRANCH  26  34
ENDBRANCH   2  26
BRANCH   3  39
ATOM     39  C   UNL     1     111.500 129.205 136.398  0.00  0.00    +0.000 C 
BRANCH  39  40
ATOM     40  C   UNL     1     112.170 128.827 136.100  0.00  0.00    +0.000 C 
ATOM     41  C   UNL     1     112.880 129.239 136.030  0.00  0.00    +0.000 C 
ATOM     42  C   UNL     1     113.550 128.861 135.733  0.00  0.00    +0.000 C 
ATOM     43  C   UNL     1     112.922 130.031 136.259  0.00  0.00    +0.000 C 
ENDBRANCH  39  40
ENDBRANCH   3  39
TORSDOF 11
ENDMDL
MODEL 6
REMARK VINA RESULT:      -8.8      1.726      3.274
REMARK  Name = 131837168
REMARK  11 active torsions:
REMARK  status: ('A' for Active; 'I' for Inactive)
REMARK    1  A    between atoms: O_2  and  C_16
REMARK    2  A    between atoms: O_2  and  C_19
REMARK    3  A    between atoms: C_17  and  C_18
REMARK    4  A    between atoms: C_20  and  C_24
REMARK    5  A    between atoms: C_22  and  C_27
REMARK    6  A    between atoms: C_24  and  C_30
REMARK    7  A    between atoms: C_26  and  C_27
REMARK    8  A    between atoms: C_26  and  C_28
REMARK    9  A    between atoms: C_28  and  C_29
REMARK   10  A    between atoms: C_32  and  C_35
REMARK   11  A    between atoms: C_35  and  C_40
REMARK                            x       y       z     vdW  Elec       q    Type
REMARK                         _______ _______ _______ _____ _____    ______ ____
ROOT
ATOM      1  O   UNL     1     111.609 129.194 139.904  0.00  0.00    +0.000 OA
ATOM      2  C   UNL     1     111.649 129.861 137.826  0.00  0.00    +0.000 A 
ATOM      3  C   UNL     1     111.842 129.158 137.439  0.00  0.00    +0.000 A 
ATOM      4  C   UNL     1     111.571 129.873 138.647  0.00  0.00    +0.000 A 
ATOM      5  C   UNL     1     111.880 128.479 138.696  0.00  0.00    +0.000 A 
ATOM      6  C   UNL     1     111.958 128.467 137.874  0.00  0.00    +0.000 A 
ATOM      7  C   UNL     1     111.687 129.182 139.082  0.00  0.00    +0.000 A 
ENDROOT
BRANCH   5   9
ATOM      8  O   UNL     1     111.366 127.450 139.544  0.00  0.00    +0.000 OA
ATOM      9  C   UNL     1     111.996 127.788 139.132  0.00  0.00    +0.000 C 
BRANCH   9  11
ATOM     10  O   UNL     1     113.420 127.898 139.086  0.00  0.00    +0.000 OA
ATOM     11  C   UNL     1     112.741 127.434 139.154  0.00  0.00    +0.000 C 
BRANCH  11  13
ATOM     12  O   UNL     1     112.431 126.240 139.875  0.00  0.00    +0.000 OA
ATOM     13  C   UNL     1     112.807 126.617 139.245  0.00  0.00    +0.000 C 
BRANCH  13  15
ATOM     14  O   UNL     1     114.573 124.852 137.087  0.00  0.00    +0.000 OA
ATOM     15  C   UNL     1     113.249 126.176 138.706  0.00  0.00    +0.000 A 
ATOM     16  C   UNL     1     112.866 125.731 138.125  0.00  0.00    +0.000 A 
ATOM     17  C   UNL     1     113.308 125.290 137.586  0.00  0.00    +0.000 A 
ATOM     18  C   UNL     1     114.073 126.180 138.746  0.00  0.00    +0.000 A 
ATOM     19  C   UNL     1     114.132 125.294 137.627  0.00  0.00    +0.000 A 
ATOM     20  C   UNL     1     114.514 125.738 138.206  0.00  0.00    +0.000 A 
BRANCH  17  21
ATOM     21  C   UNL     1     112.925 124.844 137.006  0.00  0.00    +0.000 C 
BRANCH  21  22
ATOM     22  C   UNL     1     112.287 125.166 136.594  0.00  0.00    +0.000 C 
ATOM     23  C   UNL     1     111.794 124.676 136.150  0.00  0.00    +0.000 C 
ATOM     24  C   UNL     1     111.156 124.998 135.738  0.00  0.00    +0.000 C 
ATOM     25  C   UNL     1     111.939 123.864 136.118  0.00  0.00    +0.000 C 
ENDBRANCH  21  22
ENDBRANCH  17  21
ENDBRANCH  13  15
ENDBRANCH  11  13
ENDBRANCH   9  11
ENDBRANCH   5   9
BRANCH   2  26
ATOM     26  O   UNL     1     111.534 130.553 137.391  0.00  0.00    +0.000 OA
BRANCH  26  34
ATOM     27  O   UNL     1     110.127 130.717 137.579  0.00  0.00    +0.000 OA
ATOM     28  O   UNL     1     110.463 133.137 137.977  0.00  0.00    +0.000 OA
ATOM     29  O   UNL     1     111.758 132.166 137.656  0.00  0.00    +0.000 OA
ATOM     30  O   UNL     1     108.945 132.494 138.033  0.00  0.00    +0.000 OA
ATOM     31  C   UNL     1     110.351 132.330 137.844  0.00  0.00    +0.000 C 
ATOM     32  C   UNL     1     110.999 131.845 137.684  0.00  0.00    +0.000 C 
ATOM     33  C   UNL     1     109.592 132.010 137.872  0.00  0.00    +0.000 C 
ATOM     34  C   UNL     1     110.887 131.039 137.551  0.00  0.00    +0.000 C 
ATOM     35  C   UNL     1     109.480 131.203 137.740  0.00  0.00    +0.000 C 
BRANCH  35  38
ATOM     36  O   UNL     1     108.384 130.684 138.495  0.00  0.00    +0.000 OA
ATOM     37  O   UNL     1     108.299 130.757 137.070  0.00  0.00    +0.000 OA
ATOM     38  C   UNL     1     108.721 130.881 137.768  0.00  0.00    +0.000 C 
ENDBRANCH  35  38
ENDBRANCH  26  34
ENDBRANCH   2  26
BRANCH   3  39
ATOM     39  C   UNL     1     111.920 129.146 136.619  0.00  0.00    +0.000 C 
BRANCH  39  40
ATOM     40  C   UNL     1     112.614 128.863 136.273  0.00  0.00    +0.000 C 
ATOM     41  C   UNL     1     112.631 128.683 135.469  0.00  0.00    +0.000 C 
ATOM     42  C   UNL     1     113.325 128.400 135.124  0.00  0.00    +0.000 C 
ATOM     43  C   UNL     1     111.954 128.785 135.009  0.00  0.00    +0.000 C 
ENDBRANCH  39  40
ENDBRANCH   3  39
TORSDOF 11
ENDMDL
MODEL 7
REMARK VINA RESULT:      -8.8      1.935      3.600
REMARK  Name = 131837168
REMARK  11 active torsions:
REMARK  status: ('A' for Active; 'I' for Inactive)
REMARK    1  A    between atoms: O_2  and  C_16
REMARK    2  A    between atoms: O_2  and  C_19
REMARK    3  A    between atoms: C_17  and  C_18
REMARK    4  A    between atoms: C_20  and  C_24
REMARK    5  A    between atoms: C_22  and  C_27
REMARK    6  A    between atoms: C_24  and  C_30
REMARK    7  A    between atoms: C_26  and  C_27
REMARK    8  A    between atoms: C_26  and  C_28
REMARK    9  A    between atoms: C_28  and  C_29
REMARK   10  A    between atoms: C_32  and  C_35
REMARK   11  A    between atoms: C_35  and  C_40
REMARK                            x       y       z     vdW  Elec       q    Type
REMARK                         _______ _______ _______ _____ _____    ______ ____
ROOT
ATOM      1  O   UNL     1     113.704 126.682 140.206  0.00  0.00    +0.000 OA
ATOM      2  C   UNL     1     112.781 128.417 139.257  0.00  0.00    +0.000 A 
ATOM      3  C   UNL     1     112.830 128.205 138.461  0.00  0.00    +0.000 A 
ATOM      4  C   UNL     1     113.072 127.911 139.838  0.00  0.00    +0.000 A 
ATOM      5  C   UNL     1     113.461 126.976 138.829  0.00  0.00    +0.000 A 
ATOM      6  C   UNL     1     113.170 127.484 138.247  0.00  0.00    +0.000 A 
ATOM      7  C   UNL     1     113.412 127.190 139.624  0.00  0.00    +0.000 A 
ENDROOT
BRANCH   5   9
ATOM      8  O   UNL     1     114.609 126.132 138.726  0.00  0.00    +0.000 OA
ATOM      9  C   UNL     1     113.801 126.256 138.615  0.00  0.00    +0.000 C 
BRANCH   9  11
ATOM     10  O   UNL     1     112.632 125.436 138.662  0.00  0.00    +0.000 OA
ATOM     11  C   UNL     1     113.333 125.659 138.290  0.00  0.00    +0.000 C 
BRANCH  11  13
ATOM     12  O   UNL     1     114.333 125.391 137.304  0.00  0.00    +0.000 OA
ATOM     13  C   UNL     1     113.566 125.287 137.592  0.00  0.00    +0.000 C 
BRANCH  13  15
ATOM     14  O   UNL     1     111.433 123.381 135.945  0.00  0.00    +0.000 OA
ATOM     15  C   UNL     1     113.033 124.810 137.180  0.00  0.00    +0.000 A 
ATOM     16  C   UNL     1     112.484 125.152 136.668  0.00  0.00    +0.000 A 
ATOM     17  C   UNL     1     111.951 124.675 136.256  0.00  0.00    +0.000 A 
ATOM     18  C   UNL     1     113.049 123.991 137.281  0.00  0.00    +0.000 A 
ATOM     19  C   UNL     1     111.967 123.857 136.357  0.00  0.00    +0.000 A 
ATOM     20  C   UNL     1     112.515 123.515 136.869  0.00  0.00    +0.000 A 
BRANCH  17  21
ATOM     21  C   UNL     1     111.402 125.018 135.743  0.00  0.00    +0.000 C 
BRANCH  21  22
ATOM     22  C   UNL     1     110.832 125.536 136.037  0.00  0.00    +0.000 C 
ATOM     23  C   UNL     1     110.360 125.969 135.516  0.00  0.00    +0.000 C 
ATOM     24  C   UNL     1     109.790 126.487 135.810  0.00  0.00    +0.000 C 
ATOM     25  C   UNL     1     110.460 125.883 134.701  0.00  0.00    +0.000 C 
ENDBRANCH  21  22
ENDBRANCH  17  21
ENDBRANCH  13  15
ENDBRANCH  11  13
ENDBRANCH   9  11
ENDBRANCH   5   9
BRANCH   2  26
ATOM     26  O   UNL     1     112.441 129.138 139.471  0.00  0.00    +0.000 OA
BRANCH  26  34
ATOM     27  O   UNL     1     113.579 129.868 139.933  0.00  0.00    +0.000 OA
ATOM     28  O   UNL     1     112.333 130.521 141.969  0.00  0.00    +0.000 OA
ATOM     29  O   UNL     1     111.610 129.574 140.828  0.00  0.00    +0.000 OA
ATOM     30  O   UNL     1     113.886 131.033 141.753  0.00  0.00    +0.000 OA
ATOM     31  C   UNL     1     112.749 130.303 141.291  0.00  0.00    +0.000 C 
ATOM     32  C   UNL     1     112.387 129.829 140.720  0.00  0.00    +0.000 C 
ATOM     33  C   UNL     1     113.525 130.559 141.183  0.00  0.00    +0.000 C 
ATOM     34  C   UNL     1     112.802 129.612 140.041  0.00  0.00    +0.000 C 
ATOM     35  C   UNL     1     113.940 130.341 140.504  0.00  0.00    +0.000 C 
BRANCH  35  38
ATOM     36  O   UNL     1     114.864 131.339 140.065  0.00  0.00    +0.000 OA
ATOM     37  O   UNL     1     115.346 130.112 140.616  0.00  0.00    +0.000 OA
ATOM     38  C   UNL     1     114.717 130.597 140.395  0.00  0.00    +0.000 C 
ENDBRANCH  35  38
ENDBRANCH  26  34
ENDBRANCH   2  26
BRANCH   3  39
ATOM     39  C   UNL     1     112.538 128.712 137.880  0.00  0.00    +0.000 C 
BRANCH  39  40
ATOM     40  C   UNL     1     112.780 128.624 137.095  0.00  0.00    +0.000 C 
ATOM     41  C   UNL     1     112.392 129.035 136.495  0.00  0.00    +0.000 C 
ATOM     42  C   UNL     1     112.634 128.947 135.711  0.00  0.00    +0.000 C 
ATOM     43  C   UNL     1     111.762 129.534 136.678  0.00  0.00    +0.000 C 
ENDBRANCH  39  40
ENDBRANCH   3  39
TORSDOF 11
ENDMDL
MODEL 8
REMARK VINA RESULT:      -8.7      2.085      3.270
REMARK  Name = 131837168
REMARK  11 active torsions:
REMARK  status: ('A' for Active; 'I' for Inactive)
REMARK    1  A    between atoms: O_2  and  C_16
REMARK    2  A    between atoms: O_2  and  C_19
REMARK    3  A    between atoms: C_17  and  C_18
REMARK    4  A    between atoms: C_20  and  C_24
REMARK    5  A    between atoms: C_22  and  C_27
REMARK    6  A    between atoms: C_24  and  C_30
REMARK    7  A    between atoms: C_26  and  C_27
REMARK    8  A    between atoms: C_26  and  C_28
REMARK    9  A    between atoms: C_28  and  C_29
REMARK   10  A    between atoms: C_32  and  C_35
REMARK   11  A    between atoms: C_35  and  C_40
REMARK                            x       y       z     vdW  Elec       q    Type
REMARK                         _______ _______ _______ _____ _____    ______ ____
ROOT
ATOM      1  O   UNL     1     114.055 126.462 140.337  0.00  0.00    +0.000 OA
ATOM      2  C   UNL     1     112.832 128.216 139.897  0.00  0.00    +0.000 A 
ATOM      3  C   UNL     1     112.715 128.126 139.085  0.00  0.00    +0.000 A 
ATOM      4  C   UNL     1     113.278 127.662 140.314  0.00  0.00    +0.000 A 
ATOM      5  C   UNL     1     113.492 126.926 139.108  0.00  0.00    +0.000 A 
ATOM      6  C   UNL     1     113.045 127.481 138.690  0.00  0.00    +0.000 A 
ATOM      7  C   UNL     1     113.608 127.017 139.919  0.00  0.00    +0.000 A 
ENDROOT
BRANCH   5   9
ATOM      8  O   UNL     1     114.640 126.182 138.697  0.00  0.00    +0.000 OA
ATOM      9  C   UNL     1     113.821 126.281 138.713  0.00  0.00    +0.000 C 
BRANCH   9  11
ATOM     10  O   UNL     1     112.670 125.435 138.724  0.00  0.00    +0.000 OA
ATOM     11  C   UNL     1     113.332 125.734 138.335  0.00  0.00    +0.000 C 
BRANCH  11  13
ATOM     12  O   UNL     1     114.198 125.744 137.198  0.00  0.00    +0.000 OA
ATOM     13  C   UNL     1     113.505 125.488 137.567  0.00  0.00    +0.000 C 
BRANCH  13  15
ATOM     14  O   UNL     1     111.431 123.481 135.968  0.00  0.00    +0.000 OA
ATOM     15  C   UNL     1     112.987 124.986 137.168  0.00  0.00    +0.000 A 
ATOM     16  C   UNL     1     112.407 125.302 136.673  0.00  0.00    +0.000 A 
ATOM     17  C   UNL     1     111.888 124.800 136.273  0.00  0.00    +0.000 A 
ATOM     18  C   UNL     1     113.048 124.169 137.263  0.00  0.00    +0.000 A 
ATOM     19  C   UNL     1     111.950 123.982 136.368  0.00  0.00    +0.000 A 
ATOM     20  C   UNL     1     112.529 123.667 136.862  0.00  0.00    +0.000 A 
BRANCH  17  21
ATOM     21  C   UNL     1     111.308 125.115 135.778  0.00  0.00    +0.000 C 
BRANCH  21  22
ATOM     22  C   UNL     1     110.787 125.686 136.066  0.00  0.00    +0.000 C 
ATOM     23  C   UNL     1     110.271 126.072 135.549  0.00  0.00    +0.000 C 
ATOM     24  C   UNL     1     109.750 126.643 135.838  0.00  0.00    +0.000 C 
ATOM     25  C   UNL     1     110.278 125.888 134.745  0.00  0.00    +0.000 C 
ENDBRANCH  21  22
ENDBRANCH  17  21
ENDBRANCH  13  15
ENDBRANCH  11  13
ENDBRANCH   9  11
ENDBRANCH   5   9
BRANCH   2  26
ATOM     26  O   UNL     1     112.502 128.861 140.291  0.00  0.00    +0.000 OA
BRANCH  26  34
ATOM     27  O   UNL     1     111.471 128.214 141.040  0.00  0.00    +0.000 OA
ATOM     28  O   UNL     1     112.143 129.477 143.059  0.00  0.00    +0.000 OA
ATOM     29  O   UNL     1     112.950 129.704 141.637  0.00  0.00    +0.000 OA
ATOM     30  O   UNL     1     110.889 128.409 143.134  0.00  0.00    +0.000 OA
ATOM     31  C   UNL     1     111.919 129.056 142.386  0.00  0.00    +0.000 C 
ATOM     32  C   UNL     1     112.323 129.170 141.675  0.00  0.00    +0.000 C 
ATOM     33  C   UNL     1     111.292 128.522 142.424  0.00  0.00    +0.000 C 
ATOM     34  C   UNL     1     112.099 128.748 141.002  0.00  0.00    +0.000 C 
ATOM     35  C   UNL     1     111.068 128.101 141.751  0.00  0.00    +0.000 C 
BRANCH  35  38
ATOM     36  O   UNL     1     110.581 126.781 142.000  0.00  0.00    +0.000 OA
ATOM     37  O   UNL     1     109.674 127.816 141.613  0.00  0.00    +0.000 OA
ATOM     38  C   UNL     1     110.441 127.567 141.788  0.00  0.00    +0.000 C 
ENDBRANCH  35  38
ENDBRANCH  26  34
ENDBRANCH   2  26
BRANCH   3  39
ATOM     39  C   UNL     1     112.269 128.679 138.668  0.00  0.00    +0.000 C 
BRANCH  39  40
ATOM     40  C   UNL     1     112.453 128.852 137.882  0.00  0.00    +0.000 C 
ATOM     41  C   UNL     1     111.917 129.267 137.414  0.00  0.00    +0.000 C 
ATOM     42  C   UNL     1     112.101 129.440 136.628  0.00  0.00    +0.000 C 
ATOM     43  C   UNL     1     111.195 129.511 137.731  0.00  0.00    +0.000 C 
ENDBRANCH  39  40
ENDBRANCH   3  39
TORSDOF 11
ENDMDL
MODEL 9
REMARK VINA RESULT:      -8.7      8.612     11.341
REMARK  Name = 131837168
REMARK  11 active torsions:
REMARK  status: ('A' for Active; 'I' for Inactive)
REMARK    1  A    between atoms: O_2  and  C_16
REMARK    2  A    between atoms: O_2  and  C_19
REMARK    3  A    between atoms: C_17  and  C_18
REMARK    4  A    between atoms: C_20  and  C_24
REMARK    5  A    between atoms: C_22  and  C_27
REMARK    6  A    between atoms: C_24  and  C_30
REMARK    7  A    between atoms: C_26  and  C_27
REMARK    8  A    between atoms: C_26  and  C_28
REMARK    9  A    between atoms: C_28  and  C_29
REMARK   10  A    between atoms: C_32  and  C_35
REMARK   11  A    between atoms: C_35  and  C_40
REMARK                            x       y       z     vdW  Elec       q    Type
REMARK                         _______ _______ _______ _____ _____    ______ ____
ROOT
ATOM      1  O   UNL     1     105.743 124.264 145.956  0.00  0.00    +0.000 OA
ATOM      2  C   UNL     1     104.613 125.652 147.206  0.00  0.00    +0.000 A 
ATOM      3  C   UNL     1     104.828 126.375 146.872  0.00  0.00    +0.000 A 
ATOM      4  C   UNL     1     104.917 124.949 146.901  0.00  0.00    +0.000 A 
ATOM      5  C   UNL     1     105.654 125.690 145.927  0.00  0.00    +0.000 A 
ATOM      6  C   UNL     1     105.349 126.394 146.232  0.00  0.00    +0.000 A 
ATOM      7  C   UNL     1     105.438 124.968 146.262  0.00  0.00    +0.000 A 
ENDROOT
BRANCH   5   9
ATOM      8  O   UNL     1     106.973 125.540 145.400  0.00  0.00    +0.000 OA
ATOM      9  C   UNL     1     106.174 125.709 145.287  0.00  0.00    +0.000 C 
BRANCH   9  11
ATOM     10  O   UNL     1     105.194 125.562 144.257  0.00  0.00    +0.000 OA
ATOM     11  C   UNL     1     105.895 125.898 144.534  0.00  0.00    +0.000 C 
BRANCH  11  13
ATOM     12  O   UNL     1     107.083 126.647 144.268  0.00  0.00    +0.000 OA
ATOM     13  C   UNL     1     106.317 126.423 144.057  0.00  0.00    +0.000 C 
BRANCH  13  15
ATOM     14  O   UNL     1     104.945 127.628 141.309  0.00  0.00    +0.000 OA
ATOM     15  C   UNL     1     105.974 126.723 143.370  0.00  0.00    +0.000 A 
ATOM     16  C   UNL     1     105.554 127.433 143.396  0.00  0.00    +0.000 A 
ATOM     17  C   UNL     1     105.211 127.734 142.709  0.00  0.00    +0.000 A 
ATOM     18  C   UNL     1     106.051 126.315 142.657  0.00  0.00    +0.000 A 
ATOM     19  C   UNL     1     105.288 127.326 141.996  0.00  0.00    +0.000 A 
ATOM     20  C   UNL     1     105.708 126.617 141.970  0.00  0.00    +0.000 A 
BRANCH  17  21
ATOM     21  C   UNL     1     104.790 128.444 142.734  0.00  0.00    +0.000 C 
BRANCH  21  22
ATOM     22  C   UNL     1     104.779 128.891 143.428  0.00  0.00    +0.000 C 
ATOM     23  C   UNL     1     104.294 129.557 143.481  0.00  0.00    +0.000 C 
ATOM     24  C   UNL     1     104.282 130.004 144.174  0.00  0.00    +0.000 C 
ATOM     25  C   UNL     1     103.821 129.775 142.841  0.00  0.00    +0.000 C 
ENDBRANCH  21  22
ENDBRANCH  17  21
ENDBRANCH  13  15
ENDBRANCH  11  13
ENDBRANCH   9  11
ENDBRANCH   5   9
BRANCH   2  26
ATOM     26  O   UNL     1     104.092 125.632 147.846  0.00  0.00    +0.000 OA
BRANCH  26  34
ATOM     27  O   UNL     1     102.994 124.940 147.249  0.00  0.00    +0.000 OA
ATOM     28  O   UNL     1     102.779 123.534 149.274  0.00  0.00    +0.000 OA
ATOM     29  O   UNL     1     103.949 124.695 149.196  0.00  0.00    +0.000 OA
ATOM     30  O   UNL     1     101.753 123.311 148.002  0.00  0.00    +0.000 OA
ATOM     31  C   UNL     1     102.851 124.003 148.599  0.00  0.00    +0.000 C 
ATOM     32  C   UNL     1     103.436 124.583 148.561  0.00  0.00    +0.000 C 
ATOM     33  C   UNL     1     102.338 123.891 147.963  0.00  0.00    +0.000 C 
ATOM     34  C   UNL     1     103.508 125.052 147.885  0.00  0.00    +0.000 C 
ATOM     35  C   UNL     1     102.409 124.360 147.288  0.00  0.00    +0.000 C 
BRANCH  35  38
ATOM     36  O   UNL     1     101.164 124.629 146.642  0.00  0.00    +0.000 OA
ATOM     37  O   UNL     1     102.116 123.758 146.026  0.00  0.00    +0.000 OA
ATOM     38  C   UNL     1     101.897 124.248 146.652  0.00  0.00    +0.000 C 
ENDBRANCH  35  38
ENDBRANCH  26  34
ENDBRANCH   2  26
BRANCH   3  39
ATOM     39  C   UNL     1     104.524 127.077 147.177  0.00  0.00    +0.000 C 
BRANCH  39  40
ATOM     40  C   UNL     1     105.009 127.741 147.248  0.00  0.00    +0.000 C 
ATOM     41  C   UNL     1     104.687 128.466 147.473  0.00  0.00    +0.000 C 
ATOM     42  C   UNL     1     105.172 129.130 147.545  0.00  0.00    +0.000 C 
ATOM     43  C   UNL     1     103.879 128.528 147.626  0.00  0.00    +0.000 C 
ENDBRANCH  39  40
ENDBRANCH   3  39
TORSDOF 11
ENDMDL
MODEL 10
REMARK VINA RESULT:      -8.7      2.220      3.472
REMARK  Name = 131837168
REMARK  11 active torsions:
REMARK  status: ('A' for Active; 'I' for Inactive)
REMARK    1  A    between atoms: O_2  and  C_16
REMARK    2  A    between atoms: O_2  and  C_19
REMARK    3  A    between atoms: C_17  and  C_18
REMARK    4  A    between atoms: C_20  and  C_24
REMARK    5  A    between atoms: C_22  and  C_27
REMARK    6  A    between atoms: C_24  and  C_30
REMARK    7  A    between atoms: C_26  and  C_27
REMARK    8  A    between atoms: C_26  and  C_28
REMARK    9  A    between atoms: C_28  and  C_29
REMARK   10  A    between atoms: C_32  and  C_35
REMARK   11  A    between atoms: C_35  and  C_40
REMARK                            x       y       z     vdW  Elec       q    Type
REMARK                         _______ _______ _______ _____ _____    ______ ____
ROOT
ATOM      1  O   UNL     1     112.449 126.506 140.679  0.00  0.00    +0.000 OA
ATOM      2  C   UNL     1     110.874 127.885 140.060  0.00  0.00    +0.000 A 
ATOM      3  C   UNL     1     111.006 127.918 139.246  0.00  0.00    +0.000 A 
ATOM      4  C   UNL     1     111.354 127.414 140.537  0.00  0.00    +0.000 A 
ATOM      5  C   UNL     1     112.101 127.010 139.387  0.00  0.00    +0.000 A 
ATOM      6  C   UNL     1     111.620 127.481 138.910  0.00  0.00    +0.000 A 
ATOM      7  C   UNL     1     111.968 126.977 140.201  0.00  0.00    +0.000 A 
ENDROOT
BRANCH   5   9
ATOM      8  O   UNL     1     113.496 126.810 139.157  0.00  0.00    +0.000 OA
ATOM      9  C   UNL     1     112.714 126.572 139.051  0.00  0.00    +0.000 C 
BRANCH   9  11
ATOM     10  O   UNL     1     112.009 125.339 138.897  0.00  0.00    +0.000 OA
ATOM     11  C   UNL     1     112.544 125.896 138.610  0.00  0.00    +0.000 C 
BRANCH  11  13
ATOM     12  O   UNL     1     113.592 126.202 137.687  0.00  0.00    +0.000 OA
ATOM     13  C   UNL     1     112.911 125.778 137.880  0.00  0.00    +0.000 C 
BRANCH  13  15
ATOM     14  O   UNL     1     111.652 123.613 135.730  0.00  0.00    +0.000 OA
ATOM     15  C   UNL     1     112.597 125.236 137.343  0.00  0.00    +0.000 A 
ATOM     16  C   UNL     1     111.993 125.468 136.829  0.00  0.00    +0.000 A 
ATOM     17  C   UNL     1     111.679 124.926 136.292  0.00  0.00    +0.000 A 
ATOM     18  C   UNL     1     112.885 124.464 137.319  0.00  0.00    +0.000 A 
ATOM     19  C   UNL     1     111.967 124.154 136.268  0.00  0.00    +0.000 A 
ATOM     20  C   UNL     1     112.570 123.923 136.781  0.00  0.00    +0.000 A 
BRANCH  17  21
ATOM     21  C   UNL     1     111.075 125.158 135.779  0.00  0.00    +0.000 C 
BRANCH  21  22
ATOM     22  C   UNL     1     111.112 125.892 135.405  0.00  0.00    +0.000 C 
ATOM     23  C   UNL     1     110.458 126.175 134.986  0.00  0.00    +0.000 C 
ATOM     24  C   UNL     1     110.495 126.909 134.612  0.00  0.00    +0.000 C 
ATOM     25  C   UNL     1     109.770 125.723 134.942  0.00  0.00    +0.000 C 
ENDBRANCH  21  22
ENDBRANCH  17  21
ENDBRANCH  13  15
ENDBRANCH  11  13
ENDBRANCH   9  11
ENDBRANCH   5   9
BRANCH   2  26
ATOM     26  O   UNL     1     110.261 128.322 140.396  0.00  0.00    +0.000 OA
BRANCH  26  34
ATOM     27  O   UNL     1     109.359 127.258 140.706  0.00  0.00    +0.000 OA
ATOM     28  O   UNL     1     108.907 128.285 142.912  0.00  0.00    +0.000 OA
ATOM     29  O   UNL     1     109.959 129.007 141.866  0.00  0.00    +0.000 OA
ATOM     30  O   UNL     1     108.157 126.879 142.487  0.00  0.00    +0.000 OA
ATOM     31  C   UNL     1     109.058 127.942 142.177  0.00  0.00    +0.000 C 
ATOM     32  C   UNL     1     109.584 128.304 141.654  0.00  0.00    +0.000 C 
ATOM     33  C   UNL     1     108.683 127.240 141.965  0.00  0.00    +0.000 C 
ATOM     34  C   UNL     1     109.735 127.962 140.919  0.00  0.00    +0.000 C 
ATOM     35  C   UNL     1     108.833 126.898 141.229  0.00  0.00    +0.000 C 
BRANCH  35  38
ATOM     36  O   UNL     1     108.758 125.471 141.280  0.00  0.00    +0.000 OA
ATOM     37  O   UNL     1     107.784 126.213 140.541  0.00  0.00    +0.000 OA
ATOM     38  C   UNL     1     108.458 126.194 141.016  0.00  0.00    +0.000 C 
ENDBRANCH  35  38
ENDBRANCH  26  34
ENDBRANCH   2  26
BRANCH   3  39
ATOM     39  C   UNL     1     110.526 128.389 138.768  0.00  0.00    +0.000 C 
BRANCH  39  40
ATOM     40  C   UNL     1     110.859 128.835 138.159  0.00  0.00    +0.000 C 
ATOM     41  C   UNL     1     110.377 129.161 137.575  0.00  0.00    +0.000 C 
ATOM     42  C   UNL     1     110.710 129.606 136.966  0.00  0.00    +0.000 C 
ATOM     43  C   UNL     1     109.561 129.042 137.600  0.00  0.00    +0.000 C 
ENDBRANCH  39  40
ENDBRANCH   3  39
TORSDOF 11
ENDMDL
