MODEL 1
REMARK VINA RESULT:      -8.5      0.000      0.000
REMARK  Name = 44260068
REMARK  5 active torsions:
REMARK  status: ('A' for Active; 'I' for Inactive)
REMARK    1  A    between atoms: O_2  and  C_13
REMARK    2  A    between atoms: O_3  and  C_14
REMARK    3  A    between atoms: O_4  and  C_18
REMARK    4  A    between atoms: O_8  and  C_24
REMARK    5  A    between atoms: C_12  and  C_17
REMARK                            x       y       z     vdW  Elec       q    Type
REMARK                         _______ _______ _______ _____ _____    ______ ____
ROOT
ATOM      1  O   UNL     1     105.094 124.439 147.465  0.00  0.00    +0.000 OA
ATOM      2  O   UNL     1     107.544 125.466 146.316  0.00  0.00    +0.000 OA
ATOM      3  O   UNL     1     108.260 125.431 147.802  0.00  0.00    +0.000 OA
ATOM      4  O   UNL     1     106.407 125.245 145.455  0.00  0.00    +0.000 OA
ATOM      5  C   UNL     1     106.336 124.959 146.885  0.00  0.00    +0.000 A 
ATOM      6  C   UNL     1     105.910 124.697 147.542  0.00  0.00    +0.000 A 
ATOM      7  C   UNL     1     104.716 124.455 146.693  0.00  0.00    +0.000 A 
ATOM      8  C   UNL     1     106.268 124.680 148.285  0.00  0.00    +0.000 A 
ATOM      9  C   UNL     1     105.159 124.728 146.009  0.00  0.00    +0.000 A 
ATOM     10  C   UNL     1     105.974 124.981 146.106  0.00  0.00    +0.000 A 
ATOM     11  C   UNL     1     107.119 125.204 146.972  0.00  0.00    +0.000 A 
ATOM     12  C   UNL     1     107.051 124.924 148.372  0.00  0.00    +0.000 A 
ATOM     13  C   UNL     1     107.477 125.186 147.715  0.00  0.00    +0.000 A 
ENDROOT
BRANCH   7  15
ATOM     14  O   UNL     1     101.920 124.951 147.013  0.00  0.00    +0.000 OA
ATOM     15  C   UNL     1     103.932 124.209 146.609  0.00  0.00    +0.000 A 
ATOM     16  C   UNL     1     103.317 124.703 146.853  0.00  0.00    +0.000 A 
ATOM     17  C   UNL     1     103.764 123.471 146.281  0.00  0.00    +0.000 A 
ATOM     18  C   UNL     1     102.535 124.458 146.769  0.00  0.00    +0.000 A 
ATOM     19  C   UNL     1     102.980 123.226 146.198  0.00  0.00    +0.000 A 
ATOM     20  C   UNL     1     102.366 123.719 146.441  0.00  0.00    +0.000 A 
BRANCH  20  21
ATOM     21  O   UNL     1     101.583 123.475 146.358  0.00  0.00    +0.000 OA
ATOM     22  C   UNL     1     101.413 122.755 145.992  0.00  0.00    +0.000 C 
ENDBRANCH  20  21
ENDBRANCH   7  15
BRANCH   8  23
ATOM     23  O   UNL     1     105.843 124.417 148.942  0.00  0.00    +0.000 OA
ATOM     24  C   UNL     1     105.574 124.960 149.501  0.00  0.00    +0.000 C 
ENDBRANCH   8  23
BRANCH   9  25
ATOM     25  O   UNL     1     104.804 124.746 145.264  0.00  0.00    +0.000 OA
ATOM     26  C   UNL     1     105.254 124.929 144.597  0.00  0.00    +0.000 C 
ENDBRANCH   9  25
BRANCH  12  27
ATOM     27  O   UNL     1     107.409 124.907 149.115  0.00  0.00    +0.000 OA
ATOM     28  C   UNL     1     107.994 124.350 149.279  0.00  0.00    +0.000 C 
ENDBRANCH  12  27
TORSDOF 5
ENDMDL
MODEL 2
REMARK VINA RESULT:      -7.8      1.525      1.963
REMARK  Name = 44260068
REMARK  5 active torsions:
REMARK  status: ('A' for Active; 'I' for Inactive)
REMARK    1  A    between atoms: O_2  and  C_13
REMARK    2  A    between atoms: O_3  and  C_14
REMARK    3  A    between atoms: O_4  and  C_18
REMARK    4  A    between atoms: O_8  and  C_24
REMARK    5  A    between atoms: C_12  and  C_17
REMARK                            x       y       z     vdW  Elec       q    Type
REMARK                         _______ _______ _______ _____ _____    ______ ____
ROOT
ATOM      1  O   UNL     1     104.137 124.934 147.022  0.00  0.00    +0.000 OA
ATOM      2  O   UNL     1     106.330 124.492 145.185  0.00  0.00    +0.000 OA
ATOM      3  O   UNL     1     107.121 125.798 145.811  0.00  0.00    +0.000 OA
ATOM      4  O   UNL     1     105.196 123.600 145.148  0.00  0.00    +0.000 OA
ATOM      5  C   UNL     1     105.248 124.712 146.092  0.00  0.00    +0.000 A 
ATOM      6  C   UNL     1     104.905 125.149 146.704  0.00  0.00    +0.000 A 
ATOM      7  C   UNL     1     103.719 124.255 146.700  0.00  0.00    +0.000 A 
ATOM      8  C   UNL     1     105.302 125.802 147.016  0.00  0.00    +0.000 A 
ATOM      9  C   UNL     1     104.076 123.801 146.063  0.00  0.00    +0.000 A 
ATOM     10  C   UNL     1     104.846 124.031 145.759  0.00  0.00    +0.000 A 
ATOM     11  C   UNL     1     105.987 124.929 145.795  0.00  0.00    +0.000 A 
ATOM     12  C   UNL     1     106.040 126.018 146.719  0.00  0.00    +0.000 A 
ATOM     13  C   UNL     1     106.383 125.581 146.108  0.00  0.00    +0.000 A 
ENDROOT
BRANCH   7  15
ATOM     14  O   UNL     1     100.868 124.422 146.604  0.00  0.00    +0.000 OA
ATOM     15  C   UNL     1     102.981 124.042 146.999  0.00  0.00    +0.000 A 
ATOM     16  C   UNL     1     102.293 124.339 146.652  0.00  0.00    +0.000 A 
ATOM     17  C   UNL     1     102.929 123.531 147.645  0.00  0.00    +0.000 A 
ATOM     18  C   UNL     1     101.555 124.125 146.951  0.00  0.00    +0.000 A 
ATOM     19  C   UNL     1     102.190 123.317 147.944  0.00  0.00    +0.000 A 
ATOM     20  C   UNL     1     101.504 123.614 147.598  0.00  0.00    +0.000 A 
BRANCH  20  21
ATOM     21  O   UNL     1     100.765 123.401 147.896  0.00  0.00    +0.000 OA
ATOM     22  C   UNL     1     100.711 122.838 148.497  0.00  0.00    +0.000 C 
ENDBRANCH  20  21
ENDBRANCH   7  15
BRANCH   8  23
ATOM     23  O   UNL     1     104.959 126.238 147.627  0.00  0.00    +0.000 OA
ATOM     24  C   UNL     1     105.240 126.159 148.398  0.00  0.00    +0.000 C 
ENDBRANCH   8  23
BRANCH   9  25
ATOM     25  O   UNL     1     103.682 123.148 145.748  0.00  0.00    +0.000 OA
ATOM     26  C   UNL     1     103.903 122.848 145.012  0.00  0.00    +0.000 C 
ENDBRANCH   9  25
BRANCH  12  27
ATOM     27  O   UNL     1     106.436 126.670 147.032  0.00  0.00    +0.000 OA
ATOM     28  C   UNL     1     106.606 127.319 146.553  0.00  0.00    +0.000 C 
ENDBRANCH  12  27
TORSDOF 5
ENDMDL
MODEL 3
REMARK VINA RESULT:      -7.8      1.361      4.815
REMARK  Name = 44260068
REMARK  5 active torsions:
REMARK  status: ('A' for Active; 'I' for Inactive)
REMARK    1  A    between atoms: O_2  and  C_13
REMARK    2  A    between atoms: O_3  and  C_14
REMARK    3  A    between atoms: O_4  and  C_18
REMARK    4  A    between atoms: O_8  and  C_24
REMARK    5  A    between atoms: C_12  and  C_17
REMARK                            x       y       z     vdW  Elec       q    Type
REMARK                         _______ _______ _______ _____ _____    ______ ____
ROOT
ATOM      1  O   UNL     1     104.165 124.497 146.612  0.00  0.00    +0.000 OA
ATOM      2  O   UNL     1     102.239 123.579 148.568  0.00  0.00    +0.000 OA
ATOM      3  O   UNL     1     101.441 122.739 147.392  0.00  0.00    +0.000 OA
ATOM      4  O   UNL     1     103.313 124.442 148.996  0.00  0.00    +0.000 OA
ATOM      5  C   UNL     1     103.188 124.031 147.601  0.00  0.00    +0.000 A 
ATOM      6  C   UNL     1     103.464 124.047 146.822  0.00  0.00    +0.000 A 
ATOM      7  C   UNL     1     104.585 124.936 147.219  0.00  0.00    +0.000 A 
ATOM      8  C   UNL     1     103.065 123.627 146.235  0.00  0.00    +0.000 A 
ATOM      9  C   UNL     1     104.298 124.920 148.030  0.00  0.00    +0.000 A 
ATOM     10  C   UNL     1     103.595 124.464 148.220  0.00  0.00    +0.000 A 
ATOM     11  C   UNL     1     102.514 123.595 147.790  0.00  0.00    +0.000 A 
ATOM     12  C   UNL     1     102.391 123.191 146.425  0.00  0.00    +0.000 A 
ATOM     13  C   UNL     1     102.115 123.175 147.203  0.00  0.00    +0.000 A 
ENDROOT
BRANCH   7  15
ATOM     14  O   UNL     1     107.399 125.056 146.741  0.00  0.00    +0.000 OA
ATOM     15  C   UNL     1     105.259 125.371 147.027  0.00  0.00    +0.000 A 
ATOM     16  C   UNL     1     105.993 124.997 146.980  0.00  0.00    +0.000 A 
ATOM     17  C   UNL     1     105.200 126.181 146.881  0.00  0.00    +0.000 A 
ATOM     18  C   UNL     1     106.666 125.431 146.788  0.00  0.00    +0.000 A 
ATOM     19  C   UNL     1     105.875 126.616 146.688  0.00  0.00    +0.000 A 
ATOM     20  C   UNL     1     106.607 126.241 146.641  0.00  0.00    +0.000 A 
BRANCH  20  21
ATOM     21  O   UNL     1     107.281 126.675 146.449  0.00  0.00    +0.000 OA
ATOM     22  C   UNL     1     107.234 127.495 146.369  0.00  0.00    +0.000 C 
ENDBRANCH  20  21
ENDBRANCH   7  15
BRANCH   8  23
ATOM     23  O   UNL     1     103.340 123.643 145.457  0.00  0.00    +0.000 OA
ATOM     24  C   UNL     1     103.746 122.995 145.151  0.00  0.00    +0.000 C 
ENDBRANCH   8  23
BRANCH   9  25
ATOM     25  O   UNL     1     104.695 125.338 148.620  0.00  0.00    +0.000 OA
ATOM     26  C   UNL     1     104.421 125.316 149.397  0.00  0.00    +0.000 C 
ENDBRANCH   9  25
BRANCH  12  27
ATOM     27  O   UNL     1     101.991 122.771 145.837  0.00  0.00    +0.000 OA
ATOM     28  C   UNL     1     101.234 123.002 145.607  0.00  0.00    +0.000 C 
ENDBRANCH  12  27
TORSDOF 5
ENDMDL
MODEL 4
REMARK VINA RESULT:      -7.7     12.544     14.268
REMARK  Name = 44260068
REMARK  5 active torsions:
REMARK  status: ('A' for Active; 'I' for Inactive)
REMARK    1  A    between atoms: O_2  and  C_13
REMARK    2  A    between atoms: O_3  and  C_14
REMARK    3  A    between atoms: O_4  and  C_18
REMARK    4  A    between atoms: O_8  and  C_24
REMARK    5  A    between atoms: C_12  and  C_17
REMARK                            x       y       z     vdW  Elec       q    Type
REMARK                         _______ _______ _______ _____ _____    ______ ____
ROOT
ATOM      1  O   UNL     1     113.286 127.407 136.401  0.00  0.00    +0.000 OA
ATOM      2  O   UNL     1     110.754 126.192 135.699  0.00  0.00    +0.000 OA
ATOM      3  O   UNL     1     111.210 124.797 136.454  0.00  0.00    +0.000 OA
ATOM      4  O   UNL     1     111.014 127.552 135.291  0.00  0.00    +0.000 OA
ATOM      5  C   UNL     1     112.004 126.790 136.046  0.00  0.00    +0.000 A 
ATOM      6  C   UNL     1     112.744 126.740 136.409  0.00  0.00    +0.000 A 
ATOM      7  C   UNL     1     113.054 128.136 136.009  0.00  0.00    +0.000 A 
ATOM      8  C   UNL     1     112.972 126.042 136.786  0.00  0.00    +0.000 A 
ATOM      9  C   UNL     1     112.283 128.188 135.631  0.00  0.00    +0.000 A 
ATOM     10  C   UNL     1     111.756 127.510 135.651  0.00  0.00    +0.000 A 
ATOM     11  C   UNL     1     111.493 126.142 136.062  0.00  0.00    +0.000 A 
ATOM     12  C   UNL     1     112.461 125.395 136.801  0.00  0.00    +0.000 A 
ATOM     13  C   UNL     1     111.721 125.445 136.438  0.00  0.00    +0.000 A 
ENDROOT
BRANCH   7  15
ATOM     14  O   UNL     1     114.063 130.520 137.219  0.00  0.00    +0.000 OA
ATOM     15  C   UNL     1     113.567 128.782 135.996  0.00  0.00    +0.000 A 
ATOM     16  C   UNL     1     113.559 129.328 136.614  0.00  0.00    +0.000 A 
ATOM     17  C   UNL     1     114.089 128.881 135.364  0.00  0.00    +0.000 A 
ATOM     18  C   UNL     1     114.071 129.973 136.601  0.00  0.00    +0.000 A 
ATOM     19  C   UNL     1     114.602 129.528 135.352  0.00  0.00    +0.000 A 
ATOM     20  C   UNL     1     114.593 130.073 135.969  0.00  0.00    +0.000 A 
BRANCH  20  21
ATOM     21  O   UNL     1     115.106 130.719 135.957  0.00  0.00    +0.000 OA
ATOM     22  C   UNL     1     115.552 130.878 135.281  0.00  0.00    +0.000 C 
ENDBRANCH  20  21
ENDBRANCH   7  15
BRANCH   8  23
ATOM     23  O   UNL     1     113.711 125.992 137.149  0.00  0.00    +0.000 OA
ATOM     24  C   UNL     1     113.769 126.009 137.971  0.00  0.00    +0.000 C 
ENDBRANCH   8  23
BRANCH   9  25
ATOM     25  O   UNL     1     112.052 128.884 135.253  0.00  0.00    +0.000 OA
ATOM     26  C   UNL     1     111.257 129.014 135.078  0.00  0.00    +0.000 C 
ENDBRANCH   9  25
BRANCH  12  27
ATOM     27  O   UNL     1     112.689 124.697 137.178  0.00  0.00    +0.000 OA
ATOM     28  C   UNL     1     112.830 124.016 136.736  0.00  0.00    +0.000 C 
ENDBRANCH  12  27
TORSDOF 5
ENDMDL
MODEL 5
REMARK VINA RESULT:      -7.7      8.814     10.427
REMARK  Name = 44260068
REMARK  5 active torsions:
REMARK  status: ('A' for Active; 'I' for Inactive)
REMARK    1  A    between atoms: O_2  and  C_13
REMARK    2  A    between atoms: O_3  and  C_14
REMARK    3  A    between atoms: O_4  and  C_18
REMARK    4  A    between atoms: O_8  and  C_24
REMARK    5  A    between atoms: C_12  and  C_17
REMARK                            x       y       z     vdW  Elec       q    Type
REMARK                         _______ _______ _______ _____ _____    ______ ____
ROOT
ATOM      1  O   UNL     1     111.146 131.645 145.121  0.00  0.00    +0.000 OA
ATOM      2  O   UNL     1     112.315 132.016 142.499  0.00  0.00    +0.000 OA
ATOM      3  O   UNL     1     112.433 130.381 142.316  0.00  0.00    +0.000 OA
ATOM      4  O   UNL     1     111.943 133.178 143.270  0.00  0.00    +0.000 OA
ATOM      5  C   UNL     1     111.738 131.831 143.793  0.00  0.00    +0.000 A 
ATOM      6  C   UNL     1     111.479 131.329 144.395  0.00  0.00    +0.000 A 
ATOM      7  C   UNL     1     111.082 132.496 145.222  0.00  0.00    +0.000 A 
ATOM      8  C   UNL     1     111.538 130.511 144.303  0.00  0.00    +0.000 A 
ATOM      9  C   UNL     1     111.352 133.020 144.595  0.00  0.00    +0.000 A 
ATOM     10  C   UNL     1     111.682 132.683 143.876  0.00  0.00    +0.000 A 
ATOM     11  C   UNL     1     112.056 131.514 143.100  0.00  0.00    +0.000 A 
ATOM     12  C   UNL     1     111.856 130.195 143.611  0.00  0.00    +0.000 A 
ATOM     13  C   UNL     1     112.115 130.697 143.009  0.00  0.00    +0.000 A 
ENDROOT
BRANCH   7  15
ATOM     14  O   UNL     1     111.428 133.451 147.892  0.00  0.00    +0.000 OA
ATOM     15  C   UNL     1     110.763 132.810 145.915  0.00  0.00    +0.000 A 
ATOM     16  C   UNL     1     111.254 132.974 146.557  0.00  0.00    +0.000 A 
ATOM     17  C   UNL     1     109.953 132.958 145.967  0.00  0.00    +0.000 A 
ATOM     18  C   UNL     1     110.937 133.287 147.250  0.00  0.00    +0.000 A 
ATOM     19  C   UNL     1     109.635 133.272 146.661  0.00  0.00    +0.000 A 
ATOM     20  C   UNL     1     110.126 133.436 147.302  0.00  0.00    +0.000 A 
BRANCH  20  21
ATOM     21  O   UNL     1     109.809 133.749 147.996  0.00  0.00    +0.000 OA
ATOM     22  C   UNL     1     108.991 133.796 148.090  0.00  0.00    +0.000 C 
ENDBRANCH  20  21
ENDBRANCH   7  15
BRANCH   8  23
ATOM     23  O   UNL     1     111.279 130.009 144.904  0.00  0.00    +0.000 OA
ATOM     24  C   UNL     1     111.828 129.621 145.383  0.00  0.00    +0.000 C 
ENDBRANCH   8  23
BRANCH   9  25
ATOM     25  O   UNL     1     111.294 133.838 144.683  0.00  0.00    +0.000 OA
ATOM     26  C   UNL     1     111.833 134.333 144.303  0.00  0.00    +0.000 C 
ENDBRANCH   9  25
BRANCH  12  27
ATOM     27  O   UNL     1     111.915 129.377 143.519  0.00  0.00    +0.000 OA
ATOM     28  C   UNL     1     111.468 128.992 142.943  0.00  0.00    +0.000 C 
ENDBRANCH  12  27
TORSDOF 5
ENDMDL
MODEL 6
REMARK VINA RESULT:      -7.7      1.296      4.310
REMARK  Name = 44260068
REMARK  5 active torsions:
REMARK  status: ('A' for Active; 'I' for Inactive)
REMARK    1  A    between atoms: O_2  and  C_13
REMARK    2  A    between atoms: O_3  and  C_14
REMARK    3  A    between atoms: O_4  and  C_18
REMARK    4  A    between atoms: O_8  and  C_24
REMARK    5  A    between atoms: C_12  and  C_17
REMARK                            x       y       z     vdW  Elec       q    Type
REMARK                         _______ _______ _______ _____ _____    ______ ____
ROOT
ATOM      1  O   UNL     1     104.526 124.993 146.958  0.00  0.00    +0.000 OA
ATOM      2  O   UNL     1     103.283 122.852 145.458  0.00  0.00    +0.000 OA
ATOM      3  O   UNL     1     102.094 122.740 146.597  0.00  0.00    +0.000 OA
ATOM      4  O   UNL     1     104.492 123.453 144.948  0.00  0.00    +0.000 OA
ATOM      5  C   UNL     1     103.895 123.908 146.200  0.00  0.00    +0.000 A 
ATOM      6  C   UNL     1     103.904 124.410 146.856  0.00  0.00    +0.000 A 
ATOM      7  C   UNL     1     105.149 125.056 146.368  0.00  0.00    +0.000 A 
ATOM      8  C   UNL     1     103.309 124.353 147.426  0.00  0.00    +0.000 A 
ATOM      9  C   UNL     1     105.140 124.534 145.684  0.00  0.00    +0.000 A 
ATOM     10  C   UNL     1     104.508 123.957 145.601  0.00  0.00    +0.000 A 
ATOM     11  C   UNL     1     103.292 123.352 146.114  0.00  0.00    +0.000 A 
ATOM     12  C   UNL     1     102.706 123.798 147.339  0.00  0.00    +0.000 A 
ATOM     13  C   UNL     1     102.698 123.296 146.683  0.00  0.00    +0.000 A 
ENDROOT
BRANCH   7  15
ATOM     14  O   UNL     1     107.775 125.739 147.263  0.00  0.00    +0.000 OA
ATOM     15  C   UNL     1     105.751 125.613 146.457  0.00  0.00    +0.000 A 
ATOM     16  C   UNL     1     106.462 125.398 146.816  0.00  0.00    +0.000 A 
ATOM     17  C   UNL     1     105.641 126.385 146.187  0.00  0.00    +0.000 A 
ATOM     18  C   UNL     1     107.063 125.954 146.905  0.00  0.00    +0.000 A 
ATOM     19  C   UNL     1     106.244 126.942 146.276  0.00  0.00    +0.000 A 
ATOM     20  C   UNL     1     106.955 126.727 146.635  0.00  0.00    +0.000 A 
BRANCH  20  21
ATOM     21  O   UNL     1     107.557 127.283 146.724  0.00  0.00    +0.000 OA
ATOM     22  C   UNL     1     107.481 128.031 146.384  0.00  0.00    +0.000 C 
ENDBRANCH  20  21
ENDBRANCH   7  15
BRANCH   8  23
ATOM     23  O   UNL     1     103.318 124.854 148.081  0.00  0.00    +0.000 OA
ATOM     24  C   UNL     1     103.564 124.568 148.814  0.00  0.00    +0.000 C 
ENDBRANCH   8  23
BRANCH   9  25
ATOM     25  O   UNL     1     105.733 124.588 145.113  0.00  0.00    +0.000 OA
ATOM     26  C   UNL     1     105.571 124.383 144.331  0.00  0.00    +0.000 C 
ENDBRANCH   9  25
BRANCH  12  27
ATOM     27  O   UNL     1     102.112 123.741 147.909  0.00  0.00    +0.000 OA
ATOM     28  C   UNL     1     101.335 123.940 147.715  0.00  0.00    +0.000 C 
ENDBRANCH  12  27
TORSDOF 5
ENDMDL
MODEL 7
REMARK VINA RESULT:      -7.5      6.627      8.104
REMARK  Name = 44260068
REMARK  5 active torsions:
REMARK  status: ('A' for Active; 'I' for Inactive)
REMARK    1  A    between atoms: O_2  and  C_13
REMARK    2  A    between atoms: O_3  and  C_14
REMARK    3  A    between atoms: O_4  and  C_18
REMARK    4  A    between atoms: O_8  and  C_24
REMARK    5  A    between atoms: C_12  and  C_17
REMARK                            x       y       z     vdW  Elec       q    Type
REMARK                         _______ _______ _______ _____ _____    ______ ____
ROOT
ATOM      1  O   UNL     1     103.564 130.207 142.324  0.00  0.00    +0.000 OA
ATOM      2  O   UNL     1     104.327 127.761 140.978  0.00  0.00    +0.000 OA
ATOM      3  O   UNL     1     105.318 127.372 142.239  0.00  0.00    +0.000 OA
ATOM      4  O   UNL     1     103.385 128.647 140.337  0.00  0.00    +0.000 OA
ATOM      5  C   UNL     1     103.952 128.968 141.644  0.00  0.00    +0.000 A 
ATOM      6  C   UNL     1     104.012 129.474 142.293  0.00  0.00    +0.000 A 
ATOM      7  C   UNL     1     103.046 130.415 141.671  0.00  0.00    +0.000 A 
ATOM      8  C   UNL     1     104.508 129.279 142.924  0.00  0.00    +0.000 A 
ATOM      9  C   UNL     1     102.984 129.887 140.994  0.00  0.00    +0.000 A 
ATOM     10  C   UNL     1     103.440 129.159 140.982  0.00  0.00    +0.000 A 
ATOM     11  C   UNL     1     104.387 128.267 141.626  0.00  0.00    +0.000 A 
ATOM     12  C   UNL     1     104.943 128.579 142.906  0.00  0.00    +0.000 A 
ATOM     13  C   UNL     1     104.882 128.073 142.256  0.00  0.00    +0.000 A 
ENDROOT
BRANCH   7  15
ATOM     14  O   UNL     1     100.710 131.856 142.464  0.00  0.00    +0.000 OA
ATOM     15  C   UNL     1     102.612 131.116 141.691  0.00  0.00    +0.000 A 
ATOM     16  C   UNL     1     101.878 131.136 142.067  0.00  0.00    +0.000 A 
ATOM     17  C   UNL     1     102.912 131.798 141.336  0.00  0.00    +0.000 A 
ATOM     18  C   UNL     1     101.444 131.836 142.088  0.00  0.00    +0.000 A 
ATOM     19  C   UNL     1     102.478 132.499 141.358  0.00  0.00    +0.000 A 
ATOM     20  C   UNL     1     101.744 132.519 141.733  0.00  0.00    +0.000 A 
BRANCH  20  21
ATOM     21  O   UNL     1     101.309 133.219 141.754  0.00  0.00    +0.000 OA
ATOM     22  C   UNL     1     101.642 133.919 141.471  0.00  0.00    +0.000 C 
ENDBRANCH  20  21
ENDBRANCH   7  15
BRANCH   8  23
ATOM     23  O   UNL     1     104.568 129.786 143.572  0.00  0.00    +0.000 OA
ATOM     24  C   UNL     1     105.240 130.253 143.669  0.00  0.00    +0.000 C 
ENDBRANCH   8  23
BRANCH   9  25
ATOM     25  O   UNL     1     102.489 130.079 140.363  0.00  0.00    +0.000 OA
ATOM     26  C   UNL     1     102.206 129.485 139.865  0.00  0.00    +0.000 C 
ENDBRANCH   9  25
BRANCH  12  27
ATOM     27  O   UNL     1     105.438 128.384 143.536  0.00  0.00    +0.000 OA
ATOM     28  C   UNL     1     105.301 127.698 143.972  0.00  0.00    +0.000 C 
ENDBRANCH  12  27
TORSDOF 5
ENDMDL
MODEL 8
REMARK VINA RESULT:      -7.5      2.176      4.406
REMARK  Name = 44260068
REMARK  5 active torsions:
REMARK  status: ('A' for Active; 'I' for Inactive)
REMARK    1  A    between atoms: O_2  and  C_13
REMARK    2  A    between atoms: O_3  and  C_14
REMARK    3  A    between atoms: O_4  and  C_18
REMARK    4  A    between atoms: O_8  and  C_24
REMARK    5  A    between atoms: C_12  and  C_17
REMARK                            x       y       z     vdW  Elec       q    Type
REMARK                         _______ _______ _______ _____ _____    ______ ____
ROOT
ATOM      1  O   UNL     1     106.293 125.177 145.719  0.00  0.00    +0.000 OA
ATOM      2  O   UNL     1     106.057 127.517 144.030  0.00  0.00    +0.000 OA
ATOM      3  O   UNL     1     105.692 126.553 142.741  0.00  0.00    +0.000 OA
ATOM      4  O   UNL     1     106.393 127.690 145.423  0.00  0.00    +0.000 OA
ATOM      5  C   UNL     1     106.173 126.361 144.862  0.00  0.00    +0.000 A 
ATOM      6  C   UNL     1     106.140 125.541 144.956  0.00  0.00    +0.000 A 
ATOM      7  C   UNL     1     106.484 125.674 146.394  0.00  0.00    +0.000 A 
ATOM      8  C   UNL     1     105.957 125.060 144.311  0.00  0.00    +0.000 A 
ATOM      9  C   UNL     1     106.518 126.528 146.297  0.00  0.00    +0.000 A 
ATOM     10  C   UNL     1     106.362 126.872 145.525  0.00  0.00    +0.000 A 
ATOM     11  C   UNL     1     106.024 126.698 144.124  0.00  0.00    +0.000 A 
ATOM     12  C   UNL     1     105.808 125.397 143.573  0.00  0.00    +0.000 A 
ATOM     13  C   UNL     1     105.841 126.217 143.480  0.00  0.00    +0.000 A 
ENDROOT
BRANCH   7  15
ATOM     14  O   UNL     1     105.525 124.599 148.862  0.00  0.00    +0.000 OA
ATOM     15  C   UNL     1     106.632 125.334 147.131  0.00  0.00    +0.000 A 
ATOM     16  C   UNL     1     106.004 125.136 147.628  0.00  0.00    +0.000 A 
ATOM     17  C   UNL     1     107.409 125.192 147.371  0.00  0.00    +0.000 A 
ATOM     18  C   UNL     1     106.153 124.797 148.365  0.00  0.00    +0.000 A 
ATOM     19  C   UNL     1     107.557 124.851 148.108  0.00  0.00    +0.000 A 
ATOM     20  C   UNL     1     106.930 124.654 148.605  0.00  0.00    +0.000 A 
BRANCH  20  21
ATOM     21  O   UNL     1     107.077 124.314 149.341  0.00  0.00    +0.000 OA
ATOM     22  C   UNL     1     107.853 124.239 149.612  0.00  0.00    +0.000 C 
ENDBRANCH  20  21
ENDBRANCH   7  15
BRANCH   8  23
ATOM     23  O   UNL     1     105.924 124.241 144.404  0.00  0.00    +0.000 OA
ATOM     24  C   UNL     1     105.194 123.861 144.451  0.00  0.00    +0.000 C 
ENDBRANCH   8  23
BRANCH   9  25
ATOM     25  O   UNL     1     106.701 127.012 146.940  0.00  0.00    +0.000 OA
ATOM     26  C   UNL     1     106.531 127.818 146.910  0.00  0.00    +0.000 C 
ENDBRANCH   9  25
BRANCH  12  27
ATOM     27  O   UNL     1     105.625 124.915 142.928  0.00  0.00    +0.000 OA
ATOM     28  C   UNL     1     106.101 124.929 142.255  0.00  0.00    +0.000 C 
ENDBRANCH  12  27
TORSDOF 5
ENDMDL
MODEL 9
REMARK VINA RESULT:      -7.5      9.037     10.680
REMARK  Name = 44260068
REMARK  5 active torsions:
REMARK  status: ('A' for Active; 'I' for Inactive)
REMARK    1  A    between atoms: O_2  and  C_13
REMARK    2  A    between atoms: O_3  and  C_14
REMARK    3  A    between atoms: O_4  and  C_18
REMARK    4  A    between atoms: O_8  and  C_24
REMARK    5  A    between atoms: C_12  and  C_17
REMARK                            x       y       z     vdW  Elec       q    Type
REMARK                         _______ _______ _______ _____ _____    ______ ____
ROOT
ATOM      1  O   UNL     1     103.203 132.478 140.904  0.00  0.00    +0.000 OA
ATOM      2  O   UNL     1     101.390 134.573 141.741  0.00  0.00    +0.000 OA
ATOM      3  O   UNL     1     102.381 135.705 141.064  0.00  0.00    +0.000 OA
ATOM      4  O   UNL     1     101.068 133.202 142.057  0.00  0.00    +0.000 OA
ATOM      5  C   UNL     1     102.286 133.540 141.327  0.00  0.00    +0.000 A 
ATOM      6  C   UNL     1     102.983 133.306 140.950  0.00  0.00    +0.000 A 
ATOM      7  C   UNL     1     102.691 131.883 141.255  0.00  0.00    +0.000 A 
ATOM      8  C   UNL     1     103.478 133.873 140.612  0.00  0.00    +0.000 A 
ATOM      9  C   UNL     1     101.965 132.126 141.647  0.00  0.00    +0.000 A 
ATOM     10  C   UNL     1     101.763 132.960 141.683  0.00  0.00    +0.000 A 
ATOM     11  C   UNL     1     102.086 134.340 141.364  0.00  0.00    +0.000 A 
ATOM     12  C   UNL     1     103.278 134.672 140.650  0.00  0.00    +0.000 A 
ATOM     13  C   UNL     1     102.581 134.906 141.026  0.00  0.00    +0.000 A 
ENDROOT
BRANCH   7  15
ATOM     14  O   UNL     1     102.620 129.377 139.884  0.00  0.00    +0.000 OA
ATOM     15  C   UNL     1     102.894 131.084 141.215  0.00  0.00    +0.000 A 
ATOM     16  C   UNL     1     102.656 130.629 140.570  0.00  0.00    +0.000 A 
ATOM     17  C   UNL     1     103.335 130.740 141.822  0.00  0.00    +0.000 A 
ATOM     18  C   UNL     1     102.858 129.831 140.530  0.00  0.00    +0.000 A 
ATOM     19  C   UNL     1     103.538 129.941 141.782  0.00  0.00    +0.000 A 
ATOM     20  C   UNL     1     103.300 129.487 141.137  0.00  0.00    +0.000 A 
BRANCH  20  21
ATOM     21  O   UNL     1     103.502 128.688 141.096  0.00  0.00    +0.000 OA
ATOM     22  C   UNL     1     104.163 128.410 141.505  0.00  0.00    +0.000 C 
ENDBRANCH  20  21
ENDBRANCH   7  15
BRANCH   8  23
ATOM     23  O   UNL     1     104.175 133.640 140.236  0.00  0.00    +0.000 OA
ATOM     24  C   UNL     1     104.212 133.623 139.412  0.00  0.00    +0.000 C 
ENDBRANCH   8  23
BRANCH   9  25
ATOM     25  O   UNL     1     101.468 131.562 141.986  0.00  0.00    +0.000 OA
ATOM     26  C   UNL     1     100.711 131.775 142.234  0.00  0.00    +0.000 C 
ENDBRANCH   9  25
BRANCH  12  27
ATOM     27  O   UNL     1     103.773 135.239 140.311  0.00  0.00    +0.000 OA
ATOM     28  C   UNL     1     104.181 135.771 140.792  0.00  0.00    +0.000 C 
ENDBRANCH  12  27
TORSDOF 5
ENDMDL
MODEL 10
REMARK VINA RESULT:      -7.5     11.212     12.971
REMARK  Name = 44260068
REMARK  5 active torsions:
REMARK  status: ('A' for Active; 'I' for Inactive)
REMARK    1  A    between atoms: O_2  and  C_13
REMARK    2  A    between atoms: O_3  and  C_14
REMARK    3  A    between atoms: O_4  and  C_18
REMARK    4  A    between atoms: O_8  and  C_24
REMARK    5  A    between atoms: C_12  and  C_17
REMARK                            x       y       z     vdW  Elec       q    Type
REMARK                         _______ _______ _______ _____ _____    ______ ____
ROOT
ATOM      1  O   UNL     1     110.361 127.222 136.328  0.00  0.00    +0.000 OA
ATOM      2  O   UNL     1     111.397 129.641 135.121  0.00  0.00    +0.000 OA
ATOM      3  O   UNL     1     109.867 130.252 135.024  0.00  0.00    +0.000 OA
ATOM      4  O   UNL     1     112.318 128.591 135.486  0.00  0.00    +0.000 OA
ATOM      5  C   UNL     1     110.884 128.448 135.717  0.00  0.00    +0.000 A 
ATOM      6  C   UNL     1     110.244 128.003 135.991  0.00  0.00    +0.000 A 
ATOM      7  C   UNL     1     111.156 126.899 136.381  0.00  0.00    +0.000 A 
ATOM      8  C   UNL     1     109.479 128.309 135.942  0.00  0.00    +0.000 A 
ATOM      9  C   UNL     1     111.822 127.361 136.096  0.00  0.00    +0.000 A 
ATOM     10  C   UNL     1     111.684 128.141 135.762  0.00  0.00    +0.000 A 
ATOM     11  C   UNL     1     110.758 129.197 135.395  0.00  0.00    +0.000 A 
ATOM     12  C   UNL     1     109.353 129.058 135.620  0.00  0.00    +0.000 A 
ATOM     13  C   UNL     1     109.993 129.502 135.346  0.00  0.00    +0.000 A 
ENDROOT
BRANCH   7  15
ATOM     14  O   UNL     1     111.451 125.206 138.664  0.00  0.00    +0.000 OA
ATOM     15  C   UNL     1     111.279 126.149 136.704  0.00  0.00    +0.000 A 
ATOM     16  C   UNL     1     111.304 126.052 137.522  0.00  0.00    +0.000 A 
ATOM     17  C   UNL     1     111.377 125.498 136.207  0.00  0.00    +0.000 A 
ATOM     18  C   UNL     1     111.426 125.303 137.845  0.00  0.00    +0.000 A 
ATOM     19  C   UNL     1     111.499 124.748 136.531  0.00  0.00    +0.000 A 
ATOM     20  C   UNL     1     111.524 124.651 137.349  0.00  0.00    +0.000 A 
BRANCH  20  21
ATOM     21  O   UNL     1     111.647 123.902 137.672  0.00  0.00    +0.000 OA
ATOM     22  C   UNL     1     111.928 123.289 137.196  0.00  0.00    +0.000 C 
ENDBRANCH  20  21
ENDBRANCH   7  15
BRANCH   8  23
ATOM     23  O   UNL     1     108.840 127.865 136.215  0.00  0.00    +0.000 OA
ATOM     24  C   UNL     1     108.381 127.433 135.684  0.00  0.00    +0.000 C 
ENDBRANCH   8  23
BRANCH   9  25
ATOM     25  O   UNL     1     112.588 127.059 136.143  0.00  0.00    +0.000 OA
ATOM     26  C   UNL     1     113.230 127.571 136.228  0.00  0.00    +0.000 C 
ENDBRANCH   9  25
BRANCH  12  27
ATOM     27  O   UNL     1     108.588 129.364 135.571  0.00  0.00    +0.000 OA
ATOM     28  C   UNL     1     108.384 130.035 136.004  0.00  0.00    +0.000 C 
ENDBRANCH  12  27
TORSDOF 5
ENDMDL
