MODEL 1
REMARK VINA RESULT:      -8.8      0.000      0.000
REMARK  Name = 44257204
REMARK  3 active torsions:
REMARK  status: ('A' for Active; 'I' for Inactive)
REMARK    1  A    between atoms: O_3  and  C_13
REMARK    2  A    between atoms: C_6  and  C_12
REMARK    3  A    between atoms: C_10  and  C_16
REMARK                            x       y       z     vdW  Elec       q    Type
REMARK                         _______ _______ _______ _____ _____    ______ ____
ROOT
ATOM      1  O   UNL     1     113.503 129.924 135.205  0.00  0.00    +0.000 OA
ATOM      2  O   UNL     1     113.659 127.372 136.289  0.00  0.00    +0.000 OA
ATOM      3  C   UNL     1     114.265 128.972 135.732  0.00  0.00    +0.000 C 
ATOM      4  C   UNL     1     113.493 128.695 135.712  0.00  0.00    +0.000 A 
ATOM      5  C   UNL     1     114.271 129.730 135.419  0.00  0.00    +0.000 C 
ATOM      6  C   UNL     1     113.020 129.286 135.385  0.00  0.00    +0.000 A 
ATOM      7  C   UNL     1     113.156 127.980 135.949  0.00  0.00    +0.000 A 
ATOM      8  C   UNL     1     112.344 127.857 135.859  0.00  0.00    +0.000 A 
ATOM      9  C   UNL     1     113.313 126.626 136.537  0.00  0.00    +0.000 C 
ATOM     10  C   UNL     1     112.210 129.163 135.295  0.00  0.00    +0.000 A 
ATOM     11  C   UNL     1     111.871 128.449 135.532  0.00  0.00    +0.000 A 
ATOM     12  C   UNL     1     111.982 127.118 136.102  0.00  0.00    +0.000 C 
ATOM     13  C   UNL     1     112.469 126.497 136.444  0.00  0.00    +0.000 C 
ENDROOT
BRANCH   9  14
ATOM     14  C   UNL     1     113.790 126.037 136.864  0.00  0.00    +0.000 A 
ATOM     15  C   UNL     1     113.853 125.964 137.683  0.00  0.00    +0.000 A 
ATOM     16  C   UNL     1     114.204 125.521 136.371  0.00  0.00    +0.000 A 
ATOM     17  C   UNL     1     114.329 125.374 138.009  0.00  0.00    +0.000 A 
ATOM     18  C   UNL     1     114.680 124.931 136.697  0.00  0.00    +0.000 A 
ATOM     19  C   UNL     1     114.743 124.859 137.516  0.00  0.00    +0.000 A 
ENDBRANCH   9  14
BRANCH   5  20
ATOM     20  C   UNL     1     114.935 130.214 135.334  0.00  0.00    +0.000 C 
ATOM     21  C   UNL     1     115.199 130.666 135.971  0.00  0.00    +0.000 C 
ATOM     22  C   UNL     1     115.332 130.245 134.612  0.00  0.00    +0.000 C 
ENDBRANCH   5  20
BRANCH  11  23
ATOM     23  O   UNL     1     111.061 128.325 135.442  0.00  0.00    +0.000 OA
ATOM     24  C   UNL     1     110.588 128.917 135.114  0.00  0.00    +0.000 C 
ENDBRANCH  11  23
TORSDOF 3
ENDMDL
MODEL 2
REMARK VINA RESULT:      -8.6      0.698      3.797
REMARK  Name = 44257204
REMARK  3 active torsions:
REMARK  status: ('A' for Active; 'I' for Inactive)
REMARK    1  A    between atoms: O_3  and  C_13
REMARK    2  A    between atoms: C_6  and  C_12
REMARK    3  A    between atoms: C_10  and  C_16
REMARK                            x       y       z     vdW  Elec       q    Type
REMARK                         _______ _______ _______ _____ _____    ______ ____
ROOT
ATOM      1  O   UNL     1     112.902 125.861 136.787  0.00  0.00    +0.000 OA
ATOM      2  O   UNL     1     113.750 128.343 135.877  0.00  0.00    +0.000 OA
ATOM      3  C   UNL     1     113.907 126.714 136.624  0.00  0.00    +0.000 C 
ATOM      4  C   UNL     1     113.227 127.065 136.327  0.00  0.00    +0.000 A 
ATOM      5  C   UNL     1     113.706 125.972 136.908  0.00  0.00    +0.000 C 
ATOM      6  C   UNL     1     112.603 126.535 136.429  0.00  0.00    +0.000 A 
ATOM      7  C   UNL     1     113.092 127.800 135.977  0.00  0.00    +0.000 A 
ATOM      8  C   UNL     1     112.332 128.004 135.727  0.00  0.00    +0.000 A 
ATOM      9  C   UNL     1     113.615 129.109 135.512  0.00  0.00    +0.000 C 
ATOM     10  C   UNL     1     111.844 126.739 136.179  0.00  0.00    +0.000 A 
ATOM     11  C   UNL     1     111.708 127.474 135.828  0.00  0.00    +0.000 A 
ATOM     12  C   UNL     1     112.178 128.765 135.361  0.00  0.00    +0.000 C 
ATOM     13  C   UNL     1     112.824 129.322 135.252  0.00  0.00    +0.000 C 
ENDROOT
BRANCH   9  14
ATOM     14  C   UNL     1     114.241 129.637 135.413  0.00  0.00    +0.000 A 
ATOM     15  C   UNL     1     114.431 130.171 136.012  0.00  0.00    +0.000 A 
ATOM     16  C   UNL     1     114.679 129.631 134.712  0.00  0.00    +0.000 A 
ATOM     17  C   UNL     1     115.058 130.698 135.912  0.00  0.00    +0.000 A 
ATOM     18  C   UNL     1     115.305 130.158 134.612  0.00  0.00    +0.000 A 
ATOM     19  C   UNL     1     115.495 130.691 135.212  0.00  0.00    +0.000 A 
ENDBRANCH   9  14
BRANCH   5  20
ATOM     20  C   UNL     1     114.223 125.429 137.255  0.00  0.00    +0.000 C 
ATOM     21  C   UNL     1     114.551 124.824 136.800  0.00  0.00    +0.000 C 
ATOM     22  C   UNL     1     114.411 125.493 138.055  0.00  0.00    +0.000 C 
ENDBRANCH   5  20
BRANCH  11  23
ATOM     23  O   UNL     1     110.949 127.678 135.579  0.00  0.00    +0.000 OA
ATOM     24  C   UNL     1     110.331 127.138 135.657  0.00  0.00    +0.000 C 
ENDBRANCH  11  23
TORSDOF 3
ENDMDL
MODEL 3
REMARK VINA RESULT:      -8.5      1.492      2.421
REMARK  Name = 44257204
REMARK  3 active torsions:
REMARK  status: ('A' for Active; 'I' for Inactive)
REMARK    1  A    between atoms: O_3  and  C_13
REMARK    2  A    between atoms: C_6  and  C_12
REMARK    3  A    between atoms: C_10  and  C_16
REMARK                            x       y       z     vdW  Elec       q    Type
REMARK                         _______ _______ _______ _____ _____    ______ ____
ROOT
ATOM      1  O   UNL     1     110.917 128.281 135.138  0.00  0.00    +0.000 OA
ATOM      2  O   UNL     1     112.519 126.305 136.250  0.00  0.00    +0.000 OA
ATOM      3  C   UNL     1     112.062 127.966 135.732  0.00  0.00    +0.000 C 
ATOM      4  C   UNL     1     111.622 127.278 135.652  0.00  0.00    +0.000 A 
ATOM      5  C   UNL     1     111.626 128.584 135.415  0.00  0.00    +0.000 C 
ATOM      6  C   UNL     1     110.911 127.473 135.282  0.00  0.00    +0.000 A 
ATOM      7  C   UNL     1     111.775 126.496 135.866  0.00  0.00    +0.000 A 
ATOM      8  C   UNL     1     111.215 125.909 135.711  0.00  0.00    +0.000 A 
ATOM      9  C   UNL     1     112.683 125.492 136.475  0.00  0.00    +0.000 C 
ATOM     10  C   UNL     1     110.352 126.887 135.128  0.00  0.00    +0.000 A 
ATOM     11  C   UNL     1     110.504 126.105 135.342  0.00  0.00    +0.000 A 
ATOM     12  C   UNL     1     111.362 125.092 135.929  0.00  0.00    +0.000 C 
ATOM     13  C   UNL     1     112.101 124.881 136.314  0.00  0.00    +0.000 C 
ENDROOT
BRANCH   9  14
ATOM     14  C   UNL     1     113.396 125.300 136.844  0.00  0.00    +0.000 A 
ATOM     15  C   UNL     1     113.990 124.915 136.421  0.00  0.00    +0.000 A 
ATOM     16  C   UNL     1     113.514 125.494 137.638  0.00  0.00    +0.000 A 
ATOM     17  C   UNL     1     114.702 124.724 136.791  0.00  0.00    +0.000 A 
ATOM     18  C   UNL     1     114.226 125.302 138.008  0.00  0.00    +0.000 A 
ATOM     19  C   UNL     1     114.820 124.918 137.584  0.00  0.00    +0.000 A 
ENDBRANCH   9  14
BRANCH   5  20
ATOM     20  C   UNL     1     111.862 129.375 135.381  0.00  0.00    +0.000 C 
ATOM     21  C   UNL     1     112.530 129.588 134.946  0.00  0.00    +0.000 C 
ATOM     22  C   UNL     1     111.429 129.952 135.780  0.00  0.00    +0.000 C 
ENDBRANCH   5  20
BRANCH  11  23
ATOM     23  O   UNL     1     109.945 125.519 135.187  0.00  0.00    +0.000 OA
ATOM     24  C   UNL     1     109.264 125.701 134.757  0.00  0.00    +0.000 C 
ENDBRANCH  11  23
TORSDOF 3
ENDMDL
MODEL 4
REMARK VINA RESULT:      -8.4      1.667      4.374
REMARK  Name = 44257204
REMARK  3 active torsions:
REMARK  status: ('A' for Active; 'I' for Inactive)
REMARK    1  A    between atoms: O_3  and  C_13
REMARK    2  A    between atoms: C_6  and  C_12
REMARK    3  A    between atoms: C_10  and  C_16
REMARK                            x       y       z     vdW  Elec       q    Type
REMARK                         _______ _______ _______ _____ _____    ______ ____
ROOT
ATOM      1  O   UNL     1     110.745 125.249 135.909  0.00  0.00    +0.000 OA
ATOM      2  O   UNL     1     112.716 127.193 136.120  0.00  0.00    +0.000 OA
ATOM      3  C   UNL     1     111.100 126.514 135.714  0.00  0.00    +0.000 C 
ATOM      4  C   UNL     1     111.740 126.120 136.044  0.00  0.00    +0.000 A 
ATOM      5  C   UNL     1     110.487 125.976 135.631  0.00  0.00    +0.000 C 
ATOM      6  C   UNL     1     111.519 125.334 136.165  0.00  0.00    +0.000 A 
ATOM      7  C   UNL     1     112.497 126.373 136.251  0.00  0.00    +0.000 A 
ATOM      8  C   UNL     1     113.035 125.839 136.579  0.00  0.00    +0.000 A 
ATOM      9  C   UNL     1     113.503 127.462 136.334  0.00  0.00    +0.000 C 
ATOM     10  C   UNL     1     112.056 124.801 136.493  0.00  0.00    +0.000 A 
ATOM     11  C   UNL     1     112.814 125.053 136.700  0.00  0.00    +0.000 A 
ATOM     12  C   UNL     1     113.826 126.089 136.799  0.00  0.00    +0.000 C 
ATOM     13  C   UNL     1     114.063 126.907 136.676  0.00  0.00    +0.000 C 
ENDROOT
BRANCH   9  14
ATOM     14  C   UNL     1     113.720 128.248 136.212  0.00  0.00    +0.000 A 
ATOM     15  C   UNL     1     113.508 128.826 136.761  0.00  0.00    +0.000 A 
ATOM     16  C   UNL     1     114.150 128.458 135.539  0.00  0.00    +0.000 A 
ATOM     17  C   UNL     1     113.726 129.612 136.638  0.00  0.00    +0.000 A 
ATOM     18  C   UNL     1     114.368 129.244 135.416  0.00  0.00    +0.000 A 
ATOM     19  C   UNL     1     114.155 129.821 135.965  0.00  0.00    +0.000 A 
ENDBRANCH   9  14
BRANCH   5  20
ATOM     20  C   UNL     1     109.738 126.139 135.322  0.00  0.00    +0.000 C 
ATOM     21  C   UNL     1     109.499 125.785 134.616  0.00  0.00    +0.000 C 
ATOM     22  C   UNL     1     109.232 126.654 135.718  0.00  0.00    +0.000 C 
ENDBRANCH   5  20
BRANCH  11  23
ATOM     23  O   UNL     1     113.351 124.520 137.028  0.00  0.00    +0.000 OA
ATOM     24  C   UNL     1     113.136 123.731 137.133  0.00  0.00    +0.000 C 
ENDBRANCH  11  23
TORSDOF 3
ENDMDL
MODEL 5
REMARK VINA RESULT:      -8.4      1.365      3.207
REMARK  Name = 44257204
REMARK  3 active torsions:
REMARK  status: ('A' for Active; 'I' for Inactive)
REMARK    1  A    between atoms: O_3  and  C_13
REMARK    2  A    between atoms: C_6  and  C_12
REMARK    3  A    between atoms: C_10  and  C_16
REMARK                            x       y       z     vdW  Elec       q    Type
REMARK                         _______ _______ _______ _____ _____    ______ ____
ROOT
ATOM      1  O   UNL     1     110.329 127.683 135.321  0.00  0.00    +0.000 OA
ATOM      2  O   UNL     1     112.725 126.669 136.292  0.00  0.00    +0.000 OA
ATOM      3  C   UNL     1     111.043 126.614 135.655  0.00  0.00    +0.000 C 
ATOM      4  C   UNL     1     111.505 127.278 135.792  0.00  0.00    +0.000 A 
ATOM      5  C   UNL     1     110.318 126.864 135.364  0.00  0.00    +0.000 C 
ATOM      6  C   UNL     1     111.061 127.942 135.585  0.00  0.00    +0.000 A 
ATOM      7  C   UNL     1     112.273 127.368 136.080  0.00  0.00    +0.000 A 
ATOM      8  C   UNL     1     112.597 128.123 136.160  0.00  0.00    +0.000 A 
ATOM      9  C   UNL     1     113.525 126.757 136.592  0.00  0.00    +0.000 C 
ATOM     10  C   UNL     1     111.385 128.696 135.665  0.00  0.00    +0.000 A 
ATOM     11  C   UNL     1     112.154 128.787 135.952  0.00  0.00    +0.000 A 
ATOM     12  C   UNL     1     113.395 128.230 136.457  0.00  0.00    +0.000 C 
ATOM     13  C   UNL     1     113.863 127.542 136.675  0.00  0.00    +0.000 C 
ENDROOT
BRANCH   9  14
ATOM     14  C   UNL     1     113.966 126.091 136.798  0.00  0.00    +0.000 A 
ATOM     15  C   UNL     1     114.477 125.747 136.250  0.00  0.00    +0.000 A 
ATOM     16  C   UNL     1     113.895 125.767 137.554  0.00  0.00    +0.000 A 
ATOM     17  C   UNL     1     114.917 125.081 136.457  0.00  0.00    +0.000 A 
ATOM     18  C   UNL     1     114.335 125.101 137.762  0.00  0.00    +0.000 A 
ATOM     19  C   UNL     1     114.846 124.758 137.213  0.00  0.00    +0.000 A 
ENDBRANCH   9  14
BRANCH   5  20
ATOM     20  C   UNL     1     109.687 126.376 135.152  0.00  0.00    +0.000 C 
ATOM     21  C   UNL     1     109.803 125.763 134.612  0.00  0.00    +0.000 C 
ATOM     22  C   UNL     1     108.941 126.501 135.479  0.00  0.00    +0.000 C 
ENDBRANCH   5  20
BRANCH  11  23
ATOM     23  O   UNL     1     112.478 129.541 136.032  0.00  0.00    +0.000 OA
ATOM     24  C   UNL     1     111.986 130.203 136.042  0.00  0.00    +0.000 C 
ENDBRANCH  11  23
TORSDOF 3
ENDMDL
MODEL 6
REMARK VINA RESULT:      -8.3      1.669      3.553
REMARK  Name = 44257204
REMARK  3 active torsions:
REMARK  status: ('A' for Active; 'I' for Inactive)
REMARK    1  A    between atoms: O_3  and  C_13
REMARK    2  A    between atoms: C_6  and  C_12
REMARK    3  A    between atoms: C_10  and  C_16
REMARK                            x       y       z     vdW  Elec       q    Type
REMARK                         _______ _______ _______ _____ _____    ______ ____
ROOT
ATOM      1  O   UNL     1     114.331 127.597 136.433  0.00  0.00    +0.000 OA
ATOM      2  O   UNL     1     111.829 126.498 135.937  0.00  0.00    +0.000 OA
ATOM      3  C   UNL     1     113.100 127.772 135.967  0.00  0.00    +0.000 C 
ATOM      4  C   UNL     1     113.162 126.997 136.229  0.00  0.00    +0.000 A 
ATOM      5  C   UNL     1     113.821 128.142 136.093  0.00  0.00    +0.000 C 
ATOM      6  C   UNL     1     113.927 126.888 136.519  0.00  0.00    +0.000 A 
ATOM      7  C   UNL     1     112.623 126.373 136.242  0.00  0.00    +0.000 A 
ATOM      8  C   UNL     1     112.849 125.639 136.546  0.00  0.00    +0.000 A 
ATOM      9  C   UNL     1     111.264 125.852 135.949  0.00  0.00    +0.000 C 
ATOM     10  C   UNL     1     114.152 126.155 136.822  0.00  0.00    +0.000 A 
ATOM     11  C   UNL     1     113.614 125.530 136.836  0.00  0.00    +0.000 A 
ATOM     12  C   UNL     1     112.297 124.981 136.566  0.00  0.00    +0.000 C 
ATOM     13  C   UNL     1     111.498 125.088 136.265  0.00  0.00    +0.000 C 
ENDROOT
BRANCH   9  14
ATOM     14  C   UNL     1     110.500 125.964 135.658  0.00  0.00    +0.000 A 
ATOM     15  C   UNL     1     109.935 126.351 136.119  0.00  0.00    +0.000 A 
ATOM     16  C   UNL     1     110.300 125.689 134.906  0.00  0.00    +0.000 A 
ATOM     17  C   UNL     1     109.172 126.463 135.827  0.00  0.00    +0.000 A 
ATOM     18  C   UNL     1     109.537 125.801 134.615  0.00  0.00    +0.000 A 
ATOM     19  C   UNL     1     108.973 126.188 135.075  0.00  0.00    +0.000 A 
ENDBRANCH   9  14
BRANCH   5  20
ATOM     20  C   UNL     1     114.002 128.926 135.910  0.00  0.00    +0.000 C 
ATOM     21  C   UNL     1     113.794 129.530 136.433  0.00  0.00    +0.000 C 
ATOM     22  C   UNL     1     114.389 129.106 135.205  0.00  0.00    +0.000 C 
ENDBRANCH   5  20
BRANCH  11  23
ATOM     23  O   UNL     1     113.839 124.798 137.139  0.00  0.00    +0.000 OA
ATOM     24  C   UNL     1     114.619 124.672 137.377  0.00  0.00    +0.000 C 
ENDBRANCH  11  23
TORSDOF 3
ENDMDL
MODEL 7
REMARK VINA RESULT:      -8.2     11.657     13.094
REMARK  Name = 44257204
REMARK  3 active torsions:
REMARK  status: ('A' for Active; 'I' for Inactive)
REMARK    1  A    between atoms: O_3  and  C_13
REMARK    2  A    between atoms: C_6  and  C_12
REMARK    3  A    between atoms: C_10  and  C_16
REMARK                            x       y       z     vdW  Elec       q    Type
REMARK                         _______ _______ _______ _____ _____    ______ ____
ROOT
ATOM      1  O   UNL     1     102.864 134.812 140.998  0.00  0.00    +0.000 OA
ATOM      2  O   UNL     1     102.571 132.053 141.116  0.00  0.00    +0.000 OA
ATOM      3  C   UNL     1     103.269 133.620 140.574  0.00  0.00    +0.000 C 
ATOM      4  C   UNL     1     102.660 133.503 141.112  0.00  0.00    +0.000 A 
ATOM      5  C   UNL     1     103.394 134.428 140.504  0.00  0.00    +0.000 C 
ATOM      6  C   UNL     1     102.409 134.243 141.375  0.00  0.00    +0.000 A 
ATOM      7  C   UNL     1     102.300 132.818 141.398  0.00  0.00    +0.000 A 
ATOM      8  C   UNL     1     101.687 132.874 141.949  0.00  0.00    +0.000 A 
ATOM      9  C   UNL     1     102.199 131.337 141.411  0.00  0.00    +0.000 C 
ATOM     10  C   UNL     1     101.797 134.299 141.925  0.00  0.00    +0.000 A 
ATOM     11  C   UNL     1     101.436 133.615 142.212  0.00  0.00    +0.000 A 
ATOM     12  C   UNL     1     101.304 132.170 142.254  0.00  0.00    +0.000 C 
ATOM     13  C   UNL     1     101.561 131.395 141.984  0.00  0.00    +0.000 C 
ENDROOT
BRANCH   9  14
ATOM     14  C   UNL     1     102.453 130.599 141.145  0.00  0.00    +0.000 A 
ATOM     15  C   UNL     1     103.095 130.228 141.505  0.00  0.00    +0.000 A 
ATOM     16  C   UNL     1     102.064 130.230 140.517  0.00  0.00    +0.000 A 
ATOM     17  C   UNL     1     103.349 129.489 141.239  0.00  0.00    +0.000 A 
ATOM     18  C   UNL     1     102.317 129.492 140.250  0.00  0.00    +0.000 A 
ATOM     19  C   UNL     1     102.959 129.122 140.611  0.00  0.00    +0.000 A 
ENDBRANCH   9  14
BRANCH   5  20
ATOM     20  C   UNL     1     103.956 134.791 140.020  0.00  0.00    +0.000 C 
ATOM     21  C   UNL     1     104.108 134.490 139.267  0.00  0.00    +0.000 C 
ATOM     22  C   UNL     1     104.365 135.454 140.290  0.00  0.00    +0.000 C 
ENDBRANCH   5  20
BRANCH  11  23
ATOM     23  O   UNL     1     100.825 133.670 142.762  0.00  0.00    +0.000 OA
ATOM     24  C   UNL     1     100.710 134.371 143.182  0.00  0.00    +0.000 C 
ENDBRANCH  11  23
TORSDOF 3
ENDMDL
MODEL 8
REMARK VINA RESULT:      -8.1      1.834      2.480
REMARK  Name = 44257204
REMARK  3 active torsions:
REMARK  status: ('A' for Active; 'I' for Inactive)
REMARK    1  A    between atoms: O_3  and  C_13
REMARK    2  A    between atoms: C_6  and  C_12
REMARK    3  A    between atoms: C_10  and  C_16
REMARK                            x       y       z     vdW  Elec       q    Type
REMARK                         _______ _______ _______ _____ _____    ______ ____
ROOT
ATOM      1  O   UNL     1     113.446 129.315 136.675  0.00  0.00    +0.000 OA
ATOM      2  O   UNL     1     112.967 126.619 137.133  0.00  0.00    +0.000 OA
ATOM      3  C   UNL     1     113.295 128.099 136.164  0.00  0.00    +0.000 C 
ATOM      4  C   UNL     1     113.212 128.042 136.979  0.00  0.00    +0.000 A 
ATOM      5  C   UNL     1     113.440 128.884 135.978  0.00  0.00    +0.000 C 
ATOM      6  C   UNL     1     113.306 128.798 137.296  0.00  0.00    +0.000 A 
ATOM      7  C   UNL     1     113.063 127.401 137.476  0.00  0.00    +0.000 A 
ATOM      8  C   UNL     1     113.008 127.516 138.292  0.00  0.00    +0.000 A 
ATOM      9  C   UNL     1     112.812 125.948 137.647  0.00  0.00    +0.000 C 
ATOM     10  C   UNL     1     113.251 128.912 138.111  0.00  0.00    +0.000 A 
ATOM     11  C   UNL     1     113.102 128.272 138.609  0.00  0.00    +0.000 A 
ATOM     12  C   UNL     1     112.853 126.857 138.820  0.00  0.00    +0.000 C 
ATOM     13  C   UNL     1     112.754 126.067 138.495  0.00  0.00    +0.000 C 
ENDROOT
BRANCH   9  14
ATOM     14  C   UNL     1     112.718 125.193 137.326  0.00  0.00    +0.000 A 
ATOM     15  C   UNL     1     111.965 124.915 137.136  0.00  0.00    +0.000 A 
ATOM     16  C   UNL     1     113.379 124.717 137.194  0.00  0.00    +0.000 A 
ATOM     17  C   UNL     1     111.872 124.161 136.815  0.00  0.00    +0.000 A 
ATOM     18  C   UNL     1     113.286 123.962 136.873  0.00  0.00    +0.000 A 
ATOM     19  C   UNL     1     112.533 123.685 136.684  0.00  0.00    +0.000 A 
ENDBRANCH   9  14
BRANCH   5  20
ATOM     20  C   UNL     1     113.558 129.188 135.219  0.00  0.00    +0.000 C 
ATOM     21  C   UNL     1     112.924 129.243 134.694  0.00  0.00    +0.000 C 
ATOM     22  C   UNL     1     114.309 129.437 134.987  0.00  0.00    +0.000 C 
ENDBRANCH   5  20
BRANCH  11  23
ATOM     23  O   UNL     1     113.047 128.386 139.424  0.00  0.00    +0.000 OA
ATOM     24  C   UNL     1     113.219 129.125 139.749  0.00  0.00    +0.000 C 
ENDBRANCH  11  23
TORSDOF 3
ENDMDL
MODEL 9
REMARK VINA RESULT:      -8.1      2.281      3.533
REMARK  Name = 44257204
REMARK  3 active torsions:
REMARK  status: ('A' for Active; 'I' for Inactive)
REMARK    1  A    between atoms: O_3  and  C_13
REMARK    2  A    between atoms: C_6  and  C_12
REMARK    3  A    between atoms: C_10  and  C_16
REMARK                            x       y       z     vdW  Elec       q    Type
REMARK                         _______ _______ _______ _____ _____    ______ ____
ROOT
ATOM      1  O   UNL     1     113.517 128.264 139.662  0.00  0.00    +0.000 OA
ATOM      2  O   UNL     1     112.881 126.254 137.855  0.00  0.00    +0.000 OA
ATOM      3  C   UNL     1     113.394 126.963 139.427  0.00  0.00    +0.000 C 
ATOM      4  C   UNL     1     113.197 127.363 138.738  0.00  0.00    +0.000 A 
ATOM      5  C   UNL     1     113.591 127.519 139.996  0.00  0.00    +0.000 C 
ATOM      6  C   UNL     1     113.273 128.171 138.884  0.00  0.00    +0.000 A 
ATOM      7  C   UNL     1     112.957 127.098 137.995  0.00  0.00    +0.000 A 
ATOM      8  C   UNL     1     112.794 127.643 137.396  0.00  0.00    +0.000 A 
ATOM      9  C   UNL     1     112.632 125.972 137.083  0.00  0.00    +0.000 C 
ATOM     10  C   UNL     1     113.110 128.715 138.286  0.00  0.00    +0.000 A 
ATOM     11  C   UNL     1     112.870 128.451 137.542  0.00  0.00    +0.000 A 
ATOM     12  C   UNL     1     112.543 127.380 136.618  0.00  0.00    +0.000 C 
ATOM     13  C   UNL     1     112.462 126.538 136.460  0.00  0.00    +0.000 C 
ENDROOT
BRANCH   9  14
ATOM     14  C   UNL     1     112.557 125.163 136.941  0.00  0.00    +0.000 A 
ATOM     15  C   UNL     1     111.829 124.790 137.049  0.00  0.00    +0.000 A 
ATOM     16  C   UNL     1     113.211 124.726 136.691  0.00  0.00    +0.000 A 
ATOM     17  C   UNL     1     111.754 123.981 136.907  0.00  0.00    +0.000 A 
ATOM     18  C   UNL     1     113.136 123.916 136.548  0.00  0.00    +0.000 A 
ATOM     19  C   UNL     1     112.408 123.545 136.657  0.00  0.00    +0.000 A 
ENDBRANCH   9  14
BRANCH   5  20
ATOM     20  C   UNL     1     113.825 127.358 140.772  0.00  0.00    +0.000 C 
ATOM     21  C   UNL     1     113.256 127.282 141.366  0.00  0.00    +0.000 C 
ATOM     22  C   UNL     1     114.624 127.272 140.952  0.00  0.00    +0.000 C 
ENDBRANCH   5  20
BRANCH  11  23
ATOM     23  O   UNL     1     112.707 128.995 136.944  0.00  0.00    +0.000 OA
ATOM     24  C   UNL     1     112.796 129.802 137.085  0.00  0.00    +0.000 C 
ENDBRANCH  11  23
TORSDOF 3
ENDMDL
