MODEL 1
REMARK VINA RESULT:      -9.7      0.000      0.000
REMARK  Name = 44257801
REMARK  4 active torsions:
REMARK  status: ('A' for Active; 'I' for Inactive)
REMARK    1  A    between atoms: O_2  and  C_16
REMARK    2  A    between atoms: O_2  and  C_18
REMARK    3  A    between atoms: C_15  and  C_17
REMARK    4  A    between atoms: C_25  and  C_27
REMARK                            x       y       z     vdW  Elec       q    Type
REMARK                         _______ _______ _______ _____ _____    ______ ____
ROOT
ATOM      1  O   UNL     1     112.264 126.499 136.200  0.00  0.00    +0.000 OA
ATOM      2  O   UNL     1     109.744 125.714 135.026  0.00  0.00    +0.000 OA
ATOM      3  O   UNL     1     110.668 124.729 135.532  0.00  0.00    +0.000 OA
ATOM      4  C   UNL     1     110.627 127.750 135.333  0.00  0.00    +0.000 A 
ATOM      5  C   UNL     1     111.370 127.531 135.706  0.00  0.00    +0.000 A 
ATOM      6  C   UNL     1     110.073 127.135 135.102  0.00  0.00    +0.000 A 
ATOM      7  C   UNL     1     111.549 126.702 135.842  0.00  0.00    +0.000 A 
ATOM      8  C   UNL     1     111.017 126.112 135.619  0.00  0.00    +0.000 A 
ATOM      9  C   UNL     1     110.270 126.311 135.245  0.00  0.00    +0.000 A 
ATOM     10  C   UNL     1     111.200 125.319 135.754  0.00  0.00    +0.000 A 
ATOM     11  C   UNL     1     112.447 125.706 136.335  0.00  0.00    +0.000 A 
ATOM     12  C   UNL     1     111.915 125.116 136.113  0.00  0.00    +0.000 A 
ENDROOT
BRANCH  11  14
ATOM     13  O   UNL     1     115.306 124.893 137.769  0.00  0.00    +0.000 OA
ATOM     14  C   UNL     1     113.162 125.503 136.694  0.00  0.00    +0.000 A 
ATOM     15  C   UNL     1     113.788 125.222 136.235  0.00  0.00    +0.000 A 
ATOM     16  C   UNL     1     113.250 125.581 137.511  0.00  0.00    +0.000 A 
ATOM     17  C   UNL     1     114.502 125.019 136.594  0.00  0.00    +0.000 A 
ATOM     18  C   UNL     1     113.965 125.378 137.869  0.00  0.00    +0.000 A 
ATOM     19  C   UNL     1     114.591 125.097 137.410  0.00  0.00    +0.000 A 
ENDBRANCH  11  14
BRANCH   4  20
ATOM     20  O   UNL     1     110.446 128.543 135.199  0.00  0.00    +0.000 OA
BRANCH  20  29
ATOM     21  O   UNL     1     110.069 128.887 136.534  0.00  0.00    +0.000 OA
ATOM     22  O   UNL     1     108.223 130.281 135.654  0.00  0.00    +0.000 OA
ATOM     23  O   UNL     1     109.216 129.473 134.612  0.00  0.00    +0.000 OA
ATOM     24  O   UNL     1     108.461 130.159 137.281  0.00  0.00    +0.000 OA
ATOM     25  C   UNL     1     108.838 129.816 135.947  0.00  0.00    +0.000 C 
ATOM     26  C   UNL     1     109.335 129.412 135.426  0.00  0.00    +0.000 C 
ATOM     27  C   UNL     1     108.958 129.755 136.761  0.00  0.00    +0.000 C 
ATOM     28  C   UNL     1     109.573 129.290 137.054  0.00  0.00    +0.000 C 
ATOM     29  C   UNL     1     109.951 128.947 135.720  0.00  0.00    +0.000 C 
BRANCH  28  32
ATOM     30  O   UNL     1     110.226 129.732 138.246  0.00  0.00    +0.000 OA
ATOM     31  O   UNL     1     109.276 128.667 138.304  0.00  0.00    +0.000 OA
ATOM     32  C   UNL     1     109.692 129.230 137.868  0.00  0.00    +0.000 C 
ENDBRANCH  28  32
ENDBRANCH  20  29
ENDBRANCH   4  20
TORSDOF 4
ENDMDL
MODEL 2
REMARK VINA RESULT:      -9.7      7.227      8.705
REMARK  Name = 44257801
REMARK  4 active torsions:
REMARK  status: ('A' for Active; 'I' for Inactive)
REMARK    1  A    between atoms: O_2  and  C_16
REMARK    2  A    between atoms: O_2  and  C_18
REMARK    3  A    between atoms: C_15  and  C_17
REMARK    4  A    between atoms: C_25  and  C_27
REMARK                            x       y       z     vdW  Elec       q    Type
REMARK                         _______ _______ _______ _____ _____    ______ ____
ROOT
ATOM      1  O   UNL     1     104.762 124.644 139.847  0.00  0.00    +0.000 OA
ATOM      2  O   UNL     1     107.175 123.582 141.029  0.00  0.00    +0.000 OA
ATOM      3  O   UNL     1     106.286 122.739 140.268  0.00  0.00    +0.000 OA
ATOM      4  C   UNL     1     106.336 125.659 141.068  0.00  0.00    +0.000 A 
ATOM      5  C   UNL     1     105.622 125.536 140.604  0.00  0.00    +0.000 A 
ATOM      6  C   UNL     1     106.864 124.997 141.214  0.00  0.00    +0.000 A 
ATOM      7  C   UNL     1     105.448 124.755 140.292  0.00  0.00    +0.000 A 
ATOM      8  C   UNL     1     105.956 124.121 140.432  0.00  0.00    +0.000 A 
ATOM      9  C   UNL     1     106.673 124.223 140.894  0.00  0.00    +0.000 A 
ATOM     10  C   UNL     1     105.778 123.375 140.128  0.00  0.00    +0.000 A 
ATOM     11  C   UNL     1     104.584 123.898 139.543  0.00  0.00    +0.000 A 
ATOM     12  C   UNL     1     105.093 123.264 139.683  0.00  0.00    +0.000 A 
ENDROOT
BRANCH  11  14
ATOM     13  O   UNL     1     101.842 123.454 137.763  0.00  0.00    +0.000 OA
ATOM     14  C   UNL     1     103.899 123.787 139.098  0.00  0.00    +0.000 A 
ATOM     15  C   UNL     1     103.190 123.594 139.473  0.00  0.00    +0.000 A 
ATOM     16  C   UNL     1     103.922 123.869 138.277  0.00  0.00    +0.000 A 
ATOM     17  C   UNL     1     102.505 123.483 139.028  0.00  0.00    +0.000 A 
ATOM     18  C   UNL     1     103.236 123.758 137.832  0.00  0.00    +0.000 A 
ATOM     19  C   UNL     1     102.528 123.565 138.207  0.00  0.00    +0.000 A 
ENDBRANCH  11  14
BRANCH   4  20
ATOM     20  O   UNL     1     106.511 126.406 141.372  0.00  0.00    +0.000 OA
BRANCH  20  29
ATOM     21  O   UNL     1     106.261 126.164 142.758  0.00  0.00    +0.000 OA
ATOM     22  O   UNL     1     105.063 128.324 142.918  0.00  0.00    +0.000 OA
ATOM     23  O   UNL     1     105.712 127.846 141.479  0.00  0.00    +0.000 OA
ATOM     24  O   UNL     1     105.212 127.363 144.250  0.00  0.00    +0.000 OA
ATOM     25  C   UNL     1     105.462 127.604 142.865  0.00  0.00    +0.000 C 
ATOM     26  C   UNL     1     105.787 127.365 142.144  0.00  0.00    +0.000 C 
ATOM     27  C   UNL     1     105.537 127.123 143.531  0.00  0.00    +0.000 C 
ATOM     28  C   UNL     1     105.936 126.403 143.477  0.00  0.00    +0.000 C 
ATOM     29  C   UNL     1     106.186 126.645 142.091  0.00  0.00    +0.000 C 
BRANCH  28  32
ATOM     30  O   UNL     1     105.399 125.410 144.353  0.00  0.00    +0.000 OA
ATOM     31  O   UNL     1     106.696 125.955 144.600  0.00  0.00    +0.000 OA
ATOM     32  C   UNL     1     106.010 125.923 144.143  0.00  0.00    +0.000 C 
ENDBRANCH  28  32
ENDBRANCH  20  29
ENDBRANCH   4  20
TORSDOF 4
ENDMDL
MODEL 3
REMARK VINA RESULT:      -9.5      1.245      1.967
REMARK  Name = 44257801
REMARK  4 active torsions:
REMARK  status: ('A' for Active; 'I' for Inactive)
REMARK    1  A    between atoms: O_2  and  C_16
REMARK    2  A    between atoms: O_2  and  C_18
REMARK    3  A    between atoms: C_15  and  C_17
REMARK    4  A    between atoms: C_25  and  C_27
REMARK                            x       y       z     vdW  Elec       q    Type
REMARK                         _______ _______ _______ _____ _____    ______ ____
ROOT
ATOM      1  O   UNL     1     112.748 127.062 136.250  0.00  0.00    +0.000 OA
ATOM      2  O   UNL     1     113.067 129.769 135.293  0.00  0.00    +0.000 OA
ATOM      3  O   UNL     1     114.195 129.014 135.779  0.00  0.00    +0.000 OA
ATOM      4  C   UNL     1     111.232 128.492 135.441  0.00  0.00    +0.000 A 
ATOM      5  C   UNL     1     111.578 127.777 135.772  0.00  0.00    +0.000 A 
ATOM      6  C   UNL     1     111.735 129.169 135.278  0.00  0.00    +0.000 A 
ATOM      7  C   UNL     1     112.422 127.750 135.933  0.00  0.00    +0.000 A 
ATOM      8  C   UNL     1     112.904 128.401 135.776  0.00  0.00    +0.000 A 
ATOM      9  C   UNL     1     112.576 129.123 135.446  0.00  0.00    +0.000 A 
ATOM     10  C   UNL     1     113.712 128.363 135.936  0.00  0.00    +0.000 A 
ATOM     11  C   UNL     1     113.556 127.024 136.410  0.00  0.00    +0.000 A 
ATOM     12  C   UNL     1     114.039 127.675 136.253  0.00  0.00    +0.000 A 
ENDROOT
BRANCH  11  14
ATOM     13  O   UNL     1     114.861 124.271 137.678  0.00  0.00    +0.000 OA
ATOM     14  C   UNL     1     113.883 126.336 136.727  0.00  0.00    +0.000 A 
ATOM     15  C   UNL     1     114.297 125.814 136.240  0.00  0.00    +0.000 A 
ATOM     16  C   UNL     1     113.794 126.170 137.530  0.00  0.00    +0.000 A 
ATOM     17  C   UNL     1     114.623 125.126 136.558  0.00  0.00    +0.000 A 
ATOM     18  C   UNL     1     114.120 125.481 137.847  0.00  0.00    +0.000 A 
ATOM     19  C   UNL     1     114.535 124.960 137.361  0.00  0.00    +0.000 A 
ENDBRANCH  11  14
BRANCH   4  20
ATOM     20  O   UNL     1     110.423 128.527 135.283  0.00  0.00    +0.000 OA
BRANCH  20  29
ATOM     21  O   UNL     1     110.033 128.914 136.602  0.00  0.00    +0.000 OA
ATOM     22  O   UNL     1     108.199 130.282 135.657  0.00  0.00    +0.000 OA
ATOM     23  O   UNL     1     109.201 129.439 134.653  0.00  0.00    +0.000 OA
ATOM     24  O   UNL     1     108.420 130.213 137.290  0.00  0.00    +0.000 OA
ATOM     25  C   UNL     1     108.810 129.826 135.972  0.00  0.00    +0.000 C 
ATOM     26  C   UNL     1     109.312 129.404 135.470  0.00  0.00    +0.000 C 
ATOM     27  C   UNL     1     108.921 129.791 136.789  0.00  0.00    +0.000 C 
ATOM     28  C   UNL     1     109.532 129.335 137.103  0.00  0.00    +0.000 C 
ATOM     29  C   UNL     1     109.923 128.948 135.785  0.00  0.00    +0.000 C 
BRANCH  28  32
ATOM     30  O   UNL     1     110.113 129.863 138.297  0.00  0.00    +0.000 OA
ATOM     31  O   UNL     1     109.281 128.703 138.360  0.00  0.00    +0.000 OA
ATOM     32  C   UNL     1     109.642 129.300 137.920  0.00  0.00    +0.000 C 
ENDBRANCH  28  32
ENDBRANCH  20  29
ENDBRANCH   4  20
TORSDOF 4
ENDMDL
MODEL 4
REMARK VINA RESULT:      -9.4      7.194     10.383
REMARK  Name = 44257801
REMARK  4 active torsions:
REMARK  status: ('A' for Active; 'I' for Inactive)
REMARK    1  A    between atoms: O_2  and  C_16
REMARK    2  A    between atoms: O_2  and  C_18
REMARK    3  A    between atoms: C_15  and  C_17
REMARK    4  A    between atoms: C_25  and  C_27
REMARK                            x       y       z     vdW  Elec       q    Type
REMARK                         _______ _______ _______ _____ _____    ______ ____
ROOT
ATOM      1  O   UNL     1     103.106 130.296 141.973  0.00  0.00    +0.000 OA
ATOM      2  O   UNL     1     103.693 128.030 140.281  0.00  0.00    +0.000 OA
ATOM      3  O   UNL     1     102.709 129.011 139.895  0.00  0.00    +0.000 OA
ATOM      4  C   UNL     1     104.551 128.616 142.266  0.00  0.00    +0.000 A 
ATOM      5  C   UNL     1     104.106 129.338 142.409  0.00  0.00    +0.000 A 
ATOM      6  C   UNL     1     104.413 128.170 141.544  0.00  0.00    +0.000 A 
ATOM      7  C   UNL     1     103.530 129.603 141.830  0.00  0.00    +0.000 A 
ATOM      8  C   UNL     1     103.398 129.174 141.137  0.00  0.00    +0.000 A 
ATOM      9  C   UNL     1     103.832 128.451 140.977  0.00  0.00    +0.000 A 
ATOM     10  C   UNL     1     102.842 129.439 140.588  0.00  0.00    +0.000 A 
ATOM     11  C   UNL     1     102.550 130.561 141.424  0.00  0.00    +0.000 A 
ATOM     12  C   UNL     1     102.418 130.132 140.732  0.00  0.00    +0.000 A 
ENDROOT
BRANCH  11  14
ATOM     13  O   UNL     1     100.853 133.333 141.997  0.00  0.00    +0.000 OA
ATOM     14  C   UNL     1     102.126 131.254 141.567  0.00  0.00    +0.000 A 
ATOM     15  C   UNL     1     102.464 131.987 141.398  0.00  0.00    +0.000 A 
ATOM     16  C   UNL     1     101.363 131.213 141.880  0.00  0.00    +0.000 A 
ATOM     17  C   UNL     1     102.040 132.679 141.541  0.00  0.00    +0.000 A 
ATOM     18  C   UNL     1     100.939 131.906 142.023  0.00  0.00    +0.000 A 
ATOM     19  C   UNL     1     101.277 132.639 141.854  0.00  0.00    +0.000 A 
ENDBRANCH  11  14
BRANCH   4  20
ATOM     20  O   UNL     1     105.106 128.354 142.817  0.00  0.00    +0.000 OA
BRANCH  20  29
ATOM     21  O   UNL     1     106.214 129.048 142.241  0.00  0.00    +0.000 OA
ATOM     22  O   UNL     1     107.720 127.204 142.917  0.00  0.00    +0.000 OA
ATOM     23  O   UNL     1     106.110 127.124 143.267  0.00  0.00    +0.000 OA
ATOM     24  O   UNL     1     108.326 128.513 142.117  0.00  0.00    +0.000 OA
ATOM     25  C   UNL     1     107.218 127.819 142.692  0.00  0.00    +0.000 C 
ATOM     26  C   UNL     1     106.412 127.779 142.867  0.00  0.00    +0.000 C 
ATOM     27  C   UNL     1     107.521 128.474 142.292  0.00  0.00    +0.000 C 
ATOM     28  C   UNL     1     107.019 129.088 142.066  0.00  0.00    +0.000 C 
ATOM     29  C   UNL     1     105.910 128.394 142.642  0.00  0.00    +0.000 C 
BRANCH  28  32
ATOM     30  O   UNL     1     107.556 130.412 142.088  0.00  0.00    +0.000 OA
ATOM     31  O   UNL     1     107.391 129.727 140.845  0.00  0.00    +0.000 OA
ATOM     32  C   UNL     1     107.322 129.742 141.666  0.00  0.00    +0.000 C 
ENDBRANCH  28  32
ENDBRANCH  20  29
ENDBRANCH   4  20
TORSDOF 4
ENDMDL
MODEL 5
REMARK VINA RESULT:      -9.3      8.455     10.375
REMARK  Name = 44257801
REMARK  4 active torsions:
REMARK  status: ('A' for Active; 'I' for Inactive)
REMARK    1  A    between atoms: O_2  and  C_16
REMARK    2  A    between atoms: O_2  and  C_18
REMARK    3  A    between atoms: C_15  and  C_17
REMARK    4  A    between atoms: C_25  and  C_27
REMARK                            x       y       z     vdW  Elec       q    Type
REMARK                         _______ _______ _______ _____ _____    ______ ____
ROOT
ATOM      1  O   UNL     1     106.615 125.799 146.208  0.00  0.00    +0.000 OA
ATOM      2  O   UNL     1     106.123 128.453 145.179  0.00  0.00    +0.000 OA
ATOM      3  O   UNL     1     106.670 128.257 146.499  0.00  0.00    +0.000 OA
ATOM      4  C   UNL     1     105.788 126.448 144.236  0.00  0.00    +0.000 A 
ATOM      5  C   UNL     1     106.063 125.940 144.873  0.00  0.00    +0.000 A 
ATOM      6  C   UNL     1     105.808 127.301 144.337  0.00  0.00    +0.000 A 
ATOM      7  C   UNL     1     106.353 126.292 145.601  0.00  0.00    +0.000 A 
ATOM      8  C   UNL     1     106.371 127.111 145.697  0.00  0.00    +0.000 A 
ATOM      9  C   UNL     1     106.101 127.635 145.073  0.00  0.00    +0.000 A 
ATOM     10  C   UNL     1     106.651 127.437 146.401  0.00  0.00    +0.000 A 
ATOM     11  C   UNL     1     106.896 126.125 146.912  0.00  0.00    +0.000 A 
ATOM     12  C   UNL     1     106.914 126.944 147.009  0.00  0.00    +0.000 A 
ENDROOT
BRANCH  11  14
ATOM     13  O   UNL     1     107.944 124.154 149.342  0.00  0.00    +0.000 OA
ATOM     14  C   UNL     1     107.158 125.632 147.520  0.00  0.00    +0.000 A 
ATOM     15  C   UNL     1     107.945 125.386 147.541  0.00  0.00    +0.000 A 
ATOM     16  C   UNL     1     106.632 125.386 148.107  0.00  0.00    +0.000 A 
ATOM     17  C   UNL     1     108.206 124.894 148.148  0.00  0.00    +0.000 A 
ATOM     18  C   UNL     1     106.895 124.893 148.714  0.00  0.00    +0.000 A 
ATOM     19  C   UNL     1     107.682 124.647 148.735  0.00  0.00    +0.000 A 
ENDBRANCH  11  14
BRANCH   4  20
ATOM     20  O   UNL     1     105.509 126.119 143.533  0.00  0.00    +0.000 OA
BRANCH  20  29
ATOM     21  O   UNL     1     106.627 126.451 142.708  0.00  0.00    +0.000 OA
ATOM     22  O   UNL     1     106.443 124.258 141.576  0.00  0.00    +0.000 OA
ATOM     23  O   UNL     1     105.386 124.657 142.779  0.00  0.00    +0.000 OA
ATOM     24  O   UNL     1     107.622 125.321 141.129  0.00  0.00    +0.000 OA
ATOM     25  C   UNL     1     106.505 124.989 141.953  0.00  0.00    +0.000 C 
ATOM     26  C   UNL     1     105.976 125.189 142.555  0.00  0.00    +0.000 C 
ATOM     27  C   UNL     1     107.094 125.521 141.730  0.00  0.00    +0.000 C 
ATOM     28  C   UNL     1     107.155 126.252 142.107  0.00  0.00    +0.000 C 
ATOM     29  C   UNL     1     106.037 125.920 142.932  0.00  0.00    +0.000 C 
BRANCH  28  32
ATOM     30  O   UNL     1     108.491 126.745 142.234  0.00  0.00    +0.000 OA
ATOM     31  O   UNL     1     107.589 127.354 141.308  0.00  0.00    +0.000 OA
ATOM     32  C   UNL     1     107.745 126.783 141.883  0.00  0.00    +0.000 C 
ENDBRANCH  28  32
ENDBRANCH  20  29
ENDBRANCH   4  20
TORSDOF 4
ENDMDL
MODEL 6
REMARK VINA RESULT:      -9.2      3.526      5.783
REMARK  Name = 44257801
REMARK  4 active torsions:
REMARK  status: ('A' for Active; 'I' for Inactive)
REMARK    1  A    between atoms: O_2  and  C_16
REMARK    2  A    between atoms: O_2  and  C_18
REMARK    3  A    between atoms: C_15  and  C_17
REMARK    4  A    between atoms: C_25  and  C_27
REMARK                            x       y       z     vdW  Elec       q    Type
REMARK                         _______ _______ _______ _____ _____    ______ ____
ROOT
ATOM      1  O   UNL     1     113.295 128.542 139.774  0.00  0.00    +0.000 OA
ATOM      2  O   UNL     1     112.075 126.165 140.875  0.00  0.00    +0.000 OA
ATOM      3  O   UNL     1     112.744 127.120 141.724  0.00  0.00    +0.000 OA
ATOM      4  C   UNL     1     112.195 126.883 138.756  0.00  0.00    +0.000 A 
ATOM      5  C   UNL     1     112.634 127.614 138.874  0.00  0.00    +0.000 A 
ATOM      6  C   UNL     1     112.004 126.390 139.433  0.00  0.00    +0.000 A 
ATOM      7  C   UNL     1     112.874 127.840 139.667  0.00  0.00    +0.000 A 
ATOM      8  C   UNL     1     112.691 127.366 140.317  0.00  0.00    +0.000 A 
ATOM      9  C   UNL     1     112.254 126.633 140.219  0.00  0.00    +0.000 A 
ATOM     10  C   UNL     1     112.927 127.594 141.074  0.00  0.00    +0.000 A 
ATOM     11  C   UNL     1     113.531 128.770 140.531  0.00  0.00    +0.000 A 
ATOM     12  C   UNL     1     113.348 128.296 141.181  0.00  0.00    +0.000 A 
ENDROOT
BRANCH  11  14
ATOM     13  O   UNL     1     115.213 131.576 140.959  0.00  0.00    +0.000 OA
ATOM     14  C   UNL     1     113.952 129.472 140.638  0.00  0.00    +0.000 A 
ATOM     15  C   UNL     1     113.590 130.118 141.002  0.00  0.00    +0.000 A 
ATOM     16  C   UNL     1     114.734 129.527 140.382  0.00  0.00    +0.000 A 
ATOM     17  C   UNL     1     114.011 130.819 141.109  0.00  0.00    +0.000 A 
ATOM     18  C   UNL     1     115.155 130.228 140.489  0.00  0.00    +0.000 A 
ATOM     19  C   UNL     1     114.793 130.875 140.852  0.00  0.00    +0.000 A 
ENDBRANCH  11  14
BRANCH   4  20
ATOM     20  O   UNL     1     111.960 126.658 137.998  0.00  0.00    +0.000 OA
BRANCH  20  29
ATOM     21  O   UNL     1     113.159 126.003 137.578  0.00  0.00    +0.000 OA
ATOM     22  O   UNL     1     111.813 124.188 136.569  0.00  0.00    +0.000 OA
ATOM     23  O   UNL     1     111.063 125.448 137.325  0.00  0.00    +0.000 OA
ATOM     24  O   UNL     1     113.459 124.138 136.486  0.00  0.00    +0.000 OA
ATOM     25  C   UNL     1     112.262 124.793 136.905  0.00  0.00    +0.000 C 
ATOM     26  C   UNL     1     111.886 125.424 137.284  0.00  0.00    +0.000 C 
ATOM     27  C   UNL     1     113.085 124.769 136.864  0.00  0.00    +0.000 C 
ATOM     28  C   UNL     1     113.534 125.374 137.201  0.00  0.00    +0.000 C 
ATOM     29  C   UNL     1     112.335 126.029 137.620  0.00  0.00    +0.000 C 
BRANCH  28  32
ATOM     30  O   UNL     1     114.750 125.709 136.529  0.00  0.00    +0.000 OA
ATOM     31  O   UNL     1     114.788 124.963 137.747  0.00  0.00    +0.000 OA
ATOM     32  C   UNL     1     114.356 125.349 137.159  0.00  0.00    +0.000 C 
ENDBRANCH  28  32
ENDBRANCH  20  29
ENDBRANCH   4  20
TORSDOF 4
ENDMDL
MODEL 7
REMARK VINA RESULT:      -9.2      2.478      4.100
REMARK  Name = 44257801
REMARK  4 active torsions:
REMARK  status: ('A' for Active; 'I' for Inactive)
REMARK    1  A    between atoms: O_2  and  C_16
REMARK    2  A    between atoms: O_2  and  C_18
REMARK    3  A    between atoms: C_15  and  C_17
REMARK    4  A    between atoms: C_25  and  C_27
REMARK                            x       y       z     vdW  Elec       q    Type
REMARK                         _______ _______ _______ _____ _____    ______ ____
ROOT
ATOM      1  O   UNL     1     112.683 128.340 135.563  0.00  0.00    +0.000 OA
ATOM      2  O   UNL     1     109.920 128.443 134.724  0.00  0.00    +0.000 OA
ATOM      3  O   UNL     1     110.776 129.599 134.612  0.00  0.00    +0.000 OA
ATOM      4  C   UNL     1     111.107 126.756 135.599  0.00  0.00    +0.000 A 
ATOM      5  C   UNL     1     111.866 127.147 135.698  0.00  0.00    +0.000 A 
ATOM      6  C   UNL     1     110.445 127.193 135.269  0.00  0.00    +0.000 A 
ATOM      7  C   UNL     1     111.952 127.970 135.465  0.00  0.00    +0.000 A 
ATOM      8  C   UNL     1     111.316 128.389 135.149  0.00  0.00    +0.000 A 
ATOM      9  C   UNL     1     110.551 128.015 135.042  0.00  0.00    +0.000 A 
ATOM     10  C   UNL     1     111.412 129.179 134.929  0.00  0.00    +0.000 A 
ATOM     11  C   UNL     1     112.778 129.130 135.343  0.00  0.00    +0.000 A 
ATOM     12  C   UNL     1     112.142 129.549 135.026  0.00  0.00    +0.000 A 
ENDROOT
BRANCH  11  14
ATOM     13  O   UNL     1     115.701 130.610 135.733  0.00  0.00    +0.000 OA
ATOM     14  C   UNL     1     113.509 129.500 135.441  0.00  0.00    +0.000 A 
ATOM     15  C   UNL     1     114.113 129.371 134.893  0.00  0.00    +0.000 A 
ATOM     16  C   UNL     1     113.636 129.999 136.086  0.00  0.00    +0.000 A 
ATOM     17  C   UNL     1     114.843 129.741 134.991  0.00  0.00    +0.000 A 
ATOM     18  C   UNL     1     114.367 130.369 136.183  0.00  0.00    +0.000 A 
ATOM     19  C   UNL     1     114.970 130.240 135.636  0.00  0.00    +0.000 A 
ENDBRANCH  11  14
BRANCH   4  20
ATOM     20  O   UNL     1     111.014 125.966 135.819  0.00  0.00    +0.000 OA
BRANCH  20  29
ATOM     21  O   UNL     1     110.509 126.243 137.127  0.00  0.00    +0.000 OA
ATOM     22  O   UNL     1     111.624 124.209 137.989  0.00  0.00    +0.000 OA
ATOM     23  O   UNL     1     111.758 124.610 136.394  0.00  0.00    +0.000 OA
ATOM     24  O   UNL     1     110.747 125.164 139.008  0.00  0.00    +0.000 OA
ATOM     25  C   UNL     1     111.252 124.887 137.701  0.00  0.00    +0.000 C 
ATOM     26  C   UNL     1     111.319 125.088 136.903  0.00  0.00    +0.000 C 
ATOM     27  C   UNL     1     110.813 125.365 138.211  0.00  0.00    +0.000 C 
ATOM     28  C   UNL     1     110.442 126.043 137.924  0.00  0.00    +0.000 C 
ATOM     29  C   UNL     1     110.947 125.766 136.616  0.00  0.00    +0.000 C 
BRANCH  28  32
ATOM     30  O   UNL     1     110.379 127.108 138.874  0.00  0.00    +0.000 OA
ATOM     31  O   UNL     1     109.189 126.409 138.503  0.00  0.00    +0.000 OA
ATOM     32  C   UNL     1     110.004 126.520 138.433  0.00  0.00    +0.000 C 
ENDBRANCH  28  32
ENDBRANCH  20  29
ENDBRANCH   4  20
TORSDOF 4
ENDMDL
MODEL 8
REMARK VINA RESULT:      -9.2      1.935      3.248
REMARK  Name = 44257801
REMARK  4 active torsions:
REMARK  status: ('A' for Active; 'I' for Inactive)
REMARK    1  A    between atoms: O_2  and  C_16
REMARK    2  A    between atoms: O_2  and  C_18
REMARK    3  A    between atoms: C_15  and  C_17
REMARK    4  A    between atoms: C_25  and  C_27
REMARK                            x       y       z     vdW  Elec       q    Type
REMARK                         _______ _______ _______ _____ _____    ______ ____
ROOT
ATOM      1  O   UNL     1     110.338 127.943 135.983  0.00  0.00    +0.000 OA
ATOM      2  O   UNL     1     107.886 129.460 135.809  0.00  0.00    +0.000 OA
ATOM      3  O   UNL     1     107.873 128.018 135.778  0.00  0.00    +0.000 OA
ATOM      4  C   UNL     1     110.008 130.153 136.000  0.00  0.00    +0.000 A 
ATOM      5  C   UNL     1     110.409 129.393 136.019  0.00  0.00    +0.000 A 
ATOM      6  C   UNL     1     109.152 130.179 135.929  0.00  0.00    +0.000 A 
ATOM      7  C   UNL     1     109.948 128.669 135.965  0.00  0.00    +0.000 A 
ATOM      8  C   UNL     1     109.126 128.695 135.897  0.00  0.00    +0.000 A 
ATOM      9  C   UNL     1     108.708 129.445 135.877  0.00  0.00    +0.000 A 
ATOM     10  C   UNL     1     108.695 127.994 135.847  0.00  0.00    +0.000 A 
ATOM     11  C   UNL     1     109.907 127.241 135.933  0.00  0.00    +0.000 A 
ATOM     12  C   UNL     1     109.085 127.267 135.865  0.00  0.00    +0.000 A 
ENDROOT
BRANCH  11  14
ATOM     13  O   UNL     1     111.467 124.335 136.004  0.00  0.00    +0.000 OA
ATOM     14  C   UNL     1     110.297 126.515 135.951  0.00  0.00    +0.000 A 
ATOM     15  C   UNL     1     110.525 126.187 136.673  0.00  0.00    +0.000 A 
ATOM     16  C   UNL     1     110.458 126.116 135.246  0.00  0.00    +0.000 A 
ATOM     17  C   UNL     1     110.915 125.460 136.690  0.00  0.00    +0.000 A 
ATOM     18  C   UNL     1     110.848 125.389 135.264  0.00  0.00    +0.000 A 
ATOM     19  C   UNL     1     111.077 125.061 135.986  0.00  0.00    +0.000 A 
ENDBRANCH  11  14
BRANCH   4  20
ATOM     20  O   UNL     1     110.442 130.853 136.051  0.00  0.00    +0.000 OA
BRANCH  20  29
ATOM     21  O   UNL     1     110.632 130.894 137.467  0.00  0.00    +0.000 OA
ATOM     22  O   UNL     1     110.156 133.323 137.459  0.00  0.00    +0.000 OA
ATOM     23  O   UNL     1     110.124 132.472 136.046  0.00  0.00    +0.000 OA
ATOM     24  O   UNL     1     110.505 132.555 138.877  0.00  0.00    +0.000 OA
ATOM     25  C   UNL     1     110.314 132.514 137.462  0.00  0.00    +0.000 C 
ATOM     26  C   UNL     1     110.299 132.088 136.755  0.00  0.00    +0.000 C 
ATOM     27  C   UNL     1     110.489 132.129 138.170  0.00  0.00    +0.000 C 
ATOM     28  C   UNL     1     110.648 131.320 138.173  0.00  0.00    +0.000 C 
ATOM     29  C   UNL     1     110.458 131.278 136.757  0.00  0.00    +0.000 C 
BRANCH  28  32
ATOM     30  O   UNL     1     111.604 130.879 139.139  0.00  0.00    +0.000 OA
ATOM     31  O   UNL     1     110.215 130.609 139.333  0.00  0.00    +0.000 OA
ATOM     32  C   UNL     1     110.822 130.936 138.881  0.00  0.00    +0.000 C 
ENDBRANCH  28  32
ENDBRANCH  20  29
ENDBRANCH   4  20
TORSDOF 4
ENDMDL
MODEL 9
REMARK VINA RESULT:      -9.1      3.667      4.755
REMARK  Name = 44257801
REMARK  4 active torsions:
REMARK  status: ('A' for Active; 'I' for Inactive)
REMARK    1  A    between atoms: O_2  and  C_16
REMARK    2  A    between atoms: O_2  and  C_18
REMARK    3  A    between atoms: C_15  and  C_17
REMARK    4  A    between atoms: C_25  and  C_27
REMARK                            x       y       z     vdW  Elec       q    Type
REMARK                         _______ _______ _______ _____ _____    ______ ____
ROOT
ATOM      1  O   UNL     1     113.522 126.427 138.865  0.00  0.00    +0.000 OA
ATOM      2  O   UNL     1     110.897 126.242 140.058  0.00  0.00    +0.000 OA
ATOM      3  O   UNL     1     111.196 125.581 138.811  0.00  0.00    +0.000 OA
ATOM      4  C   UNL     1     112.733 127.315 140.759  0.00  0.00    +0.000 A 
ATOM      5  C   UNL     1     113.274 127.112 140.122  0.00  0.00    +0.000 A 
ATOM      6  C   UNL     1     111.926 127.021 140.740  0.00  0.00    +0.000 A 
ATOM      7  C   UNL     1     112.999 126.619 139.474  0.00  0.00    +0.000 A 
ATOM      8  C   UNL     1     112.224 126.337 139.457  0.00  0.00    +0.000 A 
ATOM      9  C   UNL     1     111.670 126.529 140.084  0.00  0.00    +0.000 A 
ATOM     10  C   UNL     1     111.971 125.863 138.830  0.00  0.00    +0.000 A 
ATOM     11  C   UNL     1     113.269 125.954 138.239  0.00  0.00    +0.000 A 
ATOM     12  C   UNL     1     112.494 125.672 138.221  0.00  0.00    +0.000 A 
ENDROOT
BRANCH  11  14
ATOM     13  O   UNL     1     115.360 125.190 135.802  0.00  0.00    +0.000 OA
ATOM     14  C   UNL     1     113.792 125.763 137.630  0.00  0.00    +0.000 A 
ATOM     15  C   UNL     1     114.273 125.095 137.693  0.00  0.00    +0.000 A 
ATOM     16  C   UNL     1     113.833 126.239 136.957  0.00  0.00    +0.000 A 
ATOM     17  C   UNL     1     114.795 124.905 137.084  0.00  0.00    +0.000 A 
ATOM     18  C   UNL     1     114.356 126.048 136.348  0.00  0.00    +0.000 A 
ATOM     19  C   UNL     1     114.837 125.381 136.411  0.00  0.00    +0.000 A 
ENDBRANCH  11  14
BRANCH   4  20
ATOM     20  O   UNL     1     112.988 127.789 141.385  0.00  0.00    +0.000 OA
BRANCH  20  29
ATOM     21  O   UNL     1     112.990 129.060 140.731  0.00  0.00    +0.000 OA
ATOM     22  O   UNL     1     111.935 130.084 142.722  0.00  0.00    +0.000 OA
ATOM     23  O   UNL     1     112.285 128.472 142.712  0.00  0.00    +0.000 OA
ATOM     24  O   UNL     1     112.288 131.013 141.406  0.00  0.00    +0.000 OA
ATOM     25  C   UNL     1     112.287 129.743 142.059  0.00  0.00    +0.000 C 
ATOM     26  C   UNL     1     112.462 128.936 142.053  0.00  0.00    +0.000 C 
ATOM     27  C   UNL     1     112.463 130.207 141.400  0.00  0.00    +0.000 C 
ATOM     28  C   UNL     1     112.815 129.865 140.736  0.00  0.00    +0.000 C 
ATOM     29  C   UNL     1     112.814 128.594 141.390  0.00  0.00    +0.000 C 
BRANCH  28  32
ATOM     30  O   UNL     1     113.745 130.653 139.991  0.00  0.00    +0.000 OA
ATOM     31  O   UNL     1     112.413 130.472 139.507  0.00  0.00    +0.000 OA
ATOM     32  C   UNL     1     112.991 130.330 140.079  0.00  0.00    +0.000 C 
ENDBRANCH  28  32
ENDBRANCH  20  29
ENDBRANCH   4  20
TORSDOF 4
ENDMDL
MODEL 10
REMARK VINA RESULT:      -9.0      2.228      3.137
REMARK  Name = 44257801
REMARK  4 active torsions:
REMARK  status: ('A' for Active; 'I' for Inactive)
REMARK    1  A    between atoms: O_2  and  C_16
REMARK    2  A    between atoms: O_2  and  C_18
REMARK    3  A    between atoms: C_15  and  C_17
REMARK    4  A    between atoms: C_25  and  C_27
REMARK                            x       y       z     vdW  Elec       q    Type
REMARK                         _______ _______ _______ _____ _____    ______ ____
ROOT
ATOM      1  O   UNL     1     111.846 126.758 136.005  0.00  0.00    +0.000 OA
ATOM      2  O   UNL     1     110.025 128.516 134.613  0.00  0.00    +0.000 OA
ATOM      3  O   UNL     1     109.633 127.177 134.978  0.00  0.00    +0.000 OA
ATOM      4  C   UNL     1     112.129 128.861 135.302  0.00  0.00    +0.000 A 
ATOM      5  C   UNL     1     112.291 128.097 135.661  0.00  0.00    +0.000 A 
ATOM      6  C   UNL     1     111.360 129.006 134.945  0.00  0.00    +0.000 A 
ATOM      7  C   UNL     1     111.684 127.489 135.659  0.00  0.00    +0.000 A 
ATOM      8  C   UNL     1     110.947 127.629 135.316  0.00  0.00    +0.000 A 
ATOM      9  C   UNL     1     110.766 128.386 134.953  0.00  0.00    +0.000 A 
ATOM     10  C   UNL     1     110.371 127.038 135.320  0.00  0.00    +0.000 A 
ATOM     11  C   UNL     1     111.271 126.167 136.009  0.00  0.00    +0.000 A 
ATOM     12  C   UNL     1     110.533 126.307 135.666  0.00  0.00    +0.000 A 
ENDROOT
BRANCH  11  14
ATOM     13  O   UNL     1     111.919 123.243 137.393  0.00  0.00    +0.000 OA
ATOM     14  C   UNL     1     111.433 125.436 136.355  0.00  0.00    +0.000 A 
ATOM     15  C   UNL     1     111.344 125.336 137.169  0.00  0.00    +0.000 A 
ATOM     16  C   UNL     1     111.683 124.804 135.886  0.00  0.00    +0.000 A 
ATOM     17  C   UNL     1     111.507 124.605 137.515  0.00  0.00    +0.000 A 
ATOM     18  C   UNL     1     111.845 124.073 136.233  0.00  0.00    +0.000 A 
ATOM     19  C   UNL     1     111.757 123.974 137.047  0.00  0.00    +0.000 A 
ENDBRANCH  11  14
BRANCH   4  20
ATOM     20  O   UNL     1     112.706 129.451 135.299  0.00  0.00    +0.000 OA
BRANCH  20  29
ATOM     21  O   UNL     1     112.225 130.212 136.408  0.00  0.00    +0.000 OA
ATOM     22  O   UNL     1     114.550 130.544 137.189  0.00  0.00    +0.000 OA
ATOM     23  O   UNL     1     114.256 129.672 135.820  0.00  0.00    +0.000 OA
ATOM     24  O   UNL     1     113.294 131.195 138.037  0.00  0.00    +0.000 OA
ATOM     25  C   UNL     1     113.775 130.434 136.929  0.00  0.00    +0.000 C 
ATOM     26  C   UNL     1     113.627 129.997 136.244  0.00  0.00    +0.000 C 
ATOM     27  C   UNL     1     113.146 130.759 137.353  0.00  0.00    +0.000 C 
ATOM     28  C   UNL     1     112.371 130.648 137.092  0.00  0.00    +0.000 C 
ATOM     29  C   UNL     1     112.852 129.886 135.983  0.00  0.00    +0.000 C 
BRANCH  28  32
ATOM     30  O   UNL     1     111.418 130.563 138.154  0.00  0.00    +0.000 OA
ATOM     31  O   UNL     1     111.441 131.711 137.304  0.00  0.00    +0.000 OA
ATOM     32  C   UNL     1     111.744 130.974 137.517  0.00  0.00    +0.000 C 
ENDBRANCH  28  32
ENDBRANCH  20  29
ENDBRANCH   4  20
TORSDOF 4
ENDMDL
