MODEL 1
REMARK VINA RESULT:      -9.8      0.000      0.000
REMARK  Name = 44260015
REMARK  10 active torsions:
REMARK  status: ('A' for Active; 'I' for Inactive)
REMARK    1  A    between atoms: O_1  and  C_19
REMARK    2  A    between atoms: O_1  and  C_22
REMARK    3  A    between atoms: O_5  and  C_24
REMARK    4  A    between atoms: O_5  and  C_31
REMARK    5  A    between atoms: O_10  and  C_29
REMARK    6  A    between atoms: O_10  and  C_34
REMARK    7  A    between atoms: O_11  and  C_32
REMARK    8  A    between atoms: O_17  and  C_46
REMARK    9  A    between atoms: C_23  and  C_29
REMARK   10  A    between atoms: C_40  and  C_43
REMARK                            x       y       z     vdW  Elec       q    Type
REMARK                         _______ _______ _______ _____ _____    ______ ____
ROOT
ATOM      1  O   UNL     1     105.313 128.430 143.195  0.00  0.00    +0.000 OA
ENDROOT
BRANCH   1   6
ATOM      2  O   UNL     1     103.366 130.308 142.116  0.00  0.00    +0.000 OA
ATOM      3  O   UNL     1     103.986 127.898 140.649  0.00  0.00    +0.000 OA
ATOM      4  O   UNL     1     103.027 128.850 140.145  0.00  0.00    +0.000 OA
ATOM      5  O   UNL     1     102.185 130.264 140.281  0.00  0.00    +0.000 OA
ATOM      6  C   UNL     1     104.781 128.648 142.604  0.00  0.00    +0.000 A 
ATOM      7  C   UNL     1     104.340 129.383 142.669  0.00  0.00    +0.000 A 
ATOM      8  C   UNL     1     104.663 128.142 141.920  0.00  0.00    +0.000 A 
ATOM      9  C   UNL     1     103.786 129.602 142.048  0.00  0.00    +0.000 A 
ATOM     10  C   UNL     1     104.105 128.378 141.309  0.00  0.00    +0.000 A 
ATOM     11  C   UNL     1     103.673 129.116 141.391  0.00  0.00    +0.000 A 
ATOM     12  C   UNL     1     103.140 129.336 140.802  0.00  0.00    +0.000 A 
ATOM     13  C   UNL     1     102.833 130.528 141.527  0.00  0.00    +0.000 A 
ATOM     14  C   UNL     1     102.719 130.043 140.869  0.00  0.00    +0.000 A 
BRANCH  13  16
ATOM     15  O   UNL     1     101.151 133.355 141.797  0.00  0.00    +0.000 OA
ATOM     16  C   UNL     1     102.412 131.235 141.595  0.00  0.00    +0.000 A 
ATOM     17  C   UNL     1     102.755 131.944 141.350  0.00  0.00    +0.000 A 
ATOM     18  C   UNL     1     101.649 131.232 141.907  0.00  0.00    +0.000 A 
ATOM     19  C   UNL     1     102.334 132.651 141.417  0.00  0.00    +0.000 A 
ATOM     20  C   UNL     1     101.228 131.939 141.975  0.00  0.00    +0.000 A 
ATOM     21  C   UNL     1     101.571 132.648 141.730  0.00  0.00    +0.000 A 
BRANCH  19  22
ATOM     22  O   UNL     1     102.678 133.360 141.172  0.00  0.00    +0.000 OA
ATOM     23  C   UNL     1     103.470 133.515 141.343  0.00  0.00    +0.000 C 
ENDBRANCH  19  22
ENDBRANCH  13  16
BRANCH   7  24
ATOM     24  O   UNL     1     104.447 129.874 143.322  0.00  0.00    +0.000 OA
ATOM     25  C   UNL     1     103.992 129.762 144.002  0.00  0.00    +0.000 C 
ENDBRANCH   7  24
ENDBRANCH   1   6
BRANCH   1  33
ATOM     26  O   UNL     1     106.540 128.613 142.484  0.00  0.00    +0.000 OA
ATOM     27  O   UNL     1     107.390 126.478 143.403  0.00  0.00    +0.000 OA
ATOM     28  O   UNL     1     108.333 127.372 142.386  0.00  0.00    +0.000 OA
ATOM     29  C   UNL     1     106.352 127.454 143.299  0.00  0.00    +0.000 C 
ATOM     30  C   UNL     1     107.107 127.190 143.097  0.00  0.00    +0.000 C 
ATOM     31  C   UNL     1     107.578 127.636 142.589  0.00  0.00    +0.000 C 
ATOM     32  C   UNL     1     107.294 128.348 142.282  0.00  0.00    +0.000 C 
ATOM     33  C   UNL     1     106.068 128.165 142.993  0.00  0.00    +0.000 C 
BRANCH  29  34
ATOM     34  O   UNL     1     105.881 127.007 143.807  0.00  0.00    +0.000 OA
BRANCH  34  39
ATOM     35  O   UNL     1     106.476 127.647 144.938  0.00  0.00    +0.000 OA
ATOM     36  O   UNL     1     105.117 125.944 144.813  0.00  0.00    +0.000 OA
ATOM     37  O   UNL     1     105.331 126.054 146.445  0.00  0.00    +0.000 OA
ATOM     38  O   UNL     1     106.309 127.226 147.072  0.00  0.00    +0.000 OA
ATOM     39  C   UNL     1     105.988 127.062 144.624  0.00  0.00    +0.000 C 
ATOM     40  C   UNL     1     105.606 126.530 145.127  0.00  0.00    +0.000 C 
ATOM     41  C   UNL     1     105.713 126.585 145.943  0.00  0.00    +0.000 C 
ATOM     42  C   UNL     1     106.202 127.171 146.256  0.00  0.00    +0.000 C 
ATOM     43  C   UNL     1     106.583 127.702 145.754  0.00  0.00    +0.000 C 
ATOM     44  C   UNL     1     107.073 128.288 146.067  0.00  0.00    +0.000 C 
ENDBRANCH  34  39
ENDBRANCH  29  34
BRANCH  32  45
ATOM     45  C   UNL     1     107.766 128.795 141.773  0.00  0.00    +0.000 C 
BRANCH  45  46
ATOM     46  O   UNL     1     107.636 129.606 141.698  0.00  0.00    +0.000 OA
BRANCH  46  48
ATOM     47  O   UNL     1     107.896 129.913 140.326  0.00  0.00    +0.000 OA
ATOM     48  C   UNL     1     108.048 130.039 141.128  0.00  0.00    +0.000 C 
ATOM     49  C   UNL     1     108.610 130.596 141.360  0.00  0.00    +0.000 C 
ENDBRANCH  46  48
ENDBRANCH  45  46
ENDBRANCH  32  45
ENDBRANCH   1  33
TORSDOF 10
ENDMDL
MODEL 2
REMARK VINA RESULT:      -9.6      7.714      9.957
REMARK  Name = 44260015
REMARK  10 active torsions:
REMARK  status: ('A' for Active; 'I' for Inactive)
REMARK    1  A    between atoms: O_1  and  C_19
REMARK    2  A    between atoms: O_1  and  C_22
REMARK    3  A    between atoms: O_5  and  C_24
REMARK    4  A    between atoms: O_5  and  C_31
REMARK    5  A    between atoms: O_10  and  C_29
REMARK    6  A    between atoms: O_10  and  C_34
REMARK    7  A    between atoms: O_11  and  C_32
REMARK    8  A    between atoms: O_17  and  C_46
REMARK    9  A    between atoms: C_23  and  C_29
REMARK   10  A    between atoms: C_40  and  C_43
REMARK                            x       y       z     vdW  Elec       q    Type
REMARK                         _______ _______ _______ _____ _____    ______ ____
ROOT
ATOM      1  O   UNL     1     111.282 127.218 137.749  0.00  0.00    +0.000 OA
ENDROOT
BRANCH   1   6
ATOM      2  O   UNL     1     112.889 128.673 139.693  0.00  0.00    +0.000 OA
ATOM      3  O   UNL     1     111.953 126.014 140.323  0.00  0.00    +0.000 OA
ATOM      4  O   UNL     1     112.751 126.763 141.261  0.00  0.00    +0.000 OA
ATOM      5  O   UNL     1     113.587 128.122 141.687  0.00  0.00    +0.000 OA
ATOM      6  C   UNL     1     111.652 127.258 138.485  0.00  0.00    +0.000 A 
ATOM      7  C   UNL     1     112.089 127.963 138.711  0.00  0.00    +0.000 A 
ATOM      8  C   UNL     1     111.604 126.595 139.029  0.00  0.00    +0.000 A 
ATOM      9  C   UNL     1     112.472 127.994 139.481  0.00  0.00    +0.000 A 
ATOM     10  C   UNL     1     111.994 126.646 139.794  0.00  0.00    +0.000 A 
ATOM     11  C   UNL     1     112.426 127.358 140.003  0.00  0.00    +0.000 A 
ATOM     12  C   UNL     1     112.797 127.400 140.739  0.00  0.00    +0.000 A 
ATOM     13  C   UNL     1     113.261 128.716 140.428  0.00  0.00    +0.000 A 
ATOM     14  C   UNL     1     113.215 128.079 140.951  0.00  0.00    +0.000 A 
BRANCH  13  16
ATOM     15  O   UNL     1     114.931 131.431 141.279  0.00  0.00    +0.000 OA
ATOM     16  C   UNL     1     113.679 129.395 140.641  0.00  0.00    +0.000 A 
ATOM     17  C   UNL     1     113.311 129.982 141.089  0.00  0.00    +0.000 A 
ATOM     18  C   UNL     1     114.464 129.486 140.405  0.00  0.00    +0.000 A 
ATOM     19  C   UNL     1     113.729 130.661 141.301  0.00  0.00    +0.000 A 
ATOM     20  C   UNL     1     114.882 130.165 140.618  0.00  0.00    +0.000 A 
ATOM     21  C   UNL     1     114.514 130.753 141.066  0.00  0.00    +0.000 A 
BRANCH  19  22
ATOM     22  O   UNL     1     113.360 131.248 141.750  0.00  0.00    +0.000 OA
ATOM     23  C   UNL     1     112.633 131.096 142.109  0.00  0.00    +0.000 C 
ENDBRANCH  19  22
ENDBRANCH  13  16
BRANCH   7  24
ATOM     24  O   UNL     1     112.140 128.603 138.195  0.00  0.00    +0.000 OA
ATOM     25  C   UNL     1     111.624 129.242 138.278  0.00  0.00    +0.000 C 
ENDBRANCH   7  24
ENDBRANCH   1   6
BRANCH   1  33
ATOM     26  O   UNL     1     112.116 126.177 137.237  0.00  0.00    +0.000 OA
ATOM     27  O   UNL     1     110.218 125.309 135.907  0.00  0.00    +0.000 OA
ATOM     28  O   UNL     1     111.685 124.558 135.838  0.00  0.00    +0.000 OA
ATOM     29  C   UNL     1     110.749 126.264 136.828  0.00  0.00    +0.000 C 
ATOM     30  C   UNL     1     110.851 125.598 136.351  0.00  0.00    +0.000 C 
ATOM     31  C   UNL     1     111.584 125.223 136.316  0.00  0.00    +0.000 C 
ATOM     32  C   UNL     1     112.217 125.512 136.759  0.00  0.00    +0.000 C 
ATOM     33  C   UNL     1     111.382 126.553 137.271  0.00  0.00    +0.000 C 
BRANCH  29  34
ATOM     34  O   UNL     1     110.016 126.639 136.863  0.00  0.00    +0.000 OA
BRANCH  34  39
ATOM     35  O   UNL     1     110.374 127.444 135.737  0.00  0.00    +0.000 OA
ATOM     36  O   UNL     1     108.529 127.353 136.899  0.00  0.00    +0.000 OA
ATOM     37  O   UNL     1     108.144 128.515 135.792  0.00  0.00    +0.000 OA
ATOM     38  O   UNL     1     109.246 128.962 134.649  0.00  0.00    +0.000 OA
ATOM     39  C   UNL     1     109.824 127.220 136.309  0.00  0.00    +0.000 C 
ATOM     40  C   UNL     1     109.079 127.577 136.327  0.00  0.00    +0.000 C 
ATOM     41  C   UNL     1     108.887 128.158 135.774  0.00  0.00    +0.000 C 
ATOM     42  C   UNL     1     109.439 128.382 135.202  0.00  0.00    +0.000 C 
ATOM     43  C   UNL     1     110.182 128.025 135.184  0.00  0.00    +0.000 C 
ATOM     44  C   UNL     1     110.733 128.248 134.612  0.00  0.00    +0.000 C 
ENDBRANCH  34  39
ENDBRANCH  29  34
BRANCH  32  45
ATOM     45  C   UNL     1     112.951 125.137 136.724  0.00  0.00    +0.000 C 
BRANCH  45  46
ATOM     46  O   UNL     1     113.642 125.586 136.683  0.00  0.00    +0.000 OA
BRANCH  46  48
ATOM     47  O   UNL     1     114.482 124.604 137.295  0.00  0.00    +0.000 OA
ATOM     48  C   UNL     1     114.377 125.218 136.753  0.00  0.00    +0.000 C 
ATOM     49  C   UNL     1     115.007 125.464 136.281  0.00  0.00    +0.000 C 
ENDBRANCH  46  48
ENDBRANCH  45  46
ENDBRANCH  32  45
ENDBRANCH   1  33
TORSDOF 10
ENDMDL
MODEL 3
REMARK VINA RESULT:      -9.6      6.499      8.452
REMARK  Name = 44260015
REMARK  10 active torsions:
REMARK  status: ('A' for Active; 'I' for Inactive)
REMARK    1  A    between atoms: O_1  and  C_19
REMARK    2  A    between atoms: O_1  and  C_22
REMARK    3  A    between atoms: O_5  and  C_24
REMARK    4  A    between atoms: O_5  and  C_31
REMARK    5  A    between atoms: O_10  and  C_29
REMARK    6  A    between atoms: O_10  and  C_34
REMARK    7  A    between atoms: O_11  and  C_32
REMARK    8  A    between atoms: O_17  and  C_46
REMARK    9  A    between atoms: C_23  and  C_29
REMARK   10  A    between atoms: C_40  and  C_43
REMARK                            x       y       z     vdW  Elec       q    Type
REMARK                         _______ _______ _______ _____ _____    ______ ____
ROOT
ATOM      1  O   UNL     1     111.546 127.780 138.023  0.00  0.00    +0.000 OA
ENDROOT
BRANCH   1   6
ATOM      2  O   UNL     1     110.063 130.074 137.014  0.00  0.00    +0.000 OA
ATOM      3  O   UNL     1     109.315 128.893 139.542  0.00  0.00    +0.000 OA
ATOM      4  O   UNL     1     108.603 130.030 139.012  0.00  0.00    +0.000 OA
ATOM      5  O   UNL     1     108.367 131.171 137.842  0.00  0.00    +0.000 OA
ATOM      6  C   UNL     1     110.941 128.334 138.107  0.00  0.00    +0.000 A 
ATOM      7  C   UNL     1     110.814 128.931 137.502  0.00  0.00    +0.000 A 
ATOM      8  C   UNL     1     110.435 128.319 138.801  0.00  0.00    +0.000 A 
ATOM      9  C   UNL     1     110.180 129.504 137.598  0.00  0.00    +0.000 A 
ATOM     10  C   UNL     1     109.806 128.901 138.880  0.00  0.00    +0.000 A 
ATOM     11  C   UNL     1     109.694 129.489 138.264  0.00  0.00    +0.000 A 
ATOM     12  C   UNL     1     109.089 130.045 138.346  0.00  0.00    +0.000 A 
ATOM     13  C   UNL     1     109.459 130.629 137.095  0.00  0.00    +0.000 A 
ATOM     14  C   UNL     1     108.971 130.615 137.761  0.00  0.00    +0.000 A 
BRANCH  13  16
ATOM     15  O   UNL     1     108.988 132.911 134.758  0.00  0.00    +0.000 OA
ATOM     16  C   UNL     1     109.341 131.200 136.511  0.00  0.00    +0.000 A 
ATOM     17  C   UNL     1     109.736 131.923 136.555  0.00  0.00    +0.000 A 
ATOM     18  C   UNL     1     108.828 131.047 135.883  0.00  0.00    +0.000 A 
ATOM     19  C   UNL     1     109.618 132.493 135.970  0.00  0.00    +0.000 A 
ATOM     20  C   UNL     1     108.710 131.617 135.298  0.00  0.00    +0.000 A 
ATOM     21  C   UNL     1     109.105 132.340 135.342  0.00  0.00    +0.000 A 
BRANCH  19  22
ATOM     22  O   UNL     1     110.013 133.217 136.015  0.00  0.00    +0.000 OA
ATOM     23  C   UNL     1     110.583 133.339 136.598  0.00  0.00    +0.000 C 
ENDBRANCH  19  22
ENDBRANCH  13  16
BRANCH   7  24
ATOM     24  O   UNL     1     111.296 128.952 136.833  0.00  0.00    +0.000 OA
ATOM     25  C   UNL     1     111.102 128.500 136.170  0.00  0.00    +0.000 C 
ENDBRANCH   7  24
ENDBRANCH   1   6
BRANCH   1  33
ATOM     26  O   UNL     1     112.491 128.331 138.943  0.00  0.00    +0.000 OA
ATOM     27  O   UNL     1     112.974 126.062 139.806  0.00  0.00    +0.000 OA
ATOM     28  O   UNL     1     113.757 127.370 140.439  0.00  0.00    +0.000 OA
ATOM     29  C   UNL     1     112.260 126.921 138.915  0.00  0.00    +0.000 C 
ATOM     30  C   UNL     1     112.813 126.819 139.519  0.00  0.00    +0.000 C 
ATOM     31  C   UNL     1     113.204 127.472 139.835  0.00  0.00    +0.000 C 
ATOM     32  C   UNL     1     113.043 128.228 139.547  0.00  0.00    +0.000 C 
ATOM     33  C   UNL     1     112.099 127.677 138.627  0.00  0.00    +0.000 C 
BRANCH  29  34
ATOM     34  O   UNL     1     111.868 126.268 138.598  0.00  0.00    +0.000 OA
BRANCH  34  39
ATOM     35  O   UNL     1     112.924 126.070 137.655  0.00  0.00    +0.000 OA
ATOM     36  O   UNL     1     111.242 124.792 138.206  0.00  0.00    +0.000 OA
ATOM     37  O   UNL     1     111.985 123.858 137.067  0.00  0.00    +0.000 OA
ATOM     38  O   UNL     1     113.353 124.398 136.320  0.00  0.00    +0.000 OA
ATOM     39  C   UNL     1     112.240 125.800 138.029  0.00  0.00    +0.000 C 
ATOM     40  C   UNL     1     111.926 125.062 137.832  0.00  0.00    +0.000 C 
ATOM     41  C   UNL     1     112.298 124.595 137.263  0.00  0.00    +0.000 C 
ATOM     42  C   UNL     1     112.982 124.866 136.890  0.00  0.00    +0.000 C 
ATOM     43  C   UNL     1     113.295 125.603 137.086  0.00  0.00    +0.000 C 
ATOM     44  C   UNL     1     113.979 125.874 136.713  0.00  0.00    +0.000 C 
ENDBRANCH  34  39
ENDBRANCH  29  34
BRANCH  32  45
ATOM     45  C   UNL     1     113.435 128.882 139.863  0.00  0.00    +0.000 C 
BRANCH  45  46
ATOM     46  O   UNL     1     113.539 129.561 139.406  0.00  0.00    +0.000 OA
BRANCH  46  48
ATOM     47  O   UNL     1     113.333 130.662 140.295  0.00  0.00    +0.000 OA
ATOM     48  C   UNL     1     113.811 130.257 139.757  0.00  0.00    +0.000 C 
ATOM     49  C   UNL     1     114.560 130.547 139.570  0.00  0.00    +0.000 C 
ENDBRANCH  46  48
ENDBRANCH  45  46
ENDBRANCH  32  45
ENDBRANCH   1  33
TORSDOF 10
ENDMDL
MODEL 4
REMARK VINA RESULT:      -9.5      7.012     10.239
REMARK  Name = 44260015
REMARK  10 active torsions:
REMARK  status: ('A' for Active; 'I' for Inactive)
REMARK    1  A    between atoms: O_1  and  C_19
REMARK    2  A    between atoms: O_1  and  C_22
REMARK    3  A    between atoms: O_5  and  C_24
REMARK    4  A    between atoms: O_5  and  C_31
REMARK    5  A    between atoms: O_10  and  C_29
REMARK    6  A    between atoms: O_10  and  C_34
REMARK    7  A    between atoms: O_11  and  C_32
REMARK    8  A    between atoms: O_17  and  C_46
REMARK    9  A    between atoms: C_23  and  C_29
REMARK   10  A    between atoms: C_40  and  C_43
REMARK                            x       y       z     vdW  Elec       q    Type
REMARK                         _______ _______ _______ _____ _____    ______ ____
ROOT
ATOM      1  O   UNL     1     110.549 129.575 137.253  0.00  0.00    +0.000 OA
ENDROOT
BRANCH   1   6
ATOM      2  O   UNL     1     111.544 126.856 137.568  0.00  0.00    +0.000 OA
ATOM      3  O   UNL     1     111.358 128.583 139.877  0.00  0.00    +0.000 OA
ATOM      4  O   UNL     1     111.846 127.231 139.996  0.00  0.00    +0.000 OA
ATOM      5  O   UNL     1     112.232 125.769 139.332  0.00  0.00    +0.000 OA
ATOM      6  C   UNL     1     110.843 128.971 137.733  0.00  0.00    +0.000 A 
ATOM      7  C   UNL     1     111.045 128.209 137.392  0.00  0.00    +0.000 A 
ATOM      8  C   UNL     1     110.947 129.102 138.575  0.00  0.00    +0.000 A 
ATOM      9  C   UNL     1     111.351 127.586 137.900  0.00  0.00    +0.000 A 
ATOM     10  C   UNL     1     111.254 128.467 139.067  0.00  0.00    +0.000 A 
ATOM     11  C   UNL     1     111.452 127.711 138.710  0.00  0.00    +0.000 A 
ATOM     12  C   UNL     1     111.745 127.106 139.187  0.00  0.00    +0.000 A 
ATOM     13  C   UNL     1     111.838 126.251 138.046  0.00  0.00    +0.000 A 
ATOM     14  C   UNL     1     111.939 126.375 138.855  0.00  0.00    +0.000 A 
BRANCH  13  16
ATOM     15  O   UNL     1     112.611 123.330 136.719  0.00  0.00    +0.000 OA
ATOM     16  C   UNL     1     112.031 125.521 137.714  0.00  0.00    +0.000 A 
ATOM     17  C   UNL     1     112.794 125.384 137.433  0.00  0.00    +0.000 A 
ATOM     18  C   UNL     1     111.460 124.927 137.664  0.00  0.00    +0.000 A 
ATOM     19  C   UNL     1     112.987 124.654 137.101  0.00  0.00    +0.000 A 
ATOM     20  C   UNL     1     111.654 124.196 137.332  0.00  0.00    +0.000 A 
ATOM     21  C   UNL     1     112.417 124.060 137.051  0.00  0.00    +0.000 A 
BRANCH  19  22
ATOM     22  O   UNL     1     113.752 124.518 136.820  0.00  0.00    +0.000 OA
ATOM     23  C   UNL     1     114.162 125.122 136.435  0.00  0.00    +0.000 C 
ENDBRANCH  19  22
ENDBRANCH  13  16
BRANCH   7  24
ATOM     24  O   UNL     1     110.948 128.075 136.584  0.00  0.00    +0.000 OA
ATOM     25  C   UNL     1     110.224 127.803 136.295  0.00  0.00    +0.000 C 
ENDBRANCH   7  24
ENDBRANCH   1   6
BRANCH   1  33
ATOM     26  O   UNL     1     111.747 130.342 137.118  0.00  0.00    +0.000 OA
ATOM     27  O   UNL     1     110.442 132.428 137.379  0.00  0.00    +0.000 OA
ATOM     28  O   UNL     1     112.075 132.499 137.158  0.00  0.00    +0.000 OA
ATOM     29  C   UNL     1     110.495 131.002 137.316  0.00  0.00    +0.000 C 
ATOM     30  C   UNL     1     110.877 131.732 137.292  0.00  0.00    +0.000 C 
ATOM     31  C   UNL     1     111.693 131.768 137.182  0.00  0.00    +0.000 C 
ATOM     32  C   UNL     1     112.128 131.073 137.095  0.00  0.00    +0.000 C 
ATOM     33  C   UNL     1     110.930 130.306 137.229  0.00  0.00    +0.000 C 
BRANCH  29  34
ATOM     34  O   UNL     1     109.679 130.966 137.427  0.00  0.00    +0.000 OA
BRANCH  34  39
ATOM     35  O   UNL     1     109.436 131.030 136.020  0.00  0.00    +0.000 OA
ATOM     36  O   UNL     1     108.128 131.450 137.716  0.00  0.00    +0.000 OA
ATOM     37  O   UNL     1     107.111 131.757 136.454  0.00  0.00    +0.000 OA
ATOM     38  O   UNL     1     107.644 131.579 134.902  0.00  0.00    +0.000 OA
ATOM     39  C   UNL     1     109.170 131.119 136.796  0.00  0.00    +0.000 C 
ATOM     40  C   UNL     1     108.394 131.362 136.940  0.00  0.00    +0.000 C 
ATOM     41  C   UNL     1     107.885 131.515 136.309  0.00  0.00    +0.000 C 
ATOM     42  C   UNL     1     108.152 131.426 135.533  0.00  0.00    +0.000 C 
ATOM     43  C   UNL     1     108.927 131.184 135.389  0.00  0.00    +0.000 C 
ATOM     44  C   UNL     1     109.194 131.094 134.613  0.00  0.00    +0.000 C 
ENDBRANCH  34  39
ENDBRANCH  29  34
BRANCH  32  45
ATOM     45  C   UNL     1     112.946 131.108 136.984  0.00  0.00    +0.000 C 
BRANCH  45  46
ATOM     46  O   UNL     1     113.326 130.529 136.537  0.00  0.00    +0.000 OA
BRANCH  46  48
ATOM     47  O   UNL     1     114.592 130.520 137.203  0.00  0.00    +0.000 OA
ATOM     48  C   UNL     1     114.151 130.509 136.505  0.00  0.00    +0.000 C 
ATOM     49  C   UNL     1     114.534 130.476 135.775  0.00  0.00    +0.000 C 
ENDBRANCH  46  48
ENDBRANCH  45  46
ENDBRANCH  32  45
ENDBRANCH   1  33
TORSDOF 10
ENDMDL
MODEL 5
REMARK VINA RESULT:      -9.5      6.412      9.523
REMARK  Name = 44260015
REMARK  10 active torsions:
REMARK  status: ('A' for Active; 'I' for Inactive)
REMARK    1  A    between atoms: O_1  and  C_19
REMARK    2  A    between atoms: O_1  and  C_22
REMARK    3  A    between atoms: O_5  and  C_24
REMARK    4  A    between atoms: O_5  and  C_31
REMARK    5  A    between atoms: O_10  and  C_29
REMARK    6  A    between atoms: O_10  and  C_34
REMARK    7  A    between atoms: O_11  and  C_32
REMARK    8  A    between atoms: O_17  and  C_46
REMARK    9  A    between atoms: C_23  and  C_29
REMARK   10  A    between atoms: C_40  and  C_43
REMARK                            x       y       z     vdW  Elec       q    Type
REMARK                         _______ _______ _______ _____ _____    ______ ____
ROOT
ATOM      1  O   UNL     1     110.423 129.513 138.370  0.00  0.00    +0.000 OA
ENDROOT
BRANCH   1   6
ATOM      2  O   UNL     1     111.416 126.835 137.804  0.00  0.00    +0.000 OA
ATOM      3  O   UNL     1     109.340 127.196 139.780  0.00  0.00    +0.000 OA
ATOM      4  O   UNL     1     109.856 125.884 139.474  0.00  0.00    +0.000 OA
ATOM      5  O   UNL     1     110.870 124.890 138.632  0.00  0.00    +0.000 OA
ATOM      6  C   UNL     1     110.407 128.699 138.509  0.00  0.00    +0.000 A 
ATOM      7  C   UNL     1     110.933 128.177 138.073  0.00  0.00    +0.000 A 
ATOM      8  C   UNL     1     109.866 128.370 139.088  0.00  0.00    +0.000 A 
ATOM      9  C   UNL     1     110.910 127.331 138.224  0.00  0.00    +0.000 A 
ATOM     10  C   UNL     1     109.857 127.521 139.225  0.00  0.00    +0.000 A 
ATOM     11  C   UNL     1     110.390 127.014 138.781  0.00  0.00    +0.000 A 
ATOM     12  C   UNL     1     110.376 126.201 138.917  0.00  0.00    +0.000 A 
ATOM     13  C   UNL     1     111.403 126.021 137.940  0.00  0.00    +0.000 A 
ATOM     14  C   UNL     1     110.883 125.704 138.497  0.00  0.00    +0.000 A 
BRANCH  13  16
ATOM     15  O   UNL     1     113.430 124.033 136.259  0.00  0.00    +0.000 OA
ATOM     16  C   UNL     1     111.910 125.524 137.519  0.00  0.00    +0.000 A 
ATOM     17  C   UNL     1     112.687 125.415 137.775  0.00  0.00    +0.000 A 
ATOM     18  C   UNL     1     111.639 125.135 136.844  0.00  0.00    +0.000 A 
ATOM     19  C   UNL     1     113.193 124.918 137.354  0.00  0.00    +0.000 A 
ATOM     20  C   UNL     1     112.146 124.638 136.423  0.00  0.00    +0.000 A 
ATOM     21  C   UNL     1     112.923 124.530 136.678  0.00  0.00    +0.000 A 
BRANCH  19  22
ATOM     22  O   UNL     1     113.971 124.810 137.610  0.00  0.00    +0.000 OA
ATOM     23  C   UNL     1     114.434 125.464 137.808  0.00  0.00    +0.000 C 
ENDBRANCH  19  22
ENDBRANCH  13  16
BRANCH   7  24
ATOM     24  O   UNL     1     111.456 128.485 137.515  0.00  0.00    +0.000 OA
ATOM     25  C   UNL     1     111.212 128.585 136.733  0.00  0.00    +0.000 C 
ENDBRANCH   7  24
ENDBRANCH   1   6
BRANCH   1  33
ATOM     26  O   UNL     1     111.052 129.937 139.581  0.00  0.00    +0.000 OA
ATOM     27  O   UNL     1     109.453 131.818 139.753  0.00  0.00    +0.000 OA
ATOM     28  O   UNL     1     110.615 131.615 140.907  0.00  0.00    +0.000 OA
ATOM     29  C   UNL     1     109.937 130.666 139.061  0.00  0.00    +0.000 C 
ATOM     30  C   UNL     1     109.986 131.191 139.696  0.00  0.00    +0.000 C 
ATOM     31  C   UNL     1     110.566 131.090 140.272  0.00  0.00    +0.000 C 
ATOM     32  C   UNL     1     111.099 130.463 140.215  0.00  0.00    +0.000 C 
ATOM     33  C   UNL     1     110.470 130.038 139.004  0.00  0.00    +0.000 C 
BRANCH  29  34
ATOM     34  O   UNL     1     109.357 130.767 138.485  0.00  0.00    +0.000 OA
BRANCH  34  39
ATOM     35  O   UNL     1     110.212 131.659 137.768  0.00  0.00    +0.000 OA
ATOM     36  O   UNL     1     108.112 131.143 137.468  0.00  0.00    +0.000 OA
ATOM     37  O   UNL     1     108.346 132.223 136.243  0.00  0.00    +0.000 OA
ATOM     38  O   UNL     1     109.824 132.927 136.035  0.00  0.00    +0.000 OA
ATOM     39  C   UNL     1     109.473 131.307 137.872  0.00  0.00    +0.000 C 
ATOM     40  C   UNL     1     108.851 131.495 137.363  0.00  0.00    +0.000 C 
ATOM     41  C   UNL     1     108.968 132.035 136.751  0.00  0.00    +0.000 C 
ATOM     42  C   UNL     1     109.707 132.387 136.647  0.00  0.00    +0.000 C 
ATOM     43  C   UNL     1     110.328 132.199 137.155  0.00  0.00    +0.000 C 
ATOM     44  C   UNL     1     111.068 132.551 137.051  0.00  0.00    +0.000 C 
ENDBRANCH  34  39
ENDBRANCH  29  34
BRANCH  32  45
ATOM     45  C   UNL     1     111.681 130.361 140.792  0.00  0.00    +0.000 C 
BRANCH  45  46
ATOM     46  O   UNL     1     112.426 130.076 140.580  0.00  0.00    +0.000 OA
BRANCH  46  48
ATOM     47  O   UNL     1     112.803 129.375 141.768  0.00  0.00    +0.000 OA
ATOM     48  C   UNL     1     112.984 129.908 141.165  0.00  0.00    +0.000 C 
ATOM     49  C   UNL     1     113.723 130.274 141.145  0.00  0.00    +0.000 C 
ENDBRANCH  46  48
ENDBRANCH  45  46
ENDBRANCH  32  45
ENDBRANCH   1  33
TORSDOF 10
ENDMDL
MODEL 6
REMARK VINA RESULT:      -9.5      5.354      9.149
REMARK  Name = 44260015
REMARK  10 active torsions:
REMARK  status: ('A' for Active; 'I' for Inactive)
REMARK    1  A    between atoms: O_1  and  C_19
REMARK    2  A    between atoms: O_1  and  C_22
REMARK    3  A    between atoms: O_5  and  C_24
REMARK    4  A    between atoms: O_5  and  C_31
REMARK    5  A    between atoms: O_10  and  C_29
REMARK    6  A    between atoms: O_10  and  C_34
REMARK    7  A    between atoms: O_11  and  C_32
REMARK    8  A    between atoms: O_17  and  C_46
REMARK    9  A    between atoms: C_23  and  C_29
REMARK   10  A    between atoms: C_40  and  C_43
REMARK                            x       y       z     vdW  Elec       q    Type
REMARK                         _______ _______ _______ _____ _____    ______ ____
ROOT
ATOM      1  O   UNL     1     110.867 129.777 138.976  0.00  0.00    +0.000 OA
ENDROOT
BRANCH   1   6
ATOM      2  O   UNL     1     111.696 127.390 137.528  0.00  0.00    +0.000 OA
ATOM      3  O   UNL     1     113.126 129.868 137.128  0.00  0.00    +0.000 OA
ATOM      4  O   UNL     1     113.509 128.666 136.428  0.00  0.00    +0.000 OA
ATOM      5  O   UNL     1     113.304 127.064 136.088  0.00  0.00    +0.000 OA
ATOM      6  C   UNL     1     111.371 129.405 138.439  0.00  0.00    +0.000 A 
ATOM      7  C   UNL     1     111.269 128.570 138.259  0.00  0.00    +0.000 A 
ATOM      8  C   UNL     1     112.000 129.847 138.057  0.00  0.00    +0.000 A 
ATOM      9  C   UNL     1     111.798 128.190 137.698  0.00  0.00    +0.000 A 
ATOM     10  C   UNL     1     112.519 129.450 137.499  0.00  0.00    +0.000 A 
ATOM     11  C   UNL     1     112.403 128.616 137.331  0.00  0.00    +0.000 A 
ATOM     12  C   UNL     1     112.904 128.241 136.794  0.00  0.00    +0.000 A 
ATOM     13  C   UNL     1     112.197 127.015 136.992  0.00  0.00    +0.000 A 
ATOM     14  C   UNL     1     112.802 127.440 136.625  0.00  0.00    +0.000 A 
BRANCH  13  16
ATOM     15  O   UNL     1     111.788 123.812 136.312  0.00  0.00    +0.000 OA
ATOM     16  C   UNL     1     112.095 126.214 136.822  0.00  0.00    +0.000 A 
ATOM     17  C   UNL     1     111.519 125.977 136.281  0.00  0.00    +0.000 A 
ATOM     18  C   UNL     1     112.569 125.650 137.193  0.00  0.00    +0.000 A 
ATOM     19  C   UNL     1     111.417 125.176 136.111  0.00  0.00    +0.000 A 
ATOM     20  C   UNL     1     112.467 124.849 137.024  0.00  0.00    +0.000 A 
ATOM     21  C   UNL     1     111.891 124.612 136.482  0.00  0.00    +0.000 A 
BRANCH  19  22
ATOM     22  O   UNL     1     110.841 124.940 135.569  0.00  0.00    +0.000 OA
ATOM     23  C   UNL     1     110.326 125.498 135.247  0.00  0.00    +0.000 C 
ENDBRANCH  19  22
ENDBRANCH  13  16
BRANCH   7  24
ATOM     24  O   UNL     1     110.668 128.138 138.621  0.00  0.00    +0.000 OA
ATOM     25  C   UNL     1     110.805 127.765 139.344  0.00  0.00    +0.000 C 
ENDBRANCH   7  24
ENDBRANCH   1   6
BRANCH   1  33
ATOM     26  O   UNL     1     110.040 130.476 138.044  0.00  0.00    +0.000 OA
ATOM     27  O   UNL     1     110.075 132.471 139.509  0.00  0.00    +0.000 OA
ATOM     28  O   UNL     1     109.235 132.505 138.089  0.00  0.00    +0.000 OA
ATOM     29  C   UNL     1     110.471 131.124 139.243  0.00  0.00    +0.000 C 
ATOM     30  C   UNL     1     110.063 131.806 139.021  0.00  0.00    +0.000 C 
ATOM     31  C   UNL     1     109.644 131.823 138.311  0.00  0.00    +0.000 C 
ATOM     32  C   UNL     1     109.632 131.158 137.823  0.00  0.00    +0.000 C 
ATOM     33  C   UNL     1     110.460 130.459 138.755  0.00  0.00    +0.000 C 
BRANCH  29  34
ATOM     34  O   UNL     1     110.891 131.107 139.953  0.00  0.00    +0.000 OA
BRANCH  34  39
ATOM     35  O   UNL     1     109.711 130.703 140.650  0.00  0.00    +0.000 OA
ATOM     36  O   UNL     1     111.677 131.290 141.392  0.00  0.00    +0.000 OA
ATOM     37  O   UNL     1     110.890 130.978 142.808  0.00  0.00    +0.000 OA
ATOM     38  O   UNL     1     109.317 130.482 142.785  0.00  0.00    +0.000 OA
ATOM     39  C   UNL     1     110.497 130.951 140.661  0.00  0.00    +0.000 C 
ATOM     40  C   UNL     1     110.891 131.042 141.381  0.00  0.00    +0.000 C 
ATOM     41  C   UNL     1     110.497 130.886 142.089  0.00  0.00    +0.000 C 
ATOM     42  C   UNL     1     109.710 130.638 142.077  0.00  0.00    +0.000 C 
ATOM     43  C   UNL     1     109.317 130.546 141.358  0.00  0.00    +0.000 C 
ATOM     44  C   UNL     1     108.530 130.298 141.346  0.00  0.00    +0.000 C 
ENDBRANCH  34  39
ENDBRANCH  29  34
BRANCH  32  45
ATOM     45  C   UNL     1     109.212 131.175 137.112  0.00  0.00    +0.000 C 
BRANCH  45  46
ATOM     46  O   UNL     1     108.882 130.481 136.813  0.00  0.00    +0.000 OA
BRANCH  46  48
ATOM     47  O   UNL     1     107.721 130.656 135.997  0.00  0.00    +0.000 OA
ATOM     48  C   UNL     1     108.524 130.483 136.069  0.00  0.00    +0.000 C 
ATOM     49  C   UNL     1     108.971 130.311 135.397  0.00  0.00    +0.000 C 
ENDBRANCH  46  48
ENDBRANCH  45  46
ENDBRANCH  32  45
ENDBRANCH   1  33
TORSDOF 10
ENDMDL
MODEL 7
REMARK VINA RESULT:      -9.4      7.224      8.836
REMARK  Name = 44260015
REMARK  10 active torsions:
REMARK  status: ('A' for Active; 'I' for Inactive)
REMARK    1  A    between atoms: O_1  and  C_19
REMARK    2  A    between atoms: O_1  and  C_22
REMARK    3  A    between atoms: O_5  and  C_24
REMARK    4  A    between atoms: O_5  and  C_31
REMARK    5  A    between atoms: O_10  and  C_29
REMARK    6  A    between atoms: O_10  and  C_34
REMARK    7  A    between atoms: O_11  and  C_32
REMARK    8  A    between atoms: O_17  and  C_46
REMARK    9  A    between atoms: C_23  and  C_29
REMARK   10  A    between atoms: C_40  and  C_43
REMARK                            x       y       z     vdW  Elec       q    Type
REMARK                         _______ _______ _______ _____ _____    ______ ____
ROOT
ATOM      1  O   UNL     1     112.825 129.273 138.956  0.00  0.00    +0.000 OA
ENDROOT
BRANCH   1   6
ATOM      2  O   UNL     1     110.827 129.786 136.901  0.00  0.00    +0.000 OA
ATOM      3  O   UNL     1     113.174 128.234 136.249  0.00  0.00    +0.000 OA
ATOM      4  O   UNL     1     112.164 128.507 135.257  0.00  0.00    +0.000 OA
ATOM      5  O   UNL     1     110.732 129.191 134.802  0.00  0.00    +0.000 OA
ATOM      6  C   UNL     1     112.558 129.187 138.180  0.00  0.00    +0.000 A 
ATOM      7  C   UNL     1     111.813 129.540 137.938  0.00  0.00    +0.000 A 
ATOM      8  C   UNL     1     113.022 128.743 137.610  0.00  0.00    +0.000 A 
ATOM      9  C   UNL     1     111.542 129.445 137.127  0.00  0.00    +0.000 A 
ATOM     10  C   UNL     1     112.735 128.658 136.803  0.00  0.00    +0.000 A 
ATOM     11  C   UNL     1     111.988 129.018 136.579  0.00  0.00    +0.000 A 
ATOM     12  C   UNL     1     111.718 128.934 135.804  0.00  0.00    +0.000 A 
ATOM     13  C   UNL     1     110.557 129.701 136.126  0.00  0.00    +0.000 A 
ATOM     14  C   UNL     1     111.002 129.275 135.577  0.00  0.00    +0.000 A 
BRANCH  13  16
ATOM     15  O   UNL     1     107.694 131.068 135.216  0.00  0.00    +0.000 OA
ATOM     16  C   UNL     1     109.841 130.043 135.898  0.00  0.00    +0.000 A 
ATOM     17  C   UNL     1     109.823 130.822 135.628  0.00  0.00    +0.000 A 
ATOM     18  C   UNL     1     109.143 129.605 135.941  0.00  0.00    +0.000 A 
ATOM     19  C   UNL     1     109.107 131.164 135.401  0.00  0.00    +0.000 A 
ATOM     20  C   UNL     1     108.427 129.946 135.714  0.00  0.00    +0.000 A 
ATOM     21  C   UNL     1     108.409 130.726 135.444  0.00  0.00    +0.000 A 
BRANCH  19  22
ATOM     22  O   UNL     1     109.090 131.943 135.131  0.00  0.00    +0.000 OA
ATOM     23  C   UNL     1     109.401 132.548 135.598  0.00  0.00    +0.000 C 
ENDBRANCH  19  22
ENDBRANCH  13  16
BRANCH   7  24
ATOM     24  O   UNL     1     111.361 129.968 138.479  0.00  0.00    +0.000 OA
ATOM     25  C   UNL     1     111.453 130.786 138.538  0.00  0.00    +0.000 C 
ENDBRANCH   7  24
ENDBRANCH   1   6
BRANCH   1  33
ATOM     26  O   UNL     1     112.465 127.959 139.387  0.00  0.00    +0.000 OA
ATOM     27  O   UNL     1     114.453 127.897 140.859  0.00  0.00    +0.000 OA
ATOM     28  O   UNL     1     113.430 126.604 140.800  0.00  0.00    +0.000 OA
ATOM     29  C   UNL     1     113.640 128.585 139.908  0.00  0.00    +0.000 C 
ATOM     30  C   UNL     1     113.790 127.918 140.369  0.00  0.00    +0.000 C 
ATOM     31  C   UNL     1     113.279 127.272 140.339  0.00  0.00    +0.000 C 
ATOM     32  C   UNL     1     112.616 127.293 139.848  0.00  0.00    +0.000 C 
ATOM     33  C   UNL     1     112.977 128.606 139.417  0.00  0.00    +0.000 C 
BRANCH  29  34
ATOM     34  O   UNL     1     114.151 129.231 139.937  0.00  0.00    +0.000 OA
BRANCH  34  39
ATOM     35  O   UNL     1     113.399 129.780 141.022  0.00  0.00    +0.000 OA
ATOM     36  O   UNL     1     115.246 130.458 140.076  0.00  0.00    +0.000 OA
ATOM     37  O   UNL     1     115.042 131.619 141.230  0.00  0.00    +0.000 OA
ATOM     38  O   UNL     1     113.742 131.554 142.245  0.00  0.00    +0.000 OA
ATOM     39  C   UNL     1     114.049 129.812 140.514  0.00  0.00    +0.000 C 
ATOM     40  C   UNL     1     114.597 130.426 140.584  0.00  0.00    +0.000 C 
ATOM     41  C   UNL     1     114.495 131.007 141.161  0.00  0.00    +0.000 C 
ATOM     42  C   UNL     1     113.844 130.974 141.668  0.00  0.00    +0.000 C 
ATOM     43  C   UNL     1     113.297 130.361 141.599  0.00  0.00    +0.000 C 
ATOM     44  C   UNL     1     112.647 130.328 142.106  0.00  0.00    +0.000 C 
ENDBRANCH  34  39
ENDBRANCH  29  34
BRANCH  32  45
ATOM     45  C   UNL     1     112.104 126.646 139.819  0.00  0.00    +0.000 C 
BRANCH  45  46
ATOM     46  O   UNL     1     111.310 126.758 139.627  0.00  0.00    +0.000 OA
BRANCH  46  48
ATOM     47  O   UNL     1     110.479 125.717 140.148  0.00  0.00    +0.000 OA
ATOM     48  C   UNL     1     110.819 126.105 139.504  0.00  0.00    +0.000 C 
ATOM     49  C   UNL     1     110.669 125.842 138.737  0.00  0.00    +0.000 C 
ENDBRANCH  46  48
ENDBRANCH  45  46
ENDBRANCH  32  45
ENDBRANCH   1  33
TORSDOF 10
ENDMDL
MODEL 8
REMARK VINA RESULT:      -9.4      5.847      9.720
REMARK  Name = 44260015
REMARK  10 active torsions:
REMARK  status: ('A' for Active; 'I' for Inactive)
REMARK    1  A    between atoms: O_1  and  C_19
REMARK    2  A    between atoms: O_1  and  C_22
REMARK    3  A    between atoms: O_5  and  C_24
REMARK    4  A    between atoms: O_5  and  C_31
REMARK    5  A    between atoms: O_10  and  C_29
REMARK    6  A    between atoms: O_10  and  C_34
REMARK    7  A    between atoms: O_11  and  C_32
REMARK    8  A    between atoms: O_17  and  C_46
REMARK    9  A    between atoms: C_23  and  C_29
REMARK   10  A    between atoms: C_40  and  C_43
REMARK                            x       y       z     vdW  Elec       q    Type
REMARK                         _______ _______ _______ _____ _____    ______ ____
ROOT
ATOM      1  O   UNL     1     110.668 129.364 137.748  0.00  0.00    +0.000 OA
ENDROOT
BRANCH   1   6
ATOM      2  O   UNL     1     111.439 126.684 136.909  0.00  0.00    +0.000 OA
ATOM      3  O   UNL     1     110.064 128.419 135.052  0.00  0.00    +0.000 OA
ATOM      4  O   UNL     1     110.461 127.086 134.670  0.00  0.00    +0.000 OA
ATOM      5  O   UNL     1     111.170 125.634 135.013  0.00  0.00    +0.000 OA
ATOM      6  C   UNL     1     110.694 128.774 137.171  0.00  0.00    +0.000 A 
ATOM      7  C   UNL     1     111.062 128.017 137.344  0.00  0.00    +0.000 A 
ATOM      8  C   UNL     1     110.355 128.914 136.395  0.00  0.00    +0.000 A 
ATOM      9  C   UNL     1     111.085 127.409 136.737  0.00  0.00    +0.000 A 
ATOM     10  C   UNL     1     110.388 128.293 135.800  0.00  0.00    +0.000 A 
ATOM     11  C   UNL     1     110.759 127.543 135.991  0.00  0.00    +0.000 A 
ATOM     12  C   UNL     1     110.787 126.951 135.416  0.00  0.00    +0.000 A 
ATOM     13  C   UNL     1     111.467 126.093 136.334  0.00  0.00    +0.000 A 
ATOM     14  C   UNL     1     111.141 126.226 135.587  0.00  0.00    +0.000 A 
BRANCH  13  16
ATOM     15  O   UNL     1     112.884 123.192 137.019  0.00  0.00    +0.000 OA
ATOM     16  C   UNL     1     111.821 125.367 136.505  0.00  0.00    +0.000 A 
ATOM     17  C   UNL     1     112.637 125.276 136.421  0.00  0.00    +0.000 A 
ATOM     18  C   UNL     1     111.360 124.733 136.761  0.00  0.00    +0.000 A 
ATOM     19  C   UNL     1     112.991 124.551 136.592  0.00  0.00    +0.000 A 
ATOM     20  C   UNL     1     111.714 124.008 136.932  0.00  0.00    +0.000 A 
ATOM     21  C   UNL     1     112.529 123.917 136.848  0.00  0.00    +0.000 A 
BRANCH  19  22
ATOM     22  O   UNL     1     113.807 124.461 136.507  0.00  0.00    +0.000 OA
ATOM     23  C   UNL     1     114.315 125.063 136.751  0.00  0.00    +0.000 C 
ENDBRANCH  19  22
ENDBRANCH  13  16
BRANCH   7  24
ATOM     24  O   UNL     1     111.390 127.875 138.087  0.00  0.00    +0.000 OA
ATOM     25  C   UNL     1     110.921 127.570 138.694  0.00  0.00    +0.000 C 
ENDBRANCH   7  24
ENDBRANCH   1   6
BRANCH   1  33
ATOM     26  O   UNL     1     111.752 130.172 137.286  0.00  0.00    +0.000 OA
ATOM     27  O   UNL     1     110.424 132.211 137.739  0.00  0.00    +0.000 OA
ATOM     28  O   UNL     1     111.951 132.340 137.127  0.00  0.00    +0.000 OA
ATOM     29  C   UNL     1     110.545 130.788 137.743  0.00  0.00    +0.000 C 
ATOM     30  C   UNL     1     110.867 131.532 137.588  0.00  0.00    +0.000 C 
ATOM     31  C   UNL     1     111.630 131.596 137.282  0.00  0.00    +0.000 C 
ATOM     32  C   UNL     1     112.072 130.916 137.131  0.00  0.00    +0.000 C 
ATOM     33  C   UNL     1     110.988 130.108 137.593  0.00  0.00    +0.000 C 
BRANCH  29  34
ATOM     34  O   UNL     1     109.782 130.723 138.049  0.00  0.00    +0.000 OA
BRANCH  34  39
ATOM     35  O   UNL     1     110.297 130.830 139.378  0.00  0.00    +0.000 OA
ATOM     36  O   UNL     1     108.244 130.818 138.638  0.00  0.00    +0.000 OA
ATOM     37  O   UNL     1     107.990 130.972 140.261  0.00  0.00    +0.000 OA
ATOM     38  O   UNL     1     109.275 131.032 141.295  0.00  0.00    +0.000 OA
ATOM     39  C   UNL     1     109.656 130.800 138.861  0.00  0.00    +0.000 C 
ATOM     40  C   UNL     1     108.886 130.848 139.156  0.00  0.00    +0.000 C 
ATOM     41  C   UNL     1     108.759 130.925 139.967  0.00  0.00    +0.000 C 
ATOM     42  C   UNL     1     109.402 130.954 140.484  0.00  0.00    +0.000 C 
ATOM     43  C   UNL     1     110.171 130.907 140.190  0.00  0.00    +0.000 C 
ATOM     44  C   UNL     1     110.813 130.937 140.706  0.00  0.00    +0.000 C 
ENDBRANCH  34  39
ENDBRANCH  29  34
BRANCH  32  45
ATOM     45  C   UNL     1     112.836 130.981 136.825  0.00  0.00    +0.000 C 
BRANCH  45  46
ATOM     46  O   UNL     1     113.361 130.347 136.891  0.00  0.00    +0.000 OA
BRANCH  46  48
ATOM     47  O   UNL     1     114.736 130.739 136.918  0.00  0.00    +0.000 OA
ATOM     48  C   UNL     1     114.101 130.386 136.526  0.00  0.00    +0.000 C 
ATOM     49  C   UNL     1     114.205 130.071 135.771  0.00  0.00    +0.000 C 
ENDBRANCH  46  48
ENDBRANCH  45  46
ENDBRANCH  32  45
ENDBRANCH   1  33
TORSDOF 10
ENDMDL
MODEL 9
REMARK VINA RESULT:      -9.4      5.818      8.431
REMARK  Name = 44260015
REMARK  10 active torsions:
REMARK  status: ('A' for Active; 'I' for Inactive)
REMARK    1  A    between atoms: O_1  and  C_19
REMARK    2  A    between atoms: O_1  and  C_22
REMARK    3  A    between atoms: O_5  and  C_24
REMARK    4  A    between atoms: O_5  and  C_31
REMARK    5  A    between atoms: O_10  and  C_29
REMARK    6  A    between atoms: O_10  and  C_34
REMARK    7  A    between atoms: O_11  and  C_32
REMARK    8  A    between atoms: O_17  and  C_46
REMARK    9  A    between atoms: C_23  and  C_29
REMARK   10  A    between atoms: C_40  and  C_43
REMARK                            x       y       z     vdW  Elec       q    Type
REMARK                         _______ _______ _______ _____ _____    ______ ____
ROOT
ATOM      1  O   UNL     1     110.959 127.100 137.287  0.00  0.00    +0.000 OA
ENDROOT
BRANCH   1   6
ATOM      2  O   UNL     1     110.055 129.780 136.593  0.00  0.00    +0.000 OA
ATOM      3  O   UNL     1     108.341 127.516 136.062  0.00  0.00    +0.000 OA
ATOM      4  O   UNL     1     107.926 128.857 135.731  0.00  0.00    +0.000 OA
ATOM      5  O   UNL     1     108.201 130.485 135.681  0.00  0.00    +0.000 OA
ATOM      6  C   UNL     1     110.384 127.603 136.974  0.00  0.00    +0.000 A 
ATOM      7  C   UNL     1     110.522 128.451 136.945  0.00  0.00    +0.000 A 
ATOM      8  C   UNL     1     109.646 127.283 136.675  0.00  0.00    +0.000 A 
ATOM      9  C   UNL     1     109.917 128.967 136.618  0.00  0.00    +0.000 A 
ATOM     10  C   UNL     1     109.053 127.815 136.351  0.00  0.00    +0.000 A 
ATOM     11  C   UNL     1     109.208 128.660 136.331  0.00  0.00    +0.000 A 
ATOM     12  C   UNL     1     108.635 129.165 136.018  0.00  0.00    +0.000 A 
ATOM     13  C   UNL     1     109.483 130.286 136.281  0.00  0.00    +0.000 A 
ATOM     14  C   UNL     1     108.773 129.978 135.993  0.00  0.00    +0.000 A 
BRANCH  13  16
ATOM     15  O   UNL     1     110.031 133.538 136.181  0.00  0.00    +0.000 OA
ATOM     16  C   UNL     1     109.620 131.099 136.256  0.00  0.00    +0.000 A 
ATOM     17  C   UNL     1     109.621 131.539 136.954  0.00  0.00    +0.000 A 
ATOM     18  C   UNL     1     109.756 131.472 135.533  0.00  0.00    +0.000 A 
ATOM     19  C   UNL     1     109.758 132.352 136.928  0.00  0.00    +0.000 A 
ATOM     20  C   UNL     1     109.893 132.285 135.508  0.00  0.00    +0.000 A 
ATOM     21  C   UNL     1     109.894 132.725 136.205  0.00  0.00    +0.000 A 
BRANCH  19  22
ATOM     22  O   UNL     1     109.759 132.791 137.627  0.00  0.00    +0.000 OA
ATOM     23  C   UNL     1     109.947 132.426 138.343  0.00  0.00    +0.000 C 
ENDBRANCH  19  22
ENDBRANCH  13  16
BRANCH   7  24
ATOM     24  O   UNL     1     111.228 128.767 137.230  0.00  0.00    +0.000 OA
ATOM     25  C   UNL     1     111.878 128.846 136.726  0.00  0.00    +0.000 C 
ENDBRANCH   7  24
ENDBRANCH   1   6
BRANCH   1  33
ATOM     26  O   UNL     1     110.363 126.927 138.574  0.00  0.00    +0.000 OA
ATOM     27  O   UNL     1     111.068 124.554 138.581  0.00  0.00    +0.000 OA
ATOM     28  O   UNL     1     110.237 125.172 139.866  0.00  0.00    +0.000 OA
ATOM     29  C   UNL     1     111.013 125.827 137.933  0.00  0.00    +0.000 C 
ATOM     30  C   UNL     1     110.833 125.345 138.579  0.00  0.00    +0.000 C 
ATOM     31  C   UNL     1     110.418 125.654 139.221  0.00  0.00    +0.000 C 
ATOM     32  C   UNL     1     110.183 126.445 139.218  0.00  0.00    +0.000 C 
ATOM     33  C   UNL     1     110.778 126.618 137.931  0.00  0.00    +0.000 C 
BRANCH  29  34
ATOM     34  O   UNL     1     111.428 125.518 137.291  0.00  0.00    +0.000 OA
BRANCH  34  39
ATOM     35  O   UNL     1     112.675 125.813 137.926  0.00  0.00    +0.000 OA
ATOM     36  O   UNL     1     112.213 124.566 136.195  0.00  0.00    +0.000 OA
ATOM     37  O   UNL     1     113.850 124.385 136.282  0.00  0.00    +0.000 OA
ATOM     38  O   UNL     1     114.704 125.156 137.465  0.00  0.00    +0.000 OA
ATOM     39  C   UNL     1     112.247 125.428 137.335  0.00  0.00    +0.000 C 
ATOM     40  C   UNL     1     112.640 124.951 136.787  0.00  0.00    +0.000 C 
ATOM     41  C   UNL     1     113.459 124.861 136.830  0.00  0.00    +0.000 C 
ATOM     42  C   UNL     1     113.885 125.247 137.422  0.00  0.00    +0.000 C 
ATOM     43  C   UNL     1     113.494 125.722 137.970  0.00  0.00    +0.000 C 
ATOM     44  C   UNL     1     113.920 126.108 138.561  0.00  0.00    +0.000 C 
ENDBRANCH  34  39
ENDBRANCH  29  34
BRANCH  32  45
ATOM     45  C   UNL     1     109.767 126.754 139.861  0.00  0.00    +0.000 C 
BRANCH  45  46
ATOM     46  O   UNL     1     109.898 127.532 140.101  0.00  0.00    +0.000 OA
BRANCH  46  48
ATOM     47  O   UNL     1     108.595 127.875 140.578  0.00  0.00    +0.000 OA
ATOM     48  C   UNL     1     109.414 127.874 140.675  0.00  0.00    +0.000 C 
ATOM     49  C   UNL     1     109.750 128.214 141.347  0.00  0.00    +0.000 C 
ENDBRANCH  46  48
ENDBRANCH  45  46
ENDBRANCH  32  45
ENDBRANCH   1  33
TORSDOF 10
ENDMDL
MODEL 10
REMARK VINA RESULT:      -9.1      2.546      5.383
REMARK  Name = 44260015
REMARK  10 active torsions:
REMARK  status: ('A' for Active; 'I' for Inactive)
REMARK    1  A    between atoms: O_1  and  C_19
REMARK    2  A    between atoms: O_1  and  C_22
REMARK    3  A    between atoms: O_5  and  C_24
REMARK    4  A    between atoms: O_5  and  C_31
REMARK    5  A    between atoms: O_10  and  C_29
REMARK    6  A    between atoms: O_10  and  C_34
REMARK    7  A    between atoms: O_11  and  C_32
REMARK    8  A    between atoms: O_17  and  C_46
REMARK    9  A    between atoms: C_23  and  C_29
REMARK   10  A    between atoms: C_40  and  C_43
REMARK                            x       y       z     vdW  Elec       q    Type
REMARK                         _______ _______ _______ _____ _____    ______ ____
ROOT
ATOM      1  O   UNL     1     106.149 126.175 144.279  0.00  0.00    +0.000 OA
ENDROOT
BRANCH   1   6
ATOM      2  O   UNL     1     105.941 125.052 141.600  0.00  0.00    +0.000 OA
ATOM      3  O   UNL     1     108.039 126.947 142.191  0.00  0.00    +0.000 OA
ATOM      4  O   UNL     1     107.906 126.370 140.876  0.00  0.00    +0.000 OA
ATOM      5  O   UNL     1     107.141 125.374 139.805  0.00  0.00    +0.000 OA
ATOM      6  C   UNL     1     106.424 126.119 143.503  0.00  0.00    +0.000 A 
ATOM      7  C   UNL     1     106.030 125.602 142.941  0.00  0.00    +0.000 A 
ATOM      8  C   UNL     1     107.106 126.577 143.252  0.00  0.00    +0.000 A 
ATOM      9  C   UNL     1     106.323 125.550 142.135  0.00  0.00    +0.000 A 
ATOM     10  C   UNL     1     107.385 126.511 142.441  0.00  0.00    +0.000 A 
ATOM     11  C   UNL     1     106.978 125.989 141.893  0.00  0.00    +0.000 A 
ATOM     12  C   UNL     1     107.251 125.931 141.117  0.00  0.00    +0.000 A 
ATOM     13  C   UNL     1     106.213 124.993 140.824  0.00  0.00    +0.000 A 
ATOM     14  C   UNL     1     106.869 125.433 140.582  0.00  0.00    +0.000 A 
BRANCH  13  16
ATOM     15  O   UNL     1     104.683 123.002 138.683  0.00  0.00    +0.000 OA
ATOM     16  C   UNL     1     105.831 124.495 140.289  0.00  0.00    +0.000 A 
ATOM     17  C   UNL     1     105.253 124.798 139.783  0.00  0.00    +0.000 A 
ATOM     18  C   UNL     1     106.026 123.694 140.258  0.00  0.00    +0.000 A 
ATOM     19  C   UNL     1     104.871 124.300 139.248  0.00  0.00    +0.000 A 
ATOM     20  C   UNL     1     105.644 123.196 139.723  0.00  0.00    +0.000 A 
ATOM     21  C   UNL     1     105.066 123.499 139.218  0.00  0.00    +0.000 A 
BRANCH  19  22
ATOM     22  O   UNL     1     104.293 124.604 138.743  0.00  0.00    +0.000 OA
ATOM     23  C   UNL     1     103.715 125.113 139.038  0.00  0.00    +0.000 C 
ENDBRANCH  19  22
ENDBRANCH  13  16
BRANCH   7  24
ATOM     24  O   UNL     1     105.374 125.159 143.174  0.00  0.00    +0.000 OA
ATOM     25  C   UNL     1     105.478 124.405 143.494  0.00  0.00    +0.000 C 
ENDBRANCH   7  24
ENDBRANCH   1   6
BRANCH   1  33
ATOM     26  O   UNL     1     105.627 127.504 144.221  0.00  0.00    +0.000 OA
ATOM     27  O   UNL     1     106.544 127.963 146.474  0.00  0.00    +0.000 OA
ATOM     28  O   UNL     1     105.716 129.139 145.665  0.00  0.00    +0.000 OA
ATOM     29  C   UNL     1     106.347 127.069 145.377  0.00  0.00    +0.000 C 
ATOM     30  C   UNL     1     106.238 127.810 145.723  0.00  0.00    +0.000 C 
ATOM     31  C   UNL     1     105.825 128.397 145.319  0.00  0.00    +0.000 C 
ATOM     32  C   UNL     1     105.519 128.245 144.568  0.00  0.00    +0.000 C 
ATOM     33  C   UNL     1     106.041 126.916 144.626  0.00  0.00    +0.000 C 
BRANCH  29  34
ATOM     34  O   UNL     1     106.761 126.481 145.780  0.00  0.00    +0.000 OA
BRANCH  34  39
ATOM     35  O   UNL     1     105.554 126.070 146.426  0.00  0.00    +0.000 OA
ATOM     36  O   UNL     1     107.615 125.403 146.692  0.00  0.00    +0.000 OA
ATOM     37  O   UNL     1     106.834 124.453 147.793  0.00  0.00    +0.000 OA
ATOM     38  O   UNL     1     105.200 124.582 147.982  0.00  0.00    +0.000 OA
ATOM     39  C   UNL     1     106.371 126.006 146.331  0.00  0.00    +0.000 C 
ATOM     40  C   UNL     1     106.798 125.467 146.787  0.00  0.00    +0.000 C 
ATOM     41  C   UNL     1     106.408 124.992 147.338  0.00  0.00    +0.000 C 
ATOM     42  C   UNL     1     105.590 125.057 147.432  0.00  0.00    +0.000 C 
ATOM     43  C   UNL     1     105.164 125.595 146.977  0.00  0.00    +0.000 C 
ATOM     44  C   UNL     1     104.346 125.660 147.071  0.00  0.00    +0.000 C 
ENDBRANCH  34  39
ENDBRANCH  29  34
BRANCH  32  45
ATOM     45  C   UNL     1     105.104 128.833 144.163  0.00  0.00    +0.000 C 
BRANCH  45  46
ATOM     46  O   UNL     1     104.579 128.627 143.562  0.00  0.00    +0.000 OA
BRANCH  46  48
ATOM     47  O   UNL     1     103.862 129.855 143.418  0.00  0.00    +0.000 OA
ATOM     48  C   UNL     1     104.254 129.213 143.079  0.00  0.00    +0.000 C 
ATOM     49  C   UNL     1     104.323 129.156 142.259  0.00  0.00    +0.000 C 
ENDBRANCH  46  48
ENDBRANCH  45  46
ENDBRANCH  32  45
ENDBRANCH   1  33
TORSDOF 10
ENDMDL
