MODEL 1
REMARK VINA RESULT:      -8.6      0.000      0.000
REMARK  Name = 46881084
REMARK  2 active torsions:
REMARK  status: ('A' for Active; 'I' for Inactive)
REMARK    1  A    between atoms: O_4  and  C_13
REMARK    2  A    between atoms: C_8  and  C_9
REMARK                            x       y       z     vdW  Elec       q    Type
REMARK                         _______ _______ _______ _____ _____    ______ ____
ROOT
ATOM      1  O   UNL     1     103.245 124.953 147.096  0.00  0.00    +0.000 OA
ATOM      2  O   UNL     1     105.087 123.706 146.011  0.00  0.00    +0.000 OA
ATOM      3  O   UNL     1     104.158 122.741 145.477  0.00  0.00    +0.000 OA
ATOM      4  O   UNL     1     101.310 123.043 146.053  0.00  0.00    +0.000 OA
ATOM      5  C   UNL     1     104.638 124.801 146.812  0.00  0.00    +0.000 C 
ATOM      6  C   UNL     1     104.024 125.216 147.174  0.00  0.00    +0.000 C 
ATOM      7  C   UNL     1     104.473 124.122 146.373  0.00  0.00    +0.000 C 
ATOM      8  C   UNL     1     103.695 123.859 146.295  0.00  0.00    +0.000 A 
ATOM      9  C   UNL     1     103.081 124.274 146.657  0.00  0.00    +0.000 A 
ATOM     10  C   UNL     1     103.537 123.150 145.835  0.00  0.00    +0.000 A 
ATOM     11  C   UNL     1     102.267 124.010 146.584  0.00  0.00    +0.000 A 
ATOM     12  C   UNL     1     102.729 122.871 145.751  0.00  0.00    +0.000 A 
ATOM     13  C   UNL     1     102.090 123.304 146.128  0.00  0.00    +0.000 A 
ENDROOT
BRANCH   5  16
ATOM     14  O   UNL     1     107.322 124.715 147.980  0.00  0.00    +0.000 OA
ATOM     15  O   UNL     1     107.756 125.727 147.239  0.00  0.00    +0.000 OA
ATOM     16  C   UNL     1     105.415 125.064 146.889  0.00  0.00    +0.000 A 
ATOM     17  C   UNL     1     105.685 125.693 146.429  0.00  0.00    +0.000 A 
ATOM     18  C   UNL     1     105.923 124.699 147.427  0.00  0.00    +0.000 A 
ATOM     19  C   UNL     1     106.701 124.962 147.504  0.00  0.00    +0.000 A 
ATOM     20  C   UNL     1     106.971 125.591 147.044  0.00  0.00    +0.000 A 
ATOM     21  C   UNL     1     106.463 125.957 146.506  0.00  0.00    +0.000 A 
ATOM     22  C   UNL     1     107.972 125.187 147.816  0.00  0.00    +0.000 C 
BRANCH  17  23
ATOM     23  O   UNL     1     105.178 126.059 145.891  0.00  0.00    +0.000 OA
ATOM     24  C   UNL     1     105.438 126.708 145.454  0.00  0.00    +0.000 C 
ENDBRANCH  17  23
ENDBRANCH   5  16
TORSDOF 2
ENDMDL
MODEL 2
REMARK VINA RESULT:      -8.5      0.893      4.277
REMARK  Name = 46881084
REMARK  2 active torsions:
REMARK  status: ('A' for Active; 'I' for Inactive)
REMARK    1  A    between atoms: O_4  and  C_13
REMARK    2  A    between atoms: C_8  and  C_9
REMARK                            x       y       z     vdW  Elec       q    Type
REMARK                         _______ _______ _______ _____ _____    ______ ____
ROOT
ATOM      1  O   UNL     1     105.680 125.303 146.024  0.00  0.00    +0.000 OA
ATOM      2  O   UNL     1     104.749 124.172 148.019  0.00  0.00    +0.000 OA
ATOM      3  O   UNL     1     106.000 124.319 148.722  0.00  0.00    +0.000 OA
ATOM      4  O   UNL     1     108.235 125.637 147.380  0.00  0.00    +0.000 OA
ATOM      5  C   UNL     1     104.589 124.657 146.684  0.00  0.00    +0.000 C 
ATOM      6  C   UNL     1     104.899 125.034 146.019  0.00  0.00    +0.000 C 
ATOM      7  C   UNL     1     105.059 124.549 147.354  0.00  0.00    +0.000 C 
ATOM      8  C   UNL     1     105.839 124.817 147.358  0.00  0.00    +0.000 A 
ATOM      9  C   UNL     1     106.149 125.194 146.693  0.00  0.00    +0.000 A 
ATOM     10  C   UNL     1     106.319 124.698 148.061  0.00  0.00    +0.000 A 
ATOM     11  C   UNL     1     106.961 125.478 146.685  0.00  0.00    +0.000 A 
ATOM     12  C   UNL     1     107.132 124.975 148.072  0.00  0.00    +0.000 A 
ATOM     13  C   UNL     1     107.455 125.367 147.379  0.00  0.00    +0.000 A 
ENDROOT
BRANCH   5  16
ATOM     14  O   UNL     1     101.781 124.773 147.508  0.00  0.00    +0.000 OA
ATOM     15  O   UNL     1     101.446 123.717 146.776  0.00  0.00    +0.000 OA
ATOM     16  C   UNL     1     103.809 124.389 146.680  0.00  0.00    +0.000 A 
ATOM     17  C   UNL     1     103.601 123.733 146.225  0.00  0.00    +0.000 A 
ATOM     18  C   UNL     1     103.236 124.776 147.130  0.00  0.00    +0.000 A 
ATOM     19  C   UNL     1     102.457 124.509 147.126  0.00  0.00    +0.000 A 
ATOM     20  C   UNL     1     102.249 123.853 146.671  0.00  0.00    +0.000 A 
ATOM     21  C   UNL     1     102.821 123.465 146.220  0.00  0.00    +0.000 A 
ATOM     22  C   UNL     1     101.158 124.285 147.292  0.00  0.00    +0.000 C 
BRANCH  17  23
ATOM     23  O   UNL     1     104.173 123.345 145.774  0.00  0.00    +0.000 OA
ATOM     24  C   UNL     1     103.952 122.739 145.260  0.00  0.00    +0.000 C 
ENDBRANCH  17  23
ENDBRANCH   5  16
TORSDOF 2
ENDMDL
MODEL 3
REMARK VINA RESULT:      -8.3      1.001      4.276
REMARK  Name = 46881084
REMARK  2 active torsions:
REMARK  status: ('A' for Active; 'I' for Inactive)
REMARK    1  A    between atoms: O_4  and  C_13
REMARK    2  A    between atoms: C_8  and  C_9
REMARK                            x       y       z     vdW  Elec       q    Type
REMARK                         _______ _______ _______ _____ _____    ______ ____
ROOT
ATOM      1  O   UNL     1     105.058 124.433 147.775  0.00  0.00    +0.000 OA
ATOM      2  O   UNL     1     103.956 124.796 145.590  0.00  0.00    +0.000 OA
ATOM      3  O   UNL     1     105.180 125.309 145.024  0.00  0.00    +0.000 OA
ATOM      4  O   UNL     1     107.565 125.458 146.704  0.00  0.00    +0.000 OA
ATOM      5  C   UNL     1     103.894 124.362 146.950  0.00  0.00    +0.000 C 
ATOM      6  C   UNL     1     104.261 124.241 147.678  0.00  0.00    +0.000 C 
ATOM      7  C   UNL     1     104.323 124.675 146.318  0.00  0.00    +0.000 C 
ATOM      8  C   UNL     1     105.119 124.866 146.415  0.00  0.00    +0.000 A 
ATOM      9  C   UNL     1     105.487 124.745 147.144  0.00  0.00    +0.000 A 
ATOM     10  C   UNL     1     105.556 125.191 145.749  0.00  0.00    +0.000 A 
ATOM     11  C   UNL     1     106.316 124.941 147.257  0.00  0.00    +0.000 A 
ATOM     12  C   UNL     1     106.385 125.393 145.844  0.00  0.00    +0.000 A 
ATOM     13  C   UNL     1     106.768 125.267 146.603  0.00  0.00    +0.000 A 
ENDROOT
BRANCH   5  16
ATOM     14  O   UNL     1     101.709 122.739 145.867  0.00  0.00    +0.000 OA
ATOM     15  O   UNL     1     100.774 123.469 146.464  0.00  0.00    +0.000 OA
ATOM     16  C   UNL     1     103.098 124.171 146.853  0.00  0.00    +0.000 A 
ATOM     17  C   UNL     1     102.517 124.624 147.224  0.00  0.00    +0.000 A 
ATOM     18  C   UNL     1     102.882 123.526 146.385  0.00  0.00    +0.000 A 
ATOM     19  C   UNL     1     102.086 123.334 146.289  0.00  0.00    +0.000 A 
ATOM     20  C   UNL     1     101.505 123.787 146.659  0.00  0.00    +0.000 A 
ATOM     21  C   UNL     1     101.719 124.432 147.127  0.00  0.00    +0.000 A 
ATOM     22  C   UNL     1     100.901 122.822 145.976  0.00  0.00    +0.000 C 
BRANCH  17  23
ATOM     23  O   UNL     1     102.731 125.268 147.691  0.00  0.00    +0.000 OA
ATOM     24  C   UNL     1     102.154 125.691 148.102  0.00  0.00    +0.000 C 
ENDBRANCH  17  23
ENDBRANCH   5  16
TORSDOF 2
ENDMDL
MODEL 4
REMARK VINA RESULT:      -8.2      2.126      3.124
REMARK  Name = 46881084
REMARK  2 active torsions:
REMARK  status: ('A' for Active; 'I' for Inactive)
REMARK    1  A    between atoms: O_4  and  C_13
REMARK    2  A    between atoms: C_8  and  C_9
REMARK                            x       y       z     vdW  Elec       q    Type
REMARK                         _______ _______ _______ _____ _____    ______ ____
ROOT
ATOM      1  O   UNL     1     105.730 126.879 146.109  0.00  0.00    +0.000 OA
ATOM      2  O   UNL     1     106.558 124.548 146.039  0.00  0.00    +0.000 OA
ATOM      3  O   UNL     1     106.435 124.516 144.603  0.00  0.00    +0.000 OA
ATOM      4  O   UNL     1     105.454 126.890 143.211  0.00  0.00    +0.000 OA
ATOM      5  C   UNL     1     106.210 125.715 146.786  0.00  0.00    +0.000 C 
ATOM      6  C   UNL     1     105.934 126.492 146.810  0.00  0.00    +0.000 C 
ATOM      7  C   UNL     1     106.282 125.325 146.063  0.00  0.00    +0.000 C 
ATOM      8  C   UNL     1     106.078 125.711 145.363  0.00  0.00    +0.000 A 
ATOM      9  C   UNL     1     105.802 126.488 145.387  0.00  0.00    +0.000 A 
ATOM     10  C   UNL     1     106.158 125.294 144.616  0.00  0.00    +0.000 A 
ATOM     11  C   UNL     1     105.587 126.901 144.664  0.00  0.00    +0.000 A 
ATOM     12  C   UNL     1     105.947 125.691 143.884  0.00  0.00    +0.000 A 
ATOM     13  C   UNL     1     105.659 126.500 143.909  0.00  0.00    +0.000 A 
ENDROOT
BRANCH   5  16
ATOM     14  O   UNL     1     108.137 124.680 148.734  0.00  0.00    +0.000 OA
ATOM     15  O   UNL     1     107.187 124.205 149.531  0.00  0.00    +0.000 OA
ATOM     16  C   UNL     1     106.414 125.329 147.486  0.00  0.00    +0.000 A 
ATOM     17  C   UNL     1     105.824 125.034 147.981  0.00  0.00    +0.000 A 
ATOM     18  C   UNL     1     107.208 125.237 147.691  0.00  0.00    +0.000 A 
ATOM     19  C   UNL     1     107.412 124.851 148.390  0.00  0.00    +0.000 A 
ATOM     20  C   UNL     1     106.822 124.556 148.885  0.00  0.00    +0.000 A 
ATOM     21  C   UNL     1     106.028 124.647 148.681  0.00  0.00    +0.000 A 
ATOM     22  C   UNL     1     107.998 124.282 149.437  0.00  0.00    +0.000 C 
BRANCH  17  23
ATOM     23  O   UNL     1     105.030 125.125 147.777  0.00  0.00    +0.000 OA
ATOM     24  C   UNL     1     104.439 124.855 148.286  0.00  0.00    +0.000 C 
ENDBRANCH  17  23
ENDBRANCH   5  16
TORSDOF 2
ENDMDL
MODEL 5
REMARK VINA RESULT:      -8.2     11.163     12.369
REMARK  Name = 46881084
REMARK  2 active torsions:
REMARK  status: ('A' for Active; 'I' for Inactive)
REMARK    1  A    between atoms: O_4  and  C_13
REMARK    2  A    between atoms: C_8  and  C_9
REMARK                            x       y       z     vdW  Elec       q    Type
REMARK                         _______ _______ _______ _____ _____    ______ ____
ROOT
ATOM      1  O   UNL     1     110.528 125.462 135.395  0.00  0.00    +0.000 OA
ATOM      2  O   UNL     1     111.574 126.199 137.513  0.00  0.00    +0.000 OA
ATOM      3  O   UNL     1     110.456 127.064 137.798  0.00  0.00    +0.000 OA
ATOM      4  O   UNL     1     108.236 127.184 135.904  0.00  0.00    +0.000 OA
ATOM      5  C   UNL     1     111.612 125.406 136.325  0.00  0.00    +0.000 C 
ATOM      6  C   UNL     1     111.263 125.160 135.619  0.00  0.00    +0.000 C 
ATOM      7  C   UNL     1     111.225 125.953 136.807  0.00  0.00    +0.000 C 
ATOM      8  C   UNL     1     110.491 126.254 136.583  0.00  0.00    +0.000 A 
ATOM      9  C   UNL     1     110.142 126.008 135.877  0.00  0.00    +0.000 A 
ATOM     10  C   UNL     1     110.099 126.824 137.094  0.00  0.00    +0.000 A 
ATOM     11  C   UNL     1     109.377 126.315 135.633  0.00  0.00    +0.000 A 
ATOM     12  C   UNL     1     109.334 127.141 136.866  0.00  0.00    +0.000 A 
ATOM     13  C   UNL     1     108.971 126.885 136.131  0.00  0.00    +0.000 A 
ENDROOT
BRANCH   5  16
ATOM     14  O   UNL     1     114.505 125.607 136.731  0.00  0.00    +0.000 OA
ATOM     15  O   UNL     1     114.604 124.359 137.174  0.00  0.00    +0.000 OA
ATOM     16  C   UNL     1     112.346 125.105 136.548  0.00  0.00    +0.000 A 
ATOM     17  C   UNL     1     112.407 124.329 136.824  0.00  0.00    +0.000 A 
ATOM     18  C   UNL     1     113.020 125.578 136.497  0.00  0.00    +0.000 A 
ATOM     19  C   UNL     1     113.754 125.277 136.721  0.00  0.00    +0.000 A 
ATOM     20  C   UNL     1     113.815 124.502 136.996  0.00  0.00    +0.000 A 
ATOM     21  C   UNL     1     113.142 124.027 137.047  0.00  0.00    +0.000 A 
ATOM     22  C   UNL     1     115.028 125.041 137.011  0.00  0.00    +0.000 C 
BRANCH  17  23
ATOM     23  O   UNL     1     111.734 123.855 136.875  0.00  0.00    +0.000 OA
ATOM     24  C   UNL     1     111.797 123.077 137.142  0.00  0.00    +0.000 C 
ENDBRANCH  17  23
ENDBRANCH   5  16
TORSDOF 2
ENDMDL
MODEL 6
REMARK VINA RESULT:      -8.2      2.092      3.874
REMARK  Name = 46881084
REMARK  2 active torsions:
REMARK  status: ('A' for Active; 'I' for Inactive)
REMARK    1  A    between atoms: O_4  and  C_13
REMARK    2  A    between atoms: C_8  and  C_9
REMARK                            x       y       z     vdW  Elec       q    Type
REMARK                         _______ _______ _______ _____ _____    ______ ____
ROOT
ATOM      1  O   UNL     1     105.497 124.722 147.381  0.00  0.00    +0.000 OA
ATOM      2  O   UNL     1     107.399 125.818 146.239  0.00  0.00    +0.000 OA
ATOM      3  O   UNL     1     108.285 125.477 147.325  0.00  0.00    +0.000 OA
ATOM      4  O   UNL     1     107.225 123.999 149.610  0.00  0.00    +0.000 OA
ATOM      5  C   UNL     1     106.020 125.445 146.265  0.00  0.00    +0.000 C 
ATOM      6  C   UNL     1     105.386 125.080 146.645  0.00  0.00    +0.000 C 
ATOM      7  C   UNL     1     106.765 125.452 146.620  0.00  0.00    +0.000 C 
ATOM      8  C   UNL     1     106.876 125.095 147.354  0.00  0.00    +0.000 A 
ATOM      9  C   UNL     1     106.242 124.730 147.735  0.00  0.00    +0.000 A 
ATOM     10  C   UNL     1     107.657 125.109 147.713  0.00  0.00    +0.000 A 
ATOM     11  C   UNL     1     106.344 124.353 148.501  0.00  0.00    +0.000 A 
ATOM     12  C   UNL     1     107.778 124.738 148.479  0.00  0.00    +0.000 A 
ATOM     13  C   UNL     1     107.118 124.358 148.875  0.00  0.00    +0.000 A 
ENDROOT
BRANCH   5  16
ATOM     14  O   UNL     1     106.184 125.516 143.342  0.00  0.00    +0.000 OA
ATOM     15  O   UNL     1     105.647 126.729 143.268  0.00  0.00    +0.000 OA
ATOM     16  C   UNL     1     105.910 125.803 145.530  0.00  0.00    +0.000 A 
ATOM     17  C   UNL     1     105.576 126.556 145.484  0.00  0.00    +0.000 A 
ATOM     18  C   UNL     1     106.132 125.408 144.841  0.00  0.00    +0.000 A 
ATOM     19  C   UNL     1     106.021 125.766 144.106  0.00  0.00    +0.000 A 
ATOM     20  C   UNL     1     105.688 126.519 144.060  0.00  0.00    +0.000 A 
ATOM     21  C   UNL     1     105.465 126.915 144.749  0.00  0.00    +0.000 A 
ATOM     22  C   UNL     1     105.953 126.110 142.826  0.00  0.00    +0.000 C 
BRANCH  17  23
ATOM     23  O   UNL     1     105.353 126.952 146.173  0.00  0.00    +0.000 OA
ATOM     24  C   UNL     1     105.009 127.700 146.127  0.00  0.00    +0.000 C 
ENDBRANCH  17  23
ENDBRANCH   5  16
TORSDOF 2
ENDMDL
MODEL 7
REMARK VINA RESULT:      -8.1     10.563     12.349
REMARK  Name = 46881084
REMARK  2 active torsions:
REMARK  status: ('A' for Active; 'I' for Inactive)
REMARK    1  A    between atoms: O_4  and  C_13
REMARK    2  A    between atoms: C_8  and  C_9
REMARK                            x       y       z     vdW  Elec       q    Type
REMARK                         _______ _______ _______ _____ _____    ______ ____
ROOT
ATOM      1  O   UNL     1     113.805 126.037 138.043  0.00  0.00    +0.000 OA
ATOM      2  O   UNL     1     111.357 126.166 138.382  0.00  0.00    +0.000 OA
ATOM      3  O   UNL     1     111.539 126.652 139.727  0.00  0.00    +0.000 OA
ATOM      4  O   UNL     1     114.251 127.016 140.750  0.00  0.00    +0.000 OA
ATOM      5  C   UNL     1     112.476 125.861 137.548  0.00  0.00    +0.000 C 
ATOM      6  C   UNL     1     113.292 125.818 137.435  0.00  0.00    +0.000 C 
ATOM      7  C   UNL     1     112.173 126.123 138.269  0.00  0.00    +0.000 C 
ATOM      8  C   UNL     1     112.685 126.342 138.877  0.00  0.00    +0.000 A 
ATOM      9  C   UNL     1     113.501 126.299 138.764  0.00  0.00    +0.000 A 
ATOM     10  C   UNL     1     112.357 126.613 139.624  0.00  0.00    +0.000 A 
ATOM     11  C   UNL     1     114.045 126.524 139.390  0.00  0.00    +0.000 A 
ATOM     12  C   UNL     1     112.885 126.842 140.261  0.00  0.00    +0.000 A 
ATOM     13  C   UNL     1     113.735 126.797 140.143  0.00  0.00    +0.000 A 
ENDROOT
BRANCH   5  16
ATOM     14  O   UNL     1     110.611 126.442 135.366  0.00  0.00    +0.000 OA
ATOM     15  O   UNL     1     110.410 125.157 135.098  0.00  0.00    +0.000 OA
ATOM     16  C   UNL     1     111.964 125.642 136.940  0.00  0.00    +0.000 A 
ATOM     17  C   UNL     1     111.839 124.844 136.773  0.00  0.00    +0.000 A 
ATOM     18  C   UNL     1     111.577 126.221 136.497  0.00  0.00    +0.000 A 
ATOM     19  C   UNL     1     111.065 126.002 135.889  0.00  0.00    +0.000 A 
ATOM     20  C   UNL     1     110.939 125.204 135.723  0.00  0.00    +0.000 A 
ATOM     21  C   UNL     1     111.326 124.624 136.164  0.00  0.00    +0.000 A 
ATOM     22  C   UNL     1     110.208 125.921 134.878  0.00  0.00    +0.000 C 
BRANCH  17  23
ATOM     23  O   UNL     1     112.226 124.264 137.215  0.00  0.00    +0.000 OA
ATOM     24  C   UNL     1     112.124 123.467 137.029  0.00  0.00    +0.000 C 
ENDBRANCH  17  23
ENDBRANCH   5  16
TORSDOF 2
ENDMDL
MODEL 8
REMARK VINA RESULT:      -8.0     10.845     12.563
REMARK  Name = 46881084
REMARK  2 active torsions:
REMARK  status: ('A' for Active; 'I' for Inactive)
REMARK    1  A    between atoms: O_4  and  C_13
REMARK    2  A    between atoms: C_8  and  C_9
REMARK                            x       y       z     vdW  Elec       q    Type
REMARK                         _______ _______ _______ _____ _____    ______ ____
ROOT
ATOM      1  O   UNL     1     112.233 124.343 137.166  0.00  0.00    +0.000 OA
ATOM      2  O   UNL     1     112.125 126.760 136.644  0.00  0.00    +0.000 OA
ATOM      3  O   UNL     1     113.563 126.840 136.574  0.00  0.00    +0.000 OA
ATOM      4  O   UNL     1     115.142 124.427 137.040  0.00  0.00    +0.000 OA
ATOM      5  C   UNL     1     111.465 125.527 136.936  0.00  0.00    +0.000 C 
ATOM      6  C   UNL     1     111.501 124.721 137.110  0.00  0.00    +0.000 C 
ATOM      7  C   UNL     1     112.161 125.955 136.818  0.00  0.00    +0.000 C 
ATOM      8  C   UNL     1     112.892 125.578 136.873  0.00  0.00    +0.000 A 
ATOM      9  C   UNL     1     112.928 124.772 137.047  0.00  0.00    +0.000 A 
ATOM     10  C   UNL     1     113.609 126.034 136.747  0.00  0.00    +0.000 A 
ATOM     11  C   UNL     1     113.684 124.367 137.107  0.00  0.00    +0.000 A 
ATOM     12  C   UNL     1     114.374 125.647 136.803  0.00  0.00    +0.000 A 
ATOM     13  C   UNL     1     114.412 124.808 136.984  0.00  0.00    +0.000 A 
ENDROOT
BRANCH   5  16
ATOM     14  O   UNL     1     109.265 126.756 135.446  0.00  0.00    +0.000 OA
ATOM     15  O   UNL     1     108.575 127.030 136.547  0.00  0.00    +0.000 OA
ATOM     16  C   UNL     1     110.734 125.904 136.881  0.00  0.00    +0.000 A 
ATOM     17  C   UNL     1     110.305 126.074 137.565  0.00  0.00    +0.000 A 
ATOM     18  C   UNL     1     110.431 126.112 136.143  0.00  0.00    +0.000 A 
ATOM     19  C   UNL     1     109.700 126.489 136.088  0.00  0.00    +0.000 A 
ATOM     20  C   UNL     1     109.271 126.659 136.772  0.00  0.00    +0.000 A 
ATOM     21  C   UNL     1     109.573 126.452 137.511  0.00  0.00    +0.000 A 
ATOM     22  C   UNL     1     108.572 127.090 135.729  0.00  0.00    +0.000 C 
BRANCH  17  23
ATOM     23  O   UNL     1     110.608 125.867 138.304  0.00  0.00    +0.000 OA
ATOM     24  C   UNL     1     110.170 126.019 138.987  0.00  0.00    +0.000 C 
ENDBRANCH  17  23
ENDBRANCH   5  16
TORSDOF 2
ENDMDL
MODEL 9
REMARK VINA RESULT:      -8.0     12.184     13.498
REMARK  Name = 46881084
REMARK  2 active torsions:
REMARK  status: ('A' for Active; 'I' for Inactive)
REMARK    1  A    between atoms: O_4  and  C_13
REMARK    2  A    between atoms: C_8  and  C_9
REMARK                            x       y       z     vdW  Elec       q    Type
REMARK                         _______ _______ _______ _____ _____    ______ ____
ROOT
ATOM      1  O   UNL     1     111.774 126.087 136.342  0.00  0.00    +0.000 OA
ATOM      2  O   UNL     1     114.196 126.404 136.737  0.00  0.00    +0.000 OA
ATOM      3  O   UNL     1     114.375 124.990 136.956  0.00  0.00    +0.000 OA
ATOM      4  O   UNL     1     112.058 123.221 136.772  0.00  0.00    +0.000 OA
ATOM      5  C   UNL     1     112.911 126.949 136.433  0.00  0.00    +0.000 C 
ATOM      6  C   UNL     1     112.103 126.843 136.301  0.00  0.00    +0.000 C 
ATOM      7  C   UNL     1     113.389 126.298 136.605  0.00  0.00    +0.000 C 
ATOM      8  C   UNL     1     113.060 125.544 136.646  0.00  0.00    +0.000 A 
ATOM      9  C   UNL     1     112.252 125.438 136.514  0.00  0.00    +0.000 A 
ATOM     10  C   UNL     1     113.569 124.874 136.826  0.00  0.00    +0.000 A 
ATOM     11  C   UNL     1     111.898 124.656 136.553  0.00  0.00    +0.000 A 
ATOM     12  C   UNL     1     113.232 124.085 136.869  0.00  0.00    +0.000 A 
ATOM     13  C   UNL     1     112.391 123.975 136.732  0.00  0.00    +0.000 A 
ENDROOT
BRANCH   5  16
ATOM     14  O   UNL     1     114.507 129.038 135.144  0.00  0.00    +0.000 OA
ATOM     15  O   UNL     1     114.290 129.910 136.121  0.00  0.00    +0.000 OA
ATOM     16  C   UNL     1     113.240 127.704 136.393  0.00  0.00    +0.000 A 
ATOM     17  C   UNL     1     113.105 128.245 137.000  0.00  0.00    +0.000 A 
ATOM     18  C   UNL     1     113.704 127.918 135.745  0.00  0.00    +0.000 A 
ATOM     19  C   UNL     1     114.033 128.673 135.705  0.00  0.00    +0.000 A 
ATOM     20  C   UNL     1     113.898 129.215 136.312  0.00  0.00    +0.000 A 
ATOM     21  C   UNL     1     113.434 129.001 136.960  0.00  0.00    +0.000 A 
ATOM     22  C   UNL     1     114.665 129.800 135.401  0.00  0.00    +0.000 C 
BRANCH  17  23
ATOM     23  O   UNL     1     112.641 128.032 137.648  0.00  0.00    +0.000 OA
ATOM     24  C   UNL     1     112.496 128.578 138.249  0.00  0.00    +0.000 C 
ENDBRANCH  17  23
ENDBRANCH   5  16
TORSDOF 2
ENDMDL
