MODEL 1
REMARK VINA RESULT:      -9.8      0.000      0.000
REMARK  Name = 44258796
REMARK  7 active torsions:
REMARK  status: ('A' for Active; 'I' for Inactive)
REMARK    1  A    between atoms: O_2  and  C_12
REMARK    2  A    between atoms: O_2  and  C_19
REMARK    3  A    between atoms: O_3  and  C_16
REMARK    4  A    between atoms: O_3  and  C_18
REMARK    5  A    between atoms: C_20  and  C_25
REMARK    6  A    between atoms: C_24  and  C_28
REMARK    7  A    between atoms: C_28  and  C_33
REMARK                            x       y       z     vdW  Elec       q    Type
REMARK                         _______ _______ _______ _____ _____    ______ ____
ROOT
ATOM      1  O   UNL     1     112.554 126.983 136.414  0.00  0.00    +0.000 OA
ATOM      2  O   UNL     1     110.406 127.402 135.257  0.00  0.00    +0.000 OA
ATOM      3  O   UNL     1     110.064 126.003 135.323  0.00  0.00    +0.000 OA
ATOM      4  O   UNL     1     111.931 124.143 136.583  0.00  0.00    +0.000 OA
ATOM      5  C   UNL     1     111.637 127.888 135.796  0.00  0.00    +0.000 A 
ATOM      6  C   UNL     1     112.353 127.749 136.182  0.00  0.00    +0.000 A 
ATOM      7  C   UNL     1     111.122 127.263 135.643  0.00  0.00    +0.000 A 
ATOM      8  C   UNL     1     111.323 126.497 135.875  0.00  0.00    +0.000 A 
ATOM      9  C   UNL     1     112.038 126.358 136.260  0.00  0.00    +0.000 A 
ATOM     10  C   UNL     1     112.260 125.564 136.507  0.00  0.00    +0.000 A 
ATOM     11  C   UNL     1     110.778 125.854 135.709  0.00  0.00    +0.000 A 
ATOM     12  C   UNL     1     111.727 124.908 136.350  0.00  0.00    +0.000 A 
ATOM     13  C   UNL     1     110.982 125.054 135.948  0.00  0.00    +0.000 A 
ENDROOT
BRANCH   6  15
ATOM     14  O   UNL     1     114.414 130.252 136.796  0.00  0.00    +0.000 OA
ATOM     15  C   UNL     1     112.868 128.374 136.335  0.00  0.00    +0.000 A 
ATOM     16  C   UNL     1     113.318 128.697 135.724  0.00  0.00    +0.000 A 
ATOM     17  C   UNL     1     112.933 128.678 137.100  0.00  0.00    +0.000 A 
ATOM     18  C   UNL     1     113.834 129.324 135.878  0.00  0.00    +0.000 A 
ATOM     19  C   UNL     1     113.448 129.303 137.253  0.00  0.00    +0.000 A 
ATOM     20  C   UNL     1     113.898 129.626 136.642  0.00  0.00    +0.000 A 
ENDBRANCH   6  15
BRANCH   5  21
ATOM     21  O   UNL     1     111.436 128.654 135.564  0.00  0.00    +0.000 OA
BRANCH  21  29
ATOM     22  O   UNL     1     110.501 128.846 136.627  0.00  0.00    +0.000 OA
ATOM     23  O   UNL     1     109.196 130.393 135.199  0.00  0.00    +0.000 OA
ATOM     24  O   UNL     1     110.566 129.685 134.612  0.00  0.00    +0.000 OA
ATOM     25  C   UNL     1     109.381 129.716 136.444  0.00  0.00    +0.000 C 
ATOM     26  C   UNL     1     109.631 129.877 135.675  0.00  0.00    +0.000 C 
ATOM     27  C   UNL     1     110.317 129.523 135.381  0.00  0.00    +0.000 C 
ATOM     28  C   UNL     1     109.816 129.200 136.920  0.00  0.00    +0.000 C 
ATOM     29  C   UNL     1     110.751 129.008 135.857  0.00  0.00    +0.000 C 
ATOM     30  C   UNL     1     109.566 129.038 137.689  0.00  0.00    +0.000 C 
BRANCH  25  31
ATOM     31  O   UNL     1     108.696 130.070 136.737  0.00  0.00    +0.000 OA
BRANCH  31  33
ATOM     32  O   UNL     1     109.202 131.045 137.650  0.00  0.00    +0.000 OA
ATOM     33  C   UNL     1     108.718 130.847 137.012  0.00  0.00    +0.000 C 
ATOM     34  C   UNL     1     108.255 131.426 136.649  0.00  0.00    +0.000 C 
ENDBRANCH  31  33
ENDBRANCH  25  31
ENDBRANCH  21  29
ENDBRANCH   5  21
BRANCH  10  35
ATOM     35  C   UNL     1     112.978 125.434 136.892  0.00  0.00    +0.000 C 
BRANCH  35  36
ATOM     36  C   UNL     1     113.601 125.072 136.490  0.00  0.00    +0.000 C 
ATOM     37  C   UNL     1     114.332 124.979 136.862  0.00  0.00    +0.000 C 
ATOM     38  C   UNL     1     114.955 124.617 136.460  0.00  0.00    +0.000 C 
ATOM     39  C   UNL     1     114.439 125.248 137.634  0.00  0.00    +0.000 C 
ENDBRANCH  35  36
ENDBRANCH  10  35
TORSDOF 7
ENDMDL
MODEL 2
REMARK VINA RESULT:      -9.8      2.345      3.865
REMARK  Name = 44258796
REMARK  7 active torsions:
REMARK  status: ('A' for Active; 'I' for Inactive)
REMARK    1  A    between atoms: O_2  and  C_12
REMARK    2  A    between atoms: O_2  and  C_19
REMARK    3  A    between atoms: O_3  and  C_16
REMARK    4  A    between atoms: O_3  and  C_18
REMARK    5  A    between atoms: C_20  and  C_25
REMARK    6  A    between atoms: C_24  and  C_28
REMARK    7  A    between atoms: C_28  and  C_33
REMARK                            x       y       z     vdW  Elec       q    Type
REMARK                         _______ _______ _______ _____ _____    ______ ____
ROOT
ATOM      1  O   UNL     1     112.878 126.118 138.702  0.00  0.00    +0.000 OA
ATOM      2  O   UNL     1     110.589 125.845 137.801  0.00  0.00    +0.000 OA
ATOM      3  O   UNL     1     110.015 126.324 139.034  0.00  0.00    +0.000 OA
ATOM      4  O   UNL     1     111.791 127.094 141.221  0.00  0.00    +0.000 OA
ATOM      5  C   UNL     1     112.004 125.742 137.635  0.00  0.00    +0.000 A 
ATOM      6  C   UNL     1     112.768 125.833 137.935  0.00  0.00    +0.000 A 
ATOM      7  C   UNL     1     111.352 125.936 138.101  0.00  0.00    +0.000 A 
ATOM      8  C   UNL     1     111.462 126.220 138.867  0.00  0.00    +0.000 A 
ATOM      9  C   UNL     1     112.225 126.311 139.167  0.00  0.00    +0.000 A 
ATOM     10  C   UNL     1     112.354 126.606 139.965  0.00  0.00    +0.000 A 
ATOM     11  C   UNL     1     110.774 126.418 139.343  0.00  0.00    +0.000 A 
ATOM     12  C   UNL     1     111.678 126.810 140.455  0.00  0.00    +0.000 A 
ATOM     13  C   UNL     1     110.883 126.715 140.142  0.00  0.00    +0.000 A 
ENDROOT
BRANCH   6  15
ATOM     14  O   UNL     1     115.379 125.058 136.072  0.00  0.00    +0.000 OA
ATOM     15  C   UNL     1     113.420 125.640 137.470  0.00  0.00    +0.000 A 
ATOM     16  C   UNL     1     113.633 124.849 137.366  0.00  0.00    +0.000 A 
ATOM     17  C   UNL     1     113.860 126.236 137.107  0.00  0.00    +0.000 A 
ATOM     18  C   UNL     1     114.286 124.655 136.900  0.00  0.00    +0.000 A 
ATOM     19  C   UNL     1     114.512 126.043 136.641  0.00  0.00    +0.000 A 
ATOM     20  C   UNL     1     114.725 125.252 136.538  0.00  0.00    +0.000 A 
ENDBRANCH   6  15
BRANCH   5  21
ATOM     21  O   UNL     1     111.894 125.458 136.869  0.00  0.00    +0.000 OA
BRANCH  21  29
ATOM     22  O   UNL     1     111.617 126.743 136.309  0.00  0.00    +0.000 OA
ATOM     23  O   UNL     1     110.154 125.690 134.612  0.00  0.00    +0.000 OA
ATOM     24  O   UNL     1     110.918 124.755 135.737  0.00  0.00    +0.000 OA
ATOM     25  C   UNL     1     110.747 126.859 135.181  0.00  0.00    +0.000 C 
ATOM     26  C   UNL     1     110.641 126.041 135.178  0.00  0.00    +0.000 C 
ATOM     27  C   UNL     1     111.024 125.573 135.741  0.00  0.00    +0.000 C 
ATOM     28  C   UNL     1     111.235 127.210 135.747  0.00  0.00    +0.000 C 
ATOM     29  C   UNL     1     111.512 125.924 136.306  0.00  0.00    +0.000 C 
ATOM     30  C   UNL     1     111.340 128.028 135.750  0.00  0.00    +0.000 C 
BRANCH  25  31
ATOM     31  O   UNL     1     110.365 127.325 134.619  0.00  0.00    +0.000 OA
BRANCH  31  33
ATOM     32  O   UNL     1     109.085 127.473 135.235  0.00  0.00    +0.000 OA
ATOM     33  C   UNL     1     109.729 127.803 134.841  0.00  0.00    +0.000 C 
ATOM     34  C   UNL     1     109.740 128.609 134.667  0.00  0.00    +0.000 C 
ENDBRANCH  31  33
ENDBRANCH  25  31
ENDBRANCH  21  29
ENDBRANCH   5  21
BRANCH  10  35
ATOM     35  C   UNL     1     113.120 126.694 140.257  0.00  0.00    +0.000 C 
BRANCH  35  36
ATOM     36  C   UNL     1     113.432 127.449 140.376  0.00  0.00    +0.000 C 
ATOM     37  C   UNL     1     114.203 127.536 140.658  0.00  0.00    +0.000 C 
ATOM     38  C   UNL     1     114.515 128.290 140.776  0.00  0.00    +0.000 C 
ATOM     39  C   UNL     1     114.660 126.869 140.820  0.00  0.00    +0.000 C 
ENDBRANCH  35  36
ENDBRANCH  10  35
TORSDOF 7
ENDMDL
MODEL 3
REMARK VINA RESULT:      -9.7      1.450      2.043
REMARK  Name = 44258796
REMARK  7 active torsions:
REMARK  status: ('A' for Active; 'I' for Inactive)
REMARK    1  A    between atoms: O_2  and  C_12
REMARK    2  A    between atoms: O_2  and  C_19
REMARK    3  A    between atoms: O_3  and  C_16
REMARK    4  A    between atoms: O_3  and  C_18
REMARK    5  A    between atoms: C_20  and  C_25
REMARK    6  A    between atoms: C_24  and  C_28
REMARK    7  A    between atoms: C_28  and  C_33
REMARK                            x       y       z     vdW  Elec       q    Type
REMARK                         _______ _______ _______ _____ _____    ______ ____
ROOT
ATOM      1  O   UNL     1     112.268 126.547 137.755  0.00  0.00    +0.000 OA
ATOM      2  O   UNL     1     109.930 127.051 137.119  0.00  0.00    +0.000 OA
ATOM      3  O   UNL     1     109.885 125.898 136.255  0.00  0.00    +0.000 OA
ATOM      4  O   UNL     1     112.252 124.202 136.028  0.00  0.00    +0.000 OA
ATOM      5  C   UNL     1     111.108 127.373 137.862  0.00  0.00    +0.000 A 
ATOM      6  C   UNL     1     111.887 127.205 138.074  0.00  0.00    +0.000 A 
ATOM      7  C   UNL     1     110.710 126.884 137.332  0.00  0.00    +0.000 A 
ATOM      8  C   UNL     1     111.091 126.225 137.013  0.00  0.00    +0.000 A 
ATOM      9  C   UNL     1     111.869 126.057 137.224  0.00  0.00    +0.000 A 
ATOM     10  C   UNL     1     112.278 125.374 136.899  0.00  0.00    +0.000 A 
ATOM     11  C   UNL     1     110.665 125.722 136.461  0.00  0.00    +0.000 A 
ATOM     12  C   UNL     1     111.868 124.860 136.346  0.00  0.00    +0.000 A 
ATOM     13  C   UNL     1     111.057 125.035 136.125  0.00  0.00    +0.000 A 
ENDROOT
BRANCH   6  15
ATOM     14  O   UNL     1     113.481 129.165 140.198  0.00  0.00    +0.000 OA
ATOM     15  C   UNL     1     112.285 127.695 138.604  0.00  0.00    +0.000 A 
ATOM     16  C   UNL     1     112.124 127.645 139.412  0.00  0.00    +0.000 A 
ATOM     17  C   UNL     1     112.845 128.235 138.328  0.00  0.00    +0.000 A 
ATOM     18  C   UNL     1     112.523 128.136 139.944  0.00  0.00    +0.000 A 
ATOM     19  C   UNL     1     113.243 128.725 138.859  0.00  0.00    +0.000 A 
ATOM     20  C   UNL     1     113.082 128.675 139.666  0.00  0.00    +0.000 A 
ENDBRANCH   6  15
BRANCH   5  21
ATOM     21  O   UNL     1     110.727 128.032 138.181  0.00  0.00    +0.000 OA
BRANCH  21  29
ATOM     22  O   UNL     1     110.823 128.813 136.988  0.00  0.00    +0.000 OA
ATOM     23  O   UNL     1     108.714 129.969 137.574  0.00  0.00    +0.000 OA
ATOM     24  O   UNL     1     109.320 128.803 138.572  0.00  0.00    +0.000 OA
ATOM     25  C   UNL     1     109.817 129.781 136.685  0.00  0.00    +0.000 C 
ATOM     26  C   UNL     1     109.416 129.584 137.379  0.00  0.00    +0.000 C 
ATOM     27  C   UNL     1     109.720 129.000 137.878  0.00  0.00    +0.000 C 
ATOM     28  C   UNL     1     110.519 129.396 136.490  0.00  0.00    +0.000 C 
ATOM     29  C   UNL     1     110.423 128.615 137.683  0.00  0.00    +0.000 C 
ATOM     30  C   UNL     1     110.919 129.593 135.796  0.00  0.00    +0.000 C 
BRANCH  25  31
ATOM     31  O   UNL     1     109.513 130.364 136.187  0.00  0.00    +0.000 OA
BRANCH  31  33
ATOM     32  O   UNL     1     108.441 129.648 135.573  0.00  0.00    +0.000 OA
ATOM     33  C   UNL     1     109.090 130.151 135.511  0.00  0.00    +0.000 C 
ATOM     34  C   UNL     1     109.319 130.442 134.774  0.00  0.00    +0.000 C 
ENDBRANCH  31  33
ENDBRANCH  25  31
ENDBRANCH  21  29
ENDBRANCH   5  21
BRANCH  10  35
ATOM     35  C   UNL     1     113.057 125.213 137.116  0.00  0.00    +0.000 C 
BRANCH  35  36
ATOM     36  C   UNL     1     113.665 125.296 136.564  0.00  0.00    +0.000 C 
ATOM     37  C   UNL     1     114.448 125.169 136.791  0.00  0.00    +0.000 C 
ATOM     38  C   UNL     1     115.055 125.253 136.239  0.00  0.00    +0.000 C 
ATOM     39  C   UNL     1     114.623 124.959 137.569  0.00  0.00    +0.000 C 
ENDBRANCH  35  36
ENDBRANCH  10  35
TORSDOF 7
ENDMDL
MODEL 4
REMARK VINA RESULT:      -9.7      1.305      1.734
REMARK  Name = 44258796
REMARK  7 active torsions:
REMARK  status: ('A' for Active; 'I' for Inactive)
REMARK    1  A    between atoms: O_2  and  C_12
REMARK    2  A    between atoms: O_2  and  C_19
REMARK    3  A    between atoms: O_3  and  C_16
REMARK    4  A    between atoms: O_3  and  C_18
REMARK    5  A    between atoms: C_20  and  C_25
REMARK    6  A    between atoms: C_24  and  C_28
REMARK    7  A    between atoms: C_28  and  C_33
REMARK                            x       y       z     vdW  Elec       q    Type
REMARK                         _______ _______ _______ _____ _____    ______ ____
ROOT
ATOM      1  O   UNL     1     112.800 127.617 136.616  0.00  0.00    +0.000 OA
ATOM      2  O   UNL     1     110.813 128.773 137.534  0.00  0.00    +0.000 OA
ATOM      3  O   UNL     1     110.295 127.532 138.055  0.00  0.00    +0.000 OA
ATOM      4  O   UNL     1     111.817 125.074 137.640  0.00  0.00    +0.000 OA
ATOM      5  C   UNL     1     112.051 128.817 136.822  0.00  0.00    +0.000 A 
ATOM      6  C   UNL     1     112.714 128.432 136.516  0.00  0.00    +0.000 A 
ATOM      7  C   UNL     1     111.475 128.388 137.228  0.00  0.00    +0.000 A 
ATOM      8  C   UNL     1     111.561 127.574 137.328  0.00  0.00    +0.000 A 
ATOM      9  C   UNL     1     112.223 127.189 137.022  0.00  0.00    +0.000 A 
ATOM     10  C   UNL     1     112.325 126.340 137.119  0.00  0.00    +0.000 A 
ATOM     11  C   UNL     1     110.954 127.138 137.752  0.00  0.00    +0.000 A 
ATOM     12  C   UNL     1     111.728 125.888 137.541  0.00  0.00    +0.000 A 
ATOM     13  C   UNL     1     111.039 126.290 137.859  0.00  0.00    +0.000 A 
ENDROOT
BRANCH   6  15
ATOM     14  O   UNL     1     115.019 130.147 134.893  0.00  0.00    +0.000 OA
ATOM     15  C   UNL     1     113.289 128.860 136.110  0.00  0.00    +0.000 A 
ATOM     16  C   UNL     1     113.817 129.338 136.527  0.00  0.00    +0.000 A 
ATOM     17  C   UNL     1     113.338 128.812 135.288  0.00  0.00    +0.000 A 
ATOM     18  C   UNL     1     114.394 129.767 136.121  0.00  0.00    +0.000 A 
ATOM     19  C   UNL     1     113.914 129.240 134.883  0.00  0.00    +0.000 A 
ATOM     20  C   UNL     1     114.442 129.718 135.299  0.00  0.00    +0.000 A 
ENDBRANCH   6  15
BRANCH   5  21
ATOM     21  O   UNL     1     111.965 129.631 136.722  0.00  0.00    +0.000 OA
BRANCH  21  29
ATOM     22  O   UNL     1     110.954 129.514 135.719  0.00  0.00    +0.000 OA
ATOM     23  O   UNL     1     109.980 131.670 136.448  0.00  0.00    +0.000 OA
ATOM     24  O   UNL     1     111.315 131.069 137.208  0.00  0.00    +0.000 OA
ATOM     25  C   UNL     1     109.962 130.534 135.582  0.00  0.00    +0.000 C 
ATOM     26  C   UNL     1     110.305 130.952 136.205  0.00  0.00    +0.000 C 
ATOM     27  C   UNL     1     110.973 130.651 136.585  0.00  0.00    +0.000 C 
ATOM     28  C   UNL     1     110.287 129.815 135.339  0.00  0.00    +0.000 C 
ATOM     29  C   UNL     1     111.297 129.932 136.342  0.00  0.00    +0.000 C 
ATOM     30  C   UNL     1     109.944 129.397 134.716  0.00  0.00    +0.000 C 
BRANCH  25  31
ATOM     31  O   UNL     1     109.295 130.835 135.202  0.00  0.00    +0.000 OA
BRANCH  31  33
ATOM     32  O   UNL     1     108.268 129.997 135.735  0.00  0.00    +0.000 OA
ATOM     33  C   UNL     1     108.550 130.748 135.546  0.00  0.00    +0.000 C 
ATOM     34  C   UNL     1     108.088 131.414 135.700  0.00  0.00    +0.000 C 
ENDBRANCH  31  33
ENDBRANCH  25  31
ENDBRANCH  21  29
ENDBRANCH   5  21
BRANCH  10  35
ATOM     35  C   UNL     1     112.990 125.963 136.810  0.00  0.00    +0.000 C 
BRANCH  35  36
ATOM     36  C   UNL     1     113.545 125.624 137.318  0.00  0.00    +0.000 C 
ATOM     37  C   UNL     1     114.228 125.277 137.010  0.00  0.00    +0.000 C 
ATOM     38  C   UNL     1     114.782 124.938 137.518  0.00  0.00    +0.000 C 
ATOM     39  C   UNL     1     114.355 125.270 136.195  0.00  0.00    +0.000 C 
ENDBRANCH  35  36
ENDBRANCH  10  35
TORSDOF 7
ENDMDL
MODEL 5
REMARK VINA RESULT:      -9.6      0.928      1.501
REMARK  Name = 44258796
REMARK  7 active torsions:
REMARK  status: ('A' for Active; 'I' for Inactive)
REMARK    1  A    between atoms: O_2  and  C_12
REMARK    2  A    between atoms: O_2  and  C_19
REMARK    3  A    between atoms: O_3  and  C_16
REMARK    4  A    between atoms: O_3  and  C_18
REMARK    5  A    between atoms: C_20  and  C_25
REMARK    6  A    between atoms: C_24  and  C_28
REMARK    7  A    between atoms: C_28  and  C_33
REMARK                            x       y       z     vdW  Elec       q    Type
REMARK                         _______ _______ _______ _____ _____    ______ ____
ROOT
ATOM      1  O   UNL     1     112.284 127.168 136.910  0.00  0.00    +0.000 OA
ATOM      2  O   UNL     1     109.817 127.342 137.009  0.00  0.00    +0.000 OA
ATOM      3  O   UNL     1     109.673 125.988 136.536  0.00  0.00    +0.000 OA
ATOM      4  O   UNL     1     112.071 124.426 135.952  0.00  0.00    +0.000 OA
ATOM      5  C   UNL     1     111.107 127.927 137.194  0.00  0.00    +0.000 A 
ATOM      6  C   UNL     1     111.930 127.870 137.161  0.00  0.00    +0.000 A 
ATOM      7  C   UNL     1     110.639 127.285 136.976  0.00  0.00    +0.000 A 
ATOM      8  C   UNL     1     110.994 126.583 136.725  0.00  0.00    +0.000 A 
ATOM      9  C   UNL     1     111.815 126.525 136.692  0.00  0.00    +0.000 A 
ATOM     10  C   UNL     1     112.197 125.800 136.431  0.00  0.00    +0.000 A 
ATOM     11  C   UNL     1     110.495 125.920 136.500  0.00  0.00    +0.000 A 
ATOM     12  C   UNL     1     111.715 125.127 136.203  0.00  0.00    +0.000 A 
ATOM     13  C   UNL     1     110.858 125.188 136.237  0.00  0.00    +0.000 A 
ENDROOT
BRANCH   6  15
ATOM     14  O   UNL     1     113.803 130.442 138.035  0.00  0.00    +0.000 OA
ATOM     15  C   UNL     1     112.398 128.512 137.379  0.00  0.00    +0.000 A 
ATOM     16  C   UNL     1     112.496 128.700 138.177  0.00  0.00    +0.000 A 
ATOM     17  C   UNL     1     112.769 128.969 136.801  0.00  0.00    +0.000 A 
ATOM     18  C   UNL     1     112.964 129.343 138.396  0.00  0.00    +0.000 A 
ATOM     19  C   UNL     1     113.237 129.612 137.019  0.00  0.00    +0.000 A 
ATOM     20  C   UNL     1     113.334 129.799 137.816  0.00  0.00    +0.000 A 
ENDBRANCH   6  15
BRANCH   5  21
ATOM     21  O   UNL     1     110.753 128.629 137.445  0.00  0.00    +0.000 OA
BRANCH  21  29
ATOM     22  O   UNL     1     110.351 129.041 136.137  0.00  0.00    +0.000 OA
ATOM     23  O   UNL     1     108.368 130.167 137.102  0.00  0.00    +0.000 OA
ATOM     24  O   UNL     1     109.431 129.380 138.089  0.00  0.00    +0.000 OA
ATOM     25  C   UNL     1     109.158 129.810 135.966  0.00  0.00    +0.000 C 
ATOM     26  C   UNL     1     109.029 129.792 136.781  0.00  0.00    +0.000 C 
ATOM     27  C   UNL     1     109.561 129.398 137.274  0.00  0.00    +0.000 C 
ATOM     28  C   UNL     1     109.819 129.434 135.645  0.00  0.00    +0.000 C 
ATOM     29  C   UNL     1     110.222 129.023 136.953  0.00  0.00    +0.000 C 
ATOM     30  C   UNL     1     109.949 129.452 134.830  0.00  0.00    +0.000 C 
BRANCH  25  31
ATOM     31  O   UNL     1     108.627 130.204 135.474  0.00  0.00    +0.000 OA
BRANCH  31  33
ATOM     32  O   UNL     1     109.374 131.380 135.161  0.00  0.00    +0.000 OA
ATOM     33  C   UNL     1     108.668 131.024 135.393  0.00  0.00    +0.000 C 
ATOM     34  C   UNL     1     108.002 131.486 135.546  0.00  0.00    +0.000 C 
ENDBRANCH  31  33
ENDBRANCH  25  31
ENDBRANCH  21  29
ENDBRANCH   5  21
BRANCH  10  35
ATOM     35  C   UNL     1     113.020 125.751 136.402  0.00  0.00    +0.000 C 
BRANCH  35  36
ATOM     36  C   UNL     1     113.424 125.272 136.939  0.00  0.00    +0.000 C 
ATOM     37  C   UNL     1     114.248 125.238 136.921  0.00  0.00    +0.000 C 
ATOM     38  C   UNL     1     114.652 124.759 137.458  0.00  0.00    +0.000 C 
ATOM     39  C   UNL     1     114.667 125.682 136.367  0.00  0.00    +0.000 C 
ENDBRANCH  35  36
ENDBRANCH  10  35
TORSDOF 7
ENDMDL
MODEL 6
REMARK VINA RESULT:      -9.4      1.568      5.016
REMARK  Name = 44258796
REMARK  7 active torsions:
REMARK  status: ('A' for Active; 'I' for Inactive)
REMARK    1  A    between atoms: O_2  and  C_12
REMARK    2  A    between atoms: O_2  and  C_19
REMARK    3  A    between atoms: O_3  and  C_16
REMARK    4  A    between atoms: O_3  and  C_18
REMARK    5  A    between atoms: C_20  and  C_25
REMARK    6  A    between atoms: C_24  and  C_28
REMARK    7  A    between atoms: C_28  and  C_33
REMARK                            x       y       z     vdW  Elec       q    Type
REMARK                         _______ _______ _______ _____ _____    ______ ____
ROOT
ATOM      1  O   UNL     1     111.694 130.486 136.887  0.00  0.00    +0.000 OA
ATOM      2  O   UNL     1     112.034 128.536 135.402  0.00  0.00    +0.000 OA
ATOM      3  O   UNL     1     110.808 128.821 134.698  0.00  0.00    +0.000 OA
ATOM      4  O   UNL     1     109.207 131.124 135.513  0.00  0.00    +0.000 OA
ATOM      5  C   UNL     1     112.473 129.358 136.484  0.00  0.00    +0.000 A 
ATOM      6  C   UNL     1     112.360 130.009 136.980  0.00  0.00    +0.000 A 
ATOM      7  C   UNL     1     111.921 129.186 135.897  0.00  0.00    +0.000 A 
ATOM      8  C   UNL     1     111.255 129.663 135.804  0.00  0.00    +0.000 A 
ATOM      9  C   UNL     1     111.141 130.313 136.299  0.00  0.00    +0.000 A 
ATOM     10  C   UNL     1     110.451 130.819 136.213  0.00  0.00    +0.000 A 
ATOM     11  C   UNL     1     110.686 129.473 135.189  0.00  0.00    +0.000 A 
ATOM     12  C   UNL     1     109.872 130.644 135.603  0.00  0.00    +0.000 A 
ATOM     13  C   UNL     1     109.990 129.967 135.088  0.00  0.00    +0.000 A 
ENDROOT
BRANCH   6  15
ATOM     14  O   UNL     1     114.572 130.700 139.330  0.00  0.00    +0.000 OA
ATOM     15  C   UNL     1     112.912 130.181 137.567  0.00  0.00    +0.000 A 
ATOM     16  C   UNL     1     113.636 130.521 137.365  0.00  0.00    +0.000 A 
ATOM     17  C   UNL     1     112.742 130.014 138.357  0.00  0.00    +0.000 A 
ATOM     18  C   UNL     1     114.190 130.694 137.953  0.00  0.00    +0.000 A 
ATOM     19  C   UNL     1     113.294 130.187 138.944  0.00  0.00    +0.000 A 
ATOM     20  C   UNL     1     114.018 130.527 138.742  0.00  0.00    +0.000 A 
ENDBRANCH   6  15
BRANCH   5  21
ATOM     21  O   UNL     1     113.139 128.881 136.577  0.00  0.00    +0.000 OA
BRANCH  21  29
ATOM     22  O   UNL     1     112.417 127.821 137.208  0.00  0.00    +0.000 OA
ATOM     23  O   UNL     1     114.056 126.184 136.333  0.00  0.00    +0.000 OA
ATOM     24  O   UNL     1     114.232 127.789 135.994  0.00  0.00    +0.000 OA
ATOM     25  C   UNL     1     112.876 126.473 137.086  0.00  0.00    +0.000 C 
ATOM     26  C   UNL     1     113.510 126.729 136.624  0.00  0.00    +0.000 C 
ATOM     27  C   UNL     1     113.598 127.533 136.455  0.00  0.00    +0.000 C 
ATOM     28  C   UNL     1     112.330 127.019 137.377  0.00  0.00    +0.000 C 
ATOM     29  C   UNL     1     113.052 128.078 136.746  0.00  0.00    +0.000 C 
ATOM     30  C   UNL     1     111.696 126.762 137.838  0.00  0.00    +0.000 C 
BRANCH  25  31
ATOM     31  O   UNL     1     112.788 125.671 137.255  0.00  0.00    +0.000 OA
BRANCH  31  33
ATOM     32  O   UNL     1     111.809 125.376 136.258  0.00  0.00    +0.000 OA
ATOM     33  C   UNL     1     112.480 125.160 136.686  0.00  0.00    +0.000 C 
ATOM     34  C   UNL     1     112.843 124.432 136.545  0.00  0.00    +0.000 C 
ENDBRANCH  31  33
ENDBRANCH  25  31
ENDBRANCH  21  29
ENDBRANCH   5  21
BRANCH  10  35
ATOM     35  C   UNL     1     110.346 131.467 136.713  0.00  0.00    +0.000 C 
BRANCH  35  36
ATOM     36  C   UNL     1     110.477 132.231 136.430  0.00  0.00    +0.000 C 
ATOM     37  C   UNL     1     110.407 132.876 136.939  0.00  0.00    +0.000 C 
ATOM     38  C   UNL     1     110.538 133.640 136.657  0.00  0.00    +0.000 C 
ATOM     39  C   UNL     1     110.205 132.758 137.730  0.00  0.00    +0.000 C 
ENDBRANCH  35  36
ENDBRANCH  10  35
TORSDOF 7
ENDMDL
