MODEL 1
REMARK VINA RESULT:     -10.1      0.000      0.000
REMARK  Name = 12309901
REMARK  4 active torsions:
REMARK  status: ('A' for Active; 'I' for Inactive)
REMARK    1  A    between atoms: O_2  and  C_16
REMARK    2  A    between atoms: O_2  and  C_18
REMARK    3  A    between atoms: C_15  and  C_17
REMARK    4  A    between atoms: C_19  and  C_27
REMARK                            x       y       z     vdW  Elec       q    Type
REMARK                         _______ _______ _______ _____ _____    ______ ____
ROOT
ATOM      1  O   UNL     1     104.601 124.649 139.612  0.00  0.00    +0.000 OA
ATOM      2  O   UNL     1     104.816 126.204 140.200  0.00  0.00    +0.000 OA
ATOM      3  O   UNL     1     105.818 122.742 140.617  0.00  0.00    +0.000 OA
ATOM      4  C   UNL     1     105.764 125.713 141.197  0.00  0.00    +0.000 A 
ATOM      5  C   UNL     1     104.489 123.887 139.317  0.00  0.00    +0.000 C 
ATOM      6  C   UNL     1     105.118 124.776 140.242  0.00  0.00    +0.000 A 
ATOM      7  C   UNL     1     104.895 123.251 139.652  0.00  0.00    +0.000 C 
ATOM      8  C   UNL     1     105.524 124.140 140.577  0.00  0.00    +0.000 A 
ATOM      9  C   UNL     1     105.226 125.574 140.541  0.00  0.00    +0.000 A 
ATOM     10  C   UNL     1     105.412 123.378 140.282  0.00  0.00    +0.000 C 
ATOM     11  C   UNL     1     106.186 125.050 141.545  0.00  0.00    +0.000 A 
ATOM     12  C   UNL     1     106.065 124.259 141.234  0.00  0.00    +0.000 A 
ENDROOT
BRANCH   5  15
ATOM     13  O   UNL     1     101.825 123.759 138.290  0.00  0.00    +0.000 OA
ATOM     14  O   UNL     1     102.419 123.379 136.798  0.00  0.00    +0.000 OA
ATOM     15  C   UNL     1     103.972 123.760 138.687  0.00  0.00    +0.000 A 
ATOM     16  C   UNL     1     103.157 123.823 138.804  0.00  0.00    +0.000 A 
ATOM     17  C   UNL     1     104.268 123.570 137.941  0.00  0.00    +0.000 A 
ATOM     18  C   UNL     1     102.639 123.696 138.174  0.00  0.00    +0.000 A 
ATOM     19  C   UNL     1     103.751 123.443 137.312  0.00  0.00    +0.000 A 
ATOM     20  C   UNL     1     102.936 123.506 137.428  0.00  0.00    +0.000 A 
ENDBRANCH   5  15
BRANCH   4  21
ATOM     21  O   UNL     1     105.874 126.476 141.490  0.00  0.00    +0.000 OA
BRANCH  21  30
ATOM     22  O   UNL     1     107.262 126.651 141.201  0.00  0.00    +0.000 OA
ATOM     23  O   UNL     1     107.609 127.621 143.451  0.00  0.00    +0.000 OA
ATOM     24  O   UNL     1     108.880 127.473 142.412  0.00  0.00    +0.000 OA
ATOM     25  O   UNL     1     106.105 127.123 142.991  0.00  0.00    +0.000 OA
ATOM     26  C   UNL     1     107.493 127.298 142.701  0.00  0.00    +0.000 C 
ATOM     27  C   UNL     1     108.129 127.223 142.181  0.00  0.00    +0.000 C 
ATOM     28  C   UNL     1     106.740 127.048 142.470  0.00  0.00    +0.000 C 
ATOM     29  C   UNL     1     108.013 126.900 141.431  0.00  0.00    +0.000 C 
ATOM     30  C   UNL     1     106.625 126.725 141.720  0.00  0.00    +0.000 C 
BRANCH  29  32
ATOM     31  O   UNL     1     108.594 127.127 140.145  0.00  0.00    +0.000 OA
ATOM     32  C   UNL     1     108.649 126.826 140.912  0.00  0.00    +0.000 C 
ENDBRANCH  29  32
ENDBRANCH  21  30
ENDBRANCH   4  21
TORSDOF 4
ENDMDL
MODEL 2
REMARK VINA RESULT:      -9.6      7.247      9.844
REMARK  Name = 12309901
REMARK  4 active torsions:
REMARK  status: ('A' for Active; 'I' for Inactive)
REMARK    1  A    between atoms: O_2  and  C_16
REMARK    2  A    between atoms: O_2  and  C_18
REMARK    3  A    between atoms: C_15  and  C_17
REMARK    4  A    between atoms: C_19  and  C_27
REMARK                            x       y       z     vdW  Elec       q    Type
REMARK                         _______ _______ _______ _____ _____    ______ ____
ROOT
ATOM      1  O   UNL     1     113.526 128.560 139.665  0.00  0.00    +0.000 OA
ATOM      2  O   UNL     1     113.036 128.215 138.100  0.00  0.00    +0.000 OA
ATOM      3  O   UNL     1     113.211 126.904 141.478  0.00  0.00    +0.000 OA
ATOM      4  C   UNL     1     112.563 126.899 138.520  0.00  0.00    +0.000 A 
ATOM      5  C   UNL     1     113.769 128.737 140.433  0.00  0.00    +0.000 C 
ATOM      6  C   UNL     1     113.177 127.830 139.501  0.00  0.00    +0.000 A 
ATOM      7  C   UNL     1     113.664 128.185 141.037  0.00  0.00    +0.000 C 
ATOM      8  C   UNL     1     113.072 127.278 140.105  0.00  0.00    +0.000 A 
ATOM      9  C   UNL     1     112.928 127.657 138.697  0.00  0.00    +0.000 A 
ATOM     10  C   UNL     1     113.315 127.456 140.873  0.00  0.00    +0.000 C 
ATOM     11  C   UNL     1     112.454 126.325 139.150  0.00  0.00    +0.000 A 
ATOM     12  C   UNL     1     112.710 126.515 139.947  0.00  0.00    +0.000 A 
ENDROOT
BRANCH   5  15
ATOM     13  O   UNL     1     113.614 131.355 141.569  0.00  0.00    +0.000 OA
ATOM     14  O   UNL     1     115.164 131.655 141.090  0.00  0.00    +0.000 OA
ATOM     15  C   UNL     1     114.118 129.467 140.597  0.00  0.00    +0.000 A 
ATOM     16  C   UNL     1     113.691 130.046 141.001  0.00  0.00    +0.000 A 
ATOM     17  C   UNL     1     114.893 129.617 140.358  0.00  0.00    +0.000 A 
ATOM     18  C   UNL     1     114.040 130.776 141.165  0.00  0.00    +0.000 A 
ATOM     19  C   UNL     1     115.241 130.346 140.522  0.00  0.00    +0.000 A 
ATOM     20  C   UNL     1     114.815 130.926 140.926  0.00  0.00    +0.000 A 
ENDBRANCH   5  15
BRANCH   4  21
ATOM     21  O   UNL     1     112.321 126.724 137.751  0.00  0.00    +0.000 OA
BRANCH  21  30
ATOM     22  O   UNL     1     113.317 125.759 137.408  0.00  0.00    +0.000 OA
ATOM     23  O   UNL     1     111.578 124.334 136.371  0.00  0.00    +0.000 OA
ATOM     24  O   UNL     1     113.153 123.844 136.373  0.00  0.00    +0.000 OA
ATOM     25  O   UNL     1     111.162 125.775 137.060  0.00  0.00    +0.000 OA
ATOM     26  C   UNL     1     112.158 124.809 136.716  0.00  0.00    +0.000 C 
ATOM     27  C   UNL     1     112.945 124.564 136.718  0.00  0.00    +0.000 C 
ATOM     28  C   UNL     1     111.949 125.530 137.061  0.00  0.00    +0.000 C 
ATOM     29  C   UNL     1     113.525 125.039 137.063  0.00  0.00    +0.000 C 
ATOM     30  C   UNL     1     112.529 126.005 137.407  0.00  0.00    +0.000 C 
BRANCH  29  32
ATOM     31  O   UNL     1     114.909 125.318 136.842  0.00  0.00    +0.000 OA
ATOM     32  C   UNL     1     114.312 124.794 137.064  0.00  0.00    +0.000 C 
ENDBRANCH  29  32
ENDBRANCH  21  30
ENDBRANCH   4  21
TORSDOF 4
ENDMDL
MODEL 3
REMARK VINA RESULT:      -9.5      4.462      6.126
REMARK  Name = 12309901
REMARK  4 active torsions:
REMARK  status: ('A' for Active; 'I' for Inactive)
REMARK    1  A    between atoms: O_2  and  C_16
REMARK    2  A    between atoms: O_2  and  C_18
REMARK    3  A    between atoms: C_15  and  C_17
REMARK    4  A    between atoms: C_19  and  C_27
REMARK                            x       y       z     vdW  Elec       q    Type
REMARK                         _______ _______ _______ _____ _____    ______ ____
ROOT
ATOM      1  O   UNL     1     103.118 130.310 142.190  0.00  0.00    +0.000 OA
ATOM      2  O   UNL     1     104.058 129.759 143.463  0.00  0.00    +0.000 OA
ATOM      3  O   UNL     1     103.036 129.063 140.053  0.00  0.00    +0.000 OA
ATOM      4  C   UNL     1     104.495 128.615 142.668  0.00  0.00    +0.000 A 
ATOM      5  C   UNL     1     102.653 130.588 141.568  0.00  0.00    +0.000 C 
ATOM      6  C   UNL     1     103.556 129.617 142.100  0.00  0.00    +0.000 A 
ATOM      7  C   UNL     1     102.626 130.172 140.856  0.00  0.00    +0.000 C 
ATOM      8  C   UNL     1     103.529 129.201 141.388  0.00  0.00    +0.000 A 
ATOM      9  C   UNL     1     104.037 129.338 142.755  0.00  0.00    +0.000 A 
ATOM     10  C   UNL     1     103.063 129.478 140.766  0.00  0.00    +0.000 C 
ATOM     11  C   UNL     1     104.466 128.183 141.926  0.00  0.00    +0.000 A 
ATOM     12  C   UNL     1     103.980 128.477 141.282  0.00  0.00    +0.000 A 
ENDROOT
BRANCH   5  15
ATOM     13  O   UNL     1     102.461 133.434 141.388  0.00  0.00    +0.000 OA
ATOM     14  O   UNL     1     100.903 133.362 141.926  0.00  0.00    +0.000 OA
ATOM     15  C   UNL     1     102.215 131.281 141.657  0.00  0.00    +0.000 A 
ATOM     16  C   UNL     1     102.557 132.011 141.478  0.00  0.00    +0.000 A 
ATOM     17  C   UNL     1     101.436 131.246 141.926  0.00  0.00    +0.000 A 
ATOM     18  C   UNL     1     102.120 132.704 141.567  0.00  0.00    +0.000 A 
ATOM     19  C   UNL     1     100.999 131.939 142.016  0.00  0.00    +0.000 A 
ATOM     20  C   UNL     1     101.341 132.669 141.836  0.00  0.00    +0.000 A 
ENDBRANCH   5  15
BRANCH   4  21
ATOM     21  O   UNL     1     104.959 128.340 143.292  0.00  0.00    +0.000 OA
BRANCH  21  30
ATOM     22  O   UNL     1     106.257 128.611 142.759  0.00  0.00    +0.000 OA
ATOM     23  O   UNL     1     107.037 126.393 143.530  0.00  0.00    +0.000 OA
ATOM     24  O   UNL     1     108.075 127.403 142.741  0.00  0.00    +0.000 OA
ATOM     25  O   UNL     1     105.479 126.861 143.806  0.00  0.00    +0.000 OA
ATOM     26  C   UNL     1     106.777 127.132 143.273  0.00  0.00    +0.000 C 
ATOM     27  C   UNL     1     107.296 127.638 142.879  0.00  0.00    +0.000 C 
ATOM     28  C   UNL     1     105.998 127.367 143.411  0.00  0.00    +0.000 C 
ATOM     29  C   UNL     1     107.036 128.378 142.622  0.00  0.00    +0.000 C 
ATOM     30  C   UNL     1     105.738 128.106 143.154  0.00  0.00    +0.000 C 
BRANCH  29  32
ATOM     31  O   UNL     1     107.566 129.688 142.409  0.00  0.00    +0.000 OA
ATOM     32  C   UNL     1     107.555 128.883 142.227  0.00  0.00    +0.000 C 
ENDBRANCH  29  32
ENDBRANCH  21  30
ENDBRANCH   4  21
TORSDOF 4
ENDMDL
MODEL 4
REMARK VINA RESULT:      -9.5      3.852      6.962
REMARK  Name = 12309901
REMARK  4 active torsions:
REMARK  status: ('A' for Active; 'I' for Inactive)
REMARK    1  A    between atoms: O_2  and  C_16
REMARK    2  A    between atoms: O_2  and  C_18
REMARK    3  A    between atoms: C_15  and  C_17
REMARK    4  A    between atoms: C_19  and  C_27
REMARK                            x       y       z     vdW  Elec       q    Type
REMARK                         _______ _______ _______ _____ _____    ______ ____
ROOT
ATOM      1  O   UNL     1     106.611 125.130 146.135  0.00  0.00    +0.000 OA
ATOM      2  O   UNL     1     106.461 124.196 144.752  0.00  0.00    +0.000 OA
ATOM      3  O   UNL     1     105.871 127.492 146.147  0.00  0.00    +0.000 OA
ATOM      4  C   UNL     1     105.875 125.325 144.034  0.00  0.00    +0.000 A 
ATOM      5  C   UNL     1     106.688 125.583 146.820  0.00  0.00    +0.000 C 
ATOM      6  C   UNL     1     106.287 125.464 145.454  0.00  0.00    +0.000 A 
ATOM      7  C   UNL     1     106.442 126.370 146.824  0.00  0.00    +0.000 C 
ATOM      8  C   UNL     1     106.041 126.251 145.458  0.00  0.00    +0.000 A 
ATOM      9  C   UNL     1     106.212 124.982 144.747  0.00  0.00    +0.000 A 
ATOM     10  C   UNL     1     106.118 126.704 146.143  0.00  0.00    +0.000 C 
ATOM     11  C   UNL     1     105.619 126.145 144.038  0.00  0.00    +0.000 A 
ATOM     12  C   UNL     1     105.702 126.611 144.755  0.00  0.00    +0.000 A 
ENDROOT
BRANCH   5  15
ATOM     13  O   UNL     1     106.351 124.204 149.301  0.00  0.00    +0.000 OA
ATOM     14  O   UNL     1     107.982 124.246 149.546  0.00  0.00    +0.000 OA
ATOM     15  C   UNL     1     107.012 125.249 147.502  0.00  0.00    +0.000 A 
ATOM     16  C   UNL     1     106.519 124.894 148.061  0.00  0.00    +0.000 A 
ATOM     17  C   UNL     1     107.828 125.270 147.624  0.00  0.00    +0.000 A 
ATOM     18  C   UNL     1     106.843 124.559 148.742  0.00  0.00    +0.000 A 
ATOM     19  C   UNL     1     108.150 124.936 148.305  0.00  0.00    +0.000 A 
ATOM     20  C   UNL     1     107.659 124.580 148.864  0.00  0.00    +0.000 A 
ENDBRANCH   5  15
BRANCH   4  21
ATOM     21  O   UNL     1     105.799 124.869 143.350  0.00  0.00    +0.000 OA
BRANCH  21  30
ATOM     22  O   UNL     1     106.751 125.635 142.608  0.00  0.00    +0.000 OA
ATOM     23  O   UNL     1     105.567 125.071 140.508  0.00  0.00    +0.000 OA
ATOM     24  O   UNL     1     106.913 126.023 140.466  0.00  0.00    +0.000 OA
ATOM     25  O   UNL     1     105.010 124.493 141.950  0.00  0.00    +0.000 OA
ATOM     26  C   UNL     1     105.962 125.259 141.208  0.00  0.00    +0.000 C 
ATOM     27  C   UNL     1     106.635 125.735 141.188  0.00  0.00    +0.000 C 
ATOM     28  C   UNL     1     105.683 124.970 141.930  0.00  0.00    +0.000 C 
ATOM     29  C   UNL     1     107.029 125.923 141.887  0.00  0.00    +0.000 C 
ATOM     30  C   UNL     1     106.078 125.158 142.630  0.00  0.00    +0.000 C 
BRANCH  29  32
ATOM     31  O   UNL     1     108.424 126.107 142.139  0.00  0.00    +0.000 OA
ATOM     32  C   UNL     1     107.702 126.399 141.866  0.00  0.00    +0.000 C 
ENDBRANCH  29  32
ENDBRANCH  21  30
ENDBRANCH   4  21
TORSDOF 4
ENDMDL
MODEL 5
REMARK VINA RESULT:      -9.4      6.941      9.106
REMARK  Name = 12309901
REMARK  4 active torsions:
REMARK  status: ('A' for Active; 'I' for Inactive)
REMARK    1  A    between atoms: O_2  and  C_16
REMARK    2  A    between atoms: O_2  and  C_18
REMARK    3  A    between atoms: C_15  and  C_17
REMARK    4  A    between atoms: C_19  and  C_27
REMARK                            x       y       z     vdW  Elec       q    Type
REMARK                         _______ _______ _______ _____ _____    ______ ____
ROOT
ATOM      1  O   UNL     1     112.549 127.226 136.326  0.00  0.00    +0.000 OA
ATOM      2  O   UNL     1     110.885 127.218 136.123  0.00  0.00    +0.000 OA
ATOM      3  O   UNL     1     113.873 129.248 135.791  0.00  0.00    +0.000 OA
ATOM      4  C   UNL     1     110.919 128.599 135.650  0.00  0.00    +0.000 A 
ATOM      5  C   UNL     1     113.368 127.223 136.428  0.00  0.00    +0.000 C 
ATOM      6  C   UNL     1     112.171 127.904 136.045  0.00  0.00    +0.000 A 
ATOM      7  C   UNL     1     113.809 127.897 136.250  0.00  0.00    +0.000 C 
ATOM      8  C   UNL     1     112.612 128.578 135.866  0.00  0.00    +0.000 A 
ATOM      9  C   UNL     1     111.319 127.896 135.943  0.00  0.00    +0.000 A 
ATOM     10  C   UNL     1     113.431 128.574 135.969  0.00  0.00    +0.000 C 
ATOM     11  C   UNL     1     111.379 129.301 135.465  0.00  0.00    +0.000 A 
ATOM     12  C   UNL     1     112.231 129.290 135.573  0.00  0.00    +0.000 A 
ENDROOT
BRANCH   5  15
ATOM     13  O   UNL     1     114.194 125.575 138.613  0.00  0.00    +0.000 OA
ATOM     14  O   UNL     1     114.877 124.512 137.552  0.00  0.00    +0.000 OA
ATOM     15  C   UNL     1     113.745 126.545 136.709  0.00  0.00    +0.000 A 
ATOM     16  C   UNL     1     113.781 126.399 137.521  0.00  0.00    +0.000 A 
ATOM     17  C   UNL     1     114.087 126.013 136.179  0.00  0.00    +0.000 A 
ATOM     18  C   UNL     1     114.158 125.722 137.801  0.00  0.00    +0.000 A 
ATOM     19  C   UNL     1     114.464 125.336 136.460  0.00  0.00    +0.000 A 
ATOM     20  C   UNL     1     114.500 125.190 137.271  0.00  0.00    +0.000 A 
ENDBRANCH   5  15
BRANCH   4  21
ATOM     21  O   UNL     1     110.100 128.600 135.549  0.00  0.00    +0.000 OA
BRANCH  21  30
ATOM     22  O   UNL     1     109.703 129.279 136.742  0.00  0.00    +0.000 OA
ATOM     23  O   UNL     1     108.126 130.663 135.429  0.00  0.00    +0.000 OA
ATOM     24  O   UNL     1     108.254 130.880 137.059  0.00  0.00    +0.000 OA
ATOM     25  O   UNL     1     109.049 129.523 134.674  0.00  0.00    +0.000 OA
ATOM     26  C   UNL     1     108.651 130.201 135.867  0.00  0.00    +0.000 C 
ATOM     27  C   UNL     1     108.716 130.310 136.682  0.00  0.00    +0.000 C 
ATOM     28  C   UNL     1     109.114 129.631 135.489  0.00  0.00    +0.000 C 
ATOM     29  C   UNL     1     109.242 129.848 137.119  0.00  0.00    +0.000 C 
ATOM     30  C   UNL     1     109.639 129.170 135.926  0.00  0.00    +0.000 C 
BRANCH  29  32
ATOM     31  O   UNL     1     109.283 129.306 138.441  0.00  0.00    +0.000 OA
ATOM     32  C   UNL     1     109.306 129.957 137.934  0.00  0.00    +0.000 C 
ENDBRANCH  29  32
ENDBRANCH  21  30
ENDBRANCH   4  21
TORSDOF 4
ENDMDL
MODEL 6
REMARK VINA RESULT:      -9.3      6.595      7.865
REMARK  Name = 12309901
REMARK  4 active torsions:
REMARK  status: ('A' for Active; 'I' for Inactive)
REMARK    1  A    between atoms: O_2  and  C_16
REMARK    2  A    between atoms: O_2  and  C_18
REMARK    3  A    between atoms: C_15  and  C_17
REMARK    4  A    between atoms: C_19  and  C_27
REMARK                            x       y       z     vdW  Elec       q    Type
REMARK                         _______ _______ _______ _____ _____    ______ ____
ROOT
ATOM      1  O   UNL     1     110.315 128.225 135.924  0.00  0.00    +0.000 OA
ATOM      2  O   UNL     1     111.331 129.544 136.118  0.00  0.00    +0.000 OA
ATOM      3  O   UNL     1     107.864 128.534 135.762  0.00  0.00    +0.000 OA
ATOM      4  C   UNL     1     110.184 130.448 136.110  0.00  0.00    +0.000 A 
ATOM      5  C   UNL     1     109.822 127.570 135.828  0.00  0.00    +0.000 C 
ATOM      6  C   UNL     1     109.992 128.983 135.966  0.00  0.00    +0.000 A 
ATOM      7  C   UNL     1     109.005 127.674 135.774  0.00  0.00    +0.000 C 
ATOM      8  C   UNL     1     109.175 129.086 135.912  0.00  0.00    +0.000 A 
ATOM      9  C   UNL     1     110.516 129.656 136.066  0.00  0.00    +0.000 A 
ATOM     10  C   UNL     1     108.682 128.432 135.816  0.00  0.00    +0.000 C 
ATOM     11  C   UNL     1     109.334 130.555 136.054  0.00  0.00    +0.000 A 
ATOM     12  C   UNL     1     108.826 129.870 135.954  0.00  0.00    +0.000 A 
ENDROOT
BRANCH   5  15
ATOM     13  O   UNL     1     110.867 125.250 137.129  0.00  0.00    +0.000 OA
ATOM     14  O   UNL     1     111.115 124.539 135.661  0.00  0.00    +0.000 OA
ATOM     15  C   UNL     1     110.145 126.812 135.786  0.00  0.00    +0.000 A 
ATOM     16  C   UNL     1     110.344 126.411 136.479  0.00  0.00    +0.000 A 
ATOM     17  C   UNL     1     110.269 126.457 135.052  0.00  0.00    +0.000 A 
ATOM     18  C   UNL     1     110.668 125.653 136.437  0.00  0.00    +0.000 A 
ATOM     19  C   UNL     1     110.592 125.699 135.011  0.00  0.00    +0.000 A 
ATOM     20  C   UNL     1     110.792 125.297 135.703  0.00  0.00    +0.000 A 
ENDBRANCH   5  15
BRANCH   4  21
ATOM     21  O   UNL     1     110.680 131.101 136.206  0.00  0.00    +0.000 OA
BRANCH  21  30
ATOM     22  O   UNL     1     110.476 131.347 137.599  0.00  0.00    +0.000 OA
ATOM     23  O   UNL     1     110.318 133.775 137.146  0.00  0.00    +0.000 OA
ATOM     24  O   UNL     1     110.166 133.212 138.689  0.00  0.00    +0.000 OA
ATOM     25  O   UNL     1     110.575 132.720 135.904  0.00  0.00    +0.000 OA
ATOM     26  C   UNL     1     110.371 132.966 137.297  0.00  0.00    +0.000 C 
ATOM     27  C   UNL     1     110.295 132.684 138.068  0.00  0.00    +0.000 C 
ATOM     28  C   UNL     1     110.499 132.437 136.676  0.00  0.00    +0.000 C 
ATOM     29  C   UNL     1     110.347 131.874 138.219  0.00  0.00    +0.000 C 
ATOM     30  C   UNL     1     110.552 131.628 136.826  0.00  0.00    +0.000 C 
BRANCH  29  32
ATOM     31  O   UNL     1     110.875 131.142 139.327  0.00  0.00    +0.000 OA
ATOM     32  C   UNL     1     110.272 131.593 138.990  0.00  0.00    +0.000 C 
ENDBRANCH  29  32
ENDBRANCH  21  30
ENDBRANCH   4  21
TORSDOF 4
ENDMDL
MODEL 7
REMARK VINA RESULT:      -9.3      4.646      6.696
REMARK  Name = 12309901
REMARK  4 active torsions:
REMARK  status: ('A' for Active; 'I' for Inactive)
REMARK    1  A    between atoms: O_2  and  C_16
REMARK    2  A    between atoms: O_2  and  C_18
REMARK    3  A    between atoms: C_15  and  C_17
REMARK    4  A    between atoms: C_19  and  C_27
REMARK                            x       y       z     vdW  Elec       q    Type
REMARK                         _______ _______ _______ _____ _____    ______ ____
ROOT
ATOM      1  O   UNL     1     106.141 127.608 144.376  0.00  0.00    +0.000 OA
ATOM      2  O   UNL     1     106.804 126.120 144.771  0.00  0.00    +0.000 OA
ATOM      3  O   UNL     1     105.945 129.392 146.081  0.00  0.00    +0.000 OA
ATOM      4  C   UNL     1     107.018 126.561 146.146  0.00  0.00    +0.000 A 
ATOM      5  C   UNL     1     105.813 128.337 144.174  0.00  0.00    +0.000 C 
ATOM      6  C   UNL     1     106.403 127.472 145.146  0.00  0.00    +0.000 A 
ATOM      7  C   UNL     1     105.748 128.932 144.742  0.00  0.00    +0.000 C 
ATOM      8  C   UNL     1     106.338 128.067 145.715  0.00  0.00    +0.000 A 
ATOM      9  C   UNL     1     106.743 126.708 145.345  0.00  0.00    +0.000 A 
ATOM     10  C   UNL     1     106.011 128.797 145.513  0.00  0.00    +0.000 C 
ATOM     11  C   UNL     1     106.950 127.181 146.737  0.00  0.00    +0.000 A 
ATOM     12  C   UNL     1     106.608 127.939 146.520  0.00  0.00    +0.000 A 
ENDROOT
BRANCH   5  15
ATOM     13  O   UNL     1     106.373 128.974 141.445  0.00  0.00    +0.000 OA
ATOM     14  O   UNL     1     104.764 128.878 141.092  0.00  0.00    +0.000 OA
ATOM     15  C   UNL     1     105.551 128.472 143.403  0.00  0.00    +0.000 A 
ATOM     16  C   UNL     1     106.094 128.656 142.809  0.00  0.00    +0.000 A 
ATOM     17  C   UNL     1     104.746 128.425 143.227  0.00  0.00    +0.000 A 
ATOM     18  C   UNL     1     105.831 128.791 142.039  0.00  0.00    +0.000 A 
ATOM     19  C   UNL     1     104.485 128.560 142.457  0.00  0.00    +0.000 A 
ATOM     20  C   UNL     1     105.027 128.743 141.863  0.00  0.00    +0.000 A 
ENDBRANCH   5  15
BRANCH   4  21
ATOM     21  O   UNL     1     107.345 125.831 146.345  0.00  0.00    +0.000 OA
BRANCH  21  30
ATOM     22  O   UNL     1     106.289 125.272 147.129  0.00  0.00    +0.000 OA
ATOM     23  O   UNL     1     107.929 124.580 148.848  0.00  0.00    +0.000 OA
ATOM     24  O   UNL     1     106.327 124.252 149.058  0.00  0.00    +0.000 OA
ATOM     25  O   UNL     1     108.439 125.370 147.492  0.00  0.00    +0.000 OA
ATOM     26  C   UNL     1     107.383 124.811 148.275  0.00  0.00    +0.000 C 
ATOM     27  C   UNL     1     106.581 124.647 148.379  0.00  0.00    +0.000 C 
ATOM     28  C   UNL     1     107.637 125.206 147.596  0.00  0.00    +0.000 C 
ATOM     29  C   UNL     1     106.034 124.877 147.806  0.00  0.00    +0.000 C 
ATOM     30  C   UNL     1     107.090 125.436 147.023  0.00  0.00    +0.000 C 
BRANCH  29  32
ATOM     31  O   UNL     1     104.774 124.466 147.272  0.00  0.00    +0.000 OA
ATOM     32  C   UNL     1     105.233 124.713 147.911  0.00  0.00    +0.000 C 
ENDBRANCH  29  32
ENDBRANCH  21  30
ENDBRANCH   4  21
TORSDOF 4
ENDMDL
MODEL 8
REMARK VINA RESULT:      -9.3      6.746      8.663
REMARK  Name = 12309901
REMARK  4 active torsions:
REMARK  status: ('A' for Active; 'I' for Inactive)
REMARK    1  A    between atoms: O_2  and  C_16
REMARK    2  A    between atoms: O_2  and  C_18
REMARK    3  A    between atoms: C_15  and  C_17
REMARK    4  A    between atoms: C_19  and  C_27
REMARK                            x       y       z     vdW  Elec       q    Type
REMARK                         _______ _______ _______ _____ _____    ______ ____
ROOT
ATOM      1  O   UNL     1     112.380 126.640 136.278  0.00  0.00    +0.000 OA
ATOM      2  O   UNL     1     112.194 128.298 136.123  0.00  0.00    +0.000 OA
ATOM      3  O   UNL     1     110.577 125.098 135.572  0.00  0.00    +0.000 OA
ATOM      4  C   UNL     1     110.861 128.112 135.558  0.00  0.00    +0.000 A 
ATOM      5  C   UNL     1     112.480 125.825 136.357  0.00  0.00    +0.000 C 
ATOM      6  C   UNL     1     111.680 126.941 135.963  0.00  0.00    +0.000 A 
ATOM      7  C   UNL     1     111.879 125.311 136.122  0.00  0.00    +0.000 C 
ATOM      8  C   UNL     1     111.079 126.428 135.728  0.00  0.00    +0.000 A 
ATOM      9  C   UNL     1     111.588 127.792 135.885  0.00  0.00    +0.000 A 
ATOM     10  C   UNL     1     111.178 125.613 135.807  0.00  0.00    +0.000 C 
ATOM     11  C   UNL     1     110.235 127.577 135.313  0.00  0.00    +0.000 A 
ATOM     12  C   UNL     1     110.345 126.729 135.398  0.00  0.00    +0.000 A 
ENDROOT
BRANCH   5  15
ATOM     13  O   UNL     1     115.194 124.999 136.013  0.00  0.00    +0.000 OA
ATOM     14  O   UNL     1     115.282 124.619 137.616  0.00  0.00    +0.000 OA
ATOM     15  C   UNL     1     113.180 125.523 136.672  0.00  0.00    +0.000 A 
ATOM     16  C   UNL     1     113.837 125.412 136.185  0.00  0.00    +0.000 A 
ATOM     17  C   UNL     1     113.224 125.333 137.474  0.00  0.00    +0.000 A 
ATOM     18  C   UNL     1     114.537 125.110 136.500  0.00  0.00    +0.000 A 
ATOM     19  C   UNL     1     113.925 125.032 137.788  0.00  0.00    +0.000 A 
ATOM     20  C   UNL     1     114.581 124.921 137.301  0.00  0.00    +0.000 A 
ENDBRANCH   5  15
BRANCH   4  21
ATOM     21  O   UNL     1     110.764 128.928 135.480  0.00  0.00    +0.000 OA
BRANCH  21  30
ATOM     22  O   UNL     1     110.026 129.212 136.670  0.00  0.00    +0.000 OA
ATOM     23  O   UNL     1     108.474 130.635 135.369  0.00  0.00    +0.000 OA
ATOM     24  O   UNL     1     108.255 130.444 136.992  0.00  0.00    +0.000 OA
ATOM     25  O   UNL     1     109.729 129.876 134.612  0.00  0.00    +0.000 OA
ATOM     26  C   UNL     1     108.992 130.160 135.803  0.00  0.00    +0.000 C 
ATOM     27  C   UNL     1     108.882 130.065 136.614  0.00  0.00    +0.000 C 
ATOM     28  C   UNL     1     109.620 129.781 135.424  0.00  0.00    +0.000 C 
ATOM     29  C   UNL     1     109.400 129.591 137.048  0.00  0.00    +0.000 C 
ATOM     30  C   UNL     1     110.137 129.307 135.858  0.00  0.00    +0.000 C 
BRANCH  29  32
ATOM     31  O   UNL     1     109.937 129.524 138.371  0.00  0.00    +0.000 OA
ATOM     32  C   UNL     1     109.289 129.496 137.860  0.00  0.00    +0.000 C 
ENDBRANCH  29  32
ENDBRANCH  21  30
ENDBRANCH   4  21
TORSDOF 4
ENDMDL
MODEL 9
REMARK VINA RESULT:      -9.2      3.956      5.700
REMARK  Name = 12309901
REMARK  4 active torsions:
REMARK  status: ('A' for Active; 'I' for Inactive)
REMARK    1  A    between atoms: O_2  and  C_16
REMARK    2  A    between atoms: O_2  and  C_18
REMARK    3  A    between atoms: C_15  and  C_17
REMARK    4  A    between atoms: C_19  and  C_27
REMARK                            x       y       z     vdW  Elec       q    Type
REMARK                         _______ _______ _______ _____ _____    ______ ____
ROOT
ATOM      1  O   UNL     1     106.172 125.448 143.717  0.00  0.00    +0.000 OA
ATOM      2  O   UNL     1     106.164 124.228 144.867  0.00  0.00    +0.000 OA
ATOM      3  O   UNL     1     105.469 127.745 144.313  0.00  0.00    +0.000 OA
ATOM      4  C   UNL     1     105.678 125.162 145.878  0.00  0.00    +0.000 A 
ATOM      5  C   UNL     1     106.179 126.043 143.145  0.00  0.00    +0.000 C 
ATOM      6  C   UNL     1     105.931 125.618 144.487  0.00  0.00    +0.000 A 
ATOM      7  C   UNL     1     105.945 126.808 143.344  0.00  0.00    +0.000 C 
ATOM      8  C   UNL     1     105.697 126.384 144.686  0.00  0.00    +0.000 A 
ATOM      9  C   UNL     1     105.928 124.991 145.074  0.00  0.00    +0.000 A 
ATOM     10  C   UNL     1     105.704 126.979 144.115  0.00  0.00    +0.000 C 
ATOM     11  C   UNL     1     105.434 125.960 146.084  0.00  0.00    +0.000 A 
ATOM     12  C   UNL     1     105.444 126.575 145.484  0.00  0.00    +0.000 A 
ENDROOT
BRANCH   5  15
ATOM     13  O   UNL     1     105.609 124.995 140.549  0.00  0.00    +0.000 OA
ATOM     14  O   UNL     1     107.143 125.359 140.064  0.00  0.00    +0.000 OA
ATOM     15  C   UNL     1     106.421 125.872 142.375  0.00  0.00    +0.000 A 
ATOM     16  C   UNL     1     105.893 125.518 141.847  0.00  0.00    +0.000 A 
ATOM     17  C   UNL     1     107.188 126.054 142.133  0.00  0.00    +0.000 A 
ATOM     18  C   UNL     1     106.135 125.348 141.077  0.00  0.00    +0.000 A 
ATOM     19  C   UNL     1     107.428 125.883 141.363  0.00  0.00    +0.000 A 
ATOM     20  C   UNL     1     106.902 125.530 140.835  0.00  0.00    +0.000 A 
ENDBRANCH   5  15
BRANCH   4  21
ATOM     21  O   UNL     1     105.672 124.566 146.448  0.00  0.00    +0.000 OA
BRANCH  21  30
ATOM     22  O   UNL     1     106.850 124.917 147.176  0.00  0.00    +0.000 OA
ATOM     23  O   UNL     1     105.648 124.536 149.306  0.00  0.00    +0.000 OA
ATOM     24  O   UNL     1     107.226 125.014 149.323  0.00  0.00    +0.000 OA
ATOM     25  O   UNL     1     104.871 124.311 147.868  0.00  0.00    +0.000 OA
ATOM     26  C   UNL     1     106.049 124.663 148.596  0.00  0.00    +0.000 C 
ATOM     27  C   UNL     1     106.838 124.902 148.604  0.00  0.00    +0.000 C 
ATOM     28  C   UNL     1     105.660 124.550 147.876  0.00  0.00    +0.000 C 
ATOM     29  C   UNL     1     107.239 125.030 147.894  0.00  0.00    +0.000 C 
ATOM     30  C   UNL     1     106.061 124.678 147.166  0.00  0.00    +0.000 C 
BRANCH  29  32
ATOM     31  O   UNL     1     108.544 125.014 147.312  0.00  0.00    +0.000 OA
ATOM     32  C   UNL     1     108.028 125.269 147.904  0.00  0.00    +0.000 C 
ENDBRANCH  29  32
ENDBRANCH  21  30
ENDBRANCH   4  21
TORSDOF 4
ENDMDL
MODEL 10
REMARK VINA RESULT:      -9.1      7.910      8.913
REMARK  Name = 12309901
REMARK  4 active torsions:
REMARK  status: ('A' for Active; 'I' for Inactive)
REMARK    1  A    between atoms: O_2  and  C_16
REMARK    2  A    between atoms: O_2  and  C_18
REMARK    3  A    between atoms: C_15  and  C_17
REMARK    4  A    between atoms: C_19  and  C_27
REMARK                            x       y       z     vdW  Elec       q    Type
REMARK                         _______ _______ _______ _____ _____    ______ ____
ROOT
ATOM      1  O   UNL     1     112.753 127.288 137.149  0.00  0.00    +0.000 OA
ATOM      2  O   UNL     1     111.709 128.230 138.061  0.00  0.00    +0.000 OA
ATOM      3  O   UNL     1     114.381 128.340 135.610  0.00  0.00    +0.000 OA
ATOM      4  C   UNL     1     112.277 129.446 137.485  0.00  0.00    +0.000 A 
ATOM      5  C   UNL     1     113.264 126.817 136.704  0.00  0.00    +0.000 C 
ATOM      6  C   UNL     1     112.785 128.110 137.082  0.00  0.00    +0.000 A 
ATOM      7  C   UNL     1     113.806 127.168 136.191  0.00  0.00    +0.000 C 
ATOM      8  C   UNL     1     113.327 128.461 136.569  0.00  0.00    +0.000 A 
ATOM      9  C   UNL     1     112.248 128.589 137.551  0.00  0.00    +0.000 A 
ATOM     10  C   UNL     1     113.838 127.990 136.123  0.00  0.00    +0.000 C 
ATOM     11  C   UNL     1     112.842 129.811 136.950  0.00  0.00    +0.000 A 
ATOM     12  C   UNL     1     113.370 129.315 136.489  0.00  0.00    +0.000 A 
ENDROOT
BRANCH   5  15
ATOM     13  O   UNL     1     111.933 124.341 136.186  0.00  0.00    +0.000 OA
ATOM     14  O   UNL     1     113.135 123.531 136.973  0.00  0.00    +0.000 OA
ATOM     15  C   UNL     1     113.232 125.996 136.771  0.00  0.00    +0.000 A 
ATOM     16  C   UNL     1     112.598 125.580 136.445  0.00  0.00    +0.000 A 
ATOM     17  C   UNL     1     113.833 125.590 137.165  0.00  0.00    +0.000 A 
ATOM     18  C   UNL     1     112.566 124.758 136.512  0.00  0.00    +0.000 A 
ATOM     19  C   UNL     1     113.800 124.769 137.232  0.00  0.00    +0.000 A 
ATOM     20  C   UNL     1     113.167 124.353 136.906  0.00  0.00    +0.000 A 
ENDBRANCH   5  15
BRANCH   4  21
ATOM     21  O   UNL     1     111.765 129.914 137.932  0.00  0.00    +0.000 OA
BRANCH  21  30
ATOM     22  O   UNL     1     110.882 130.327 136.886  0.00  0.00    +0.000 OA
ATOM     23  O   UNL     1     110.847 132.618 137.821  0.00  0.00    +0.000 OA
ATOM     24  O   UNL     1     109.977 132.267 136.465  0.00  0.00    +0.000 OA
ATOM     25  O   UNL     1     111.741 131.442 138.555  0.00  0.00    +0.000 OA
ATOM     26  C   UNL     1     110.858 131.854 137.509  0.00  0.00    +0.000 C 
ATOM     27  C   UNL     1     110.423 131.678 136.831  0.00  0.00    +0.000 C 
ATOM     28  C   UNL     1     111.306 131.266 137.876  0.00  0.00    +0.000 C 
ATOM     29  C   UNL     1     110.435 130.914 136.520  0.00  0.00    +0.000 C 
ATOM     30  C   UNL     1     111.318 130.502 137.565  0.00  0.00    +0.000 C 
BRANCH  29  32
ATOM     31  O   UNL     1     109.541 130.054 135.811  0.00  0.00    +0.000 OA
ATOM     32  C   UNL     1     110.000 130.739 135.842  0.00  0.00    +0.000 C 
ENDBRANCH  29  32
ENDBRANCH  21  30
ENDBRANCH   4  21
TORSDOF 4
ENDMDL
