MODEL 1
REMARK VINA RESULT:      -9.6      0.000      0.000
REMARK  Name = 44257110
REMARK  5 active torsions:
REMARK  status: ('A' for Active; 'I' for Inactive)
REMARK    1  A    between atoms: O_2  and  C_16
REMARK    2  A    between atoms: O_2  and  C_23
REMARK    3  A    between atoms: O_10  and  C_30
REMARK    4  A    between atoms: C_15  and  C_17
REMARK    5  A    between atoms: C_19  and  C_25
REMARK                            x       y       z     vdW  Elec       q    Type
REMARK                         _______ _______ _______ _____ _____    ______ ____
ROOT
ATOM      1  O   UNL     1     112.127 126.430 136.040  0.00  0.00    +0.000 OA
ATOM      2  O   UNL     1     111.802 124.316 136.474  0.00  0.00    +0.000 OA
ATOM      3  O   UNL     1     109.590 125.611 134.926  0.00  0.00    +0.000 OA
ATOM      4  C   UNL     1     111.681 125.081 136.190  0.00  0.00    +0.000 C 
ATOM      5  C   UNL     1     112.248 125.665 136.324  0.00  0.00    +0.000 C 
ATOM      6  C   UNL     1     110.993 125.262 135.772  0.00  0.00    +0.000 C 
ATOM      7  C   UNL     1     110.872 126.027 135.488  0.00  0.00    +0.000 A 
ATOM      8  C   UNL     1     111.439 126.611 135.622  0.00  0.00    +0.000 A 
ATOM      9  C   UNL     1     110.609 127.606 134.895  0.00  0.00    +0.000 A 
ATOM     10  C   UNL     1     111.324 127.411 135.331  0.00  0.00    +0.000 A 
ATOM     11  C   UNL     1     110.151 126.202 135.055  0.00  0.00    +0.000 A 
ATOM     12  C   UNL     1     110.019 126.997 134.756  0.00  0.00    +0.000 A 
ENDROOT
BRANCH   5  14
ATOM     13  O   UNL     1     115.000 124.942 137.996  0.00  0.00    +0.000 OA
ATOM     14  C   UNL     1     112.936 125.484 136.742  0.00  0.00    +0.000 A 
ATOM     15  C   UNL     1     113.024 125.740 137.522  0.00  0.00    +0.000 A 
ATOM     16  C   UNL     1     113.536 125.048 136.380  0.00  0.00    +0.000 A 
ATOM     17  C   UNL     1     113.712 125.559 137.940  0.00  0.00    +0.000 A 
ATOM     18  C   UNL     1     114.223 124.868 136.798  0.00  0.00    +0.000 A 
ATOM     19  C   UNL     1     114.312 125.123 137.578  0.00  0.00    +0.000 A 
BRANCH  17  20
ATOM     20  O   UNL     1     113.800 125.814 138.719  0.00  0.00    +0.000 OA
ATOM     21  C   UNL     1     113.451 126.520 138.964  0.00  0.00    +0.000 C 
ENDBRANCH  17  20
ENDBRANCH   5  14
BRANCH   9  22
ATOM     22  O   UNL     1     110.491 128.372 134.612  0.00  0.00    +0.000 OA
BRANCH  22  31
ATOM     23  O   UNL     1     109.521 128.899 135.520  0.00  0.00    +0.000 OA
ATOM     24  O   UNL     1     110.943 130.893 135.880  0.00  0.00    +0.000 OA
ATOM     25  O   UNL     1     109.500 130.755 136.668  0.00  0.00    +0.000 OA
ATOM     26  O   UNL     1     111.438 129.701 134.852  0.00  0.00    +0.000 OA
ATOM     27  C   UNL     1     110.469 130.228 135.760  0.00  0.00    +0.000 C 
ATOM     28  C   UNL     1     109.747 130.159 136.154  0.00  0.00    +0.000 C 
ATOM     29  C   UNL     1     110.717 129.632 135.246  0.00  0.00    +0.000 C 
ATOM     30  C   UNL     1     109.274 129.494 136.034  0.00  0.00    +0.000 C 
ATOM     31  C   UNL     1     110.243 128.967 135.126  0.00  0.00    +0.000 C 
BRANCH  30  33
ATOM     32  O   UNL     1     107.849 129.395 135.999  0.00  0.00    +0.000 OA
ATOM     33  C   UNL     1     108.553 129.425 136.428  0.00  0.00    +0.000 C 
ENDBRANCH  30  33
ENDBRANCH  22  31
ENDBRANCH   9  22
TORSDOF 5
ENDMDL
MODEL 2
REMARK VINA RESULT:      -9.2      1.912      3.545
REMARK  Name = 44257110
REMARK  5 active torsions:
REMARK  status: ('A' for Active; 'I' for Inactive)
REMARK    1  A    between atoms: O_2  and  C_16
REMARK    2  A    between atoms: O_2  and  C_23
REMARK    3  A    between atoms: O_10  and  C_30
REMARK    4  A    between atoms: C_15  and  C_17
REMARK    5  A    between atoms: C_19  and  C_25
REMARK                            x       y       z     vdW  Elec       q    Type
REMARK                         _______ _______ _______ _____ _____    ______ ____
ROOT
ATOM      1  O   UNL     1     110.162 128.222 135.947  0.00  0.00    +0.000 OA
ATOM      2  O   UNL     1     108.419 126.923 135.749  0.00  0.00    +0.000 OA
ATOM      3  O   UNL     1     107.774 129.845 135.865  0.00  0.00    +0.000 OA
ATOM      4  C   UNL     1     108.880 127.603 135.820  0.00  0.00    +0.000 C 
ATOM      5  C   UNL     1     109.701 127.541 135.876  0.00  0.00    +0.000 C 
ATOM      6  C   UNL     1     108.521 128.346 135.835  0.00  0.00    +0.000 C 
ATOM      7  C   UNL     1     108.982 129.026 135.907  0.00  0.00    +0.000 A 
ATOM      8  C   UNL     1     109.803 128.964 135.962  0.00  0.00    +0.000 A 
ATOM      9  C   UNL     1     109.925 130.442 136.054  0.00  0.00    +0.000 A 
ATOM     10  C   UNL     1     110.294 129.665 136.037  0.00  0.00    +0.000 A 
ATOM     11  C   UNL     1     108.596 129.793 135.921  0.00  0.00    +0.000 A 
ATOM     12  C   UNL     1     109.070 130.505 135.995  0.00  0.00    +0.000 A 
ENDROOT
BRANCH   5  14
ATOM     13  O   UNL     1     111.139 124.572 135.815  0.00  0.00    +0.000 OA
ATOM     14  C   UNL     1     110.061 126.799 135.860  0.00  0.00    +0.000 A 
ATOM     15  C   UNL     1     110.263 126.425 136.568  0.00  0.00    +0.000 A 
ATOM     16  C   UNL     1     110.217 126.431 135.139  0.00  0.00    +0.000 A 
ATOM     17  C   UNL     1     110.623 125.682 136.552  0.00  0.00    +0.000 A 
ATOM     18  C   UNL     1     110.577 125.689 135.124  0.00  0.00    +0.000 A 
ATOM     19  C   UNL     1     110.780 125.314 135.830  0.00  0.00    +0.000 A 
BRANCH  17  20
ATOM     20  O   UNL     1     110.826 125.307 137.259  0.00  0.00    +0.000 OA
ATOM     21  C   UNL     1     110.888 125.745 137.955  0.00  0.00    +0.000 C 
ENDBRANCH  17  20
ENDBRANCH   5  14
BRANCH   9  22
ATOM     22  O   UNL     1     110.388 131.120 136.125  0.00  0.00    +0.000 OA
BRANCH  22  31
ATOM     23  O   UNL     1     110.462 131.181 137.551  0.00  0.00    +0.000 OA
ATOM     24  O   UNL     1     110.143 133.634 137.463  0.00  0.00    +0.000 OA
ATOM     25  O   UNL     1     110.322 132.877 138.917  0.00  0.00    +0.000 OA
ATOM     26  O   UNL     1     110.176 132.756 136.066  0.00  0.00    +0.000 OA
ATOM     27  C   UNL     1     110.249 132.817 137.492  0.00  0.00    +0.000 C 
ATOM     28  C   UNL     1     110.339 132.438 138.219  0.00  0.00    +0.000 C 
ATOM     29  C   UNL     1     110.266 132.377 136.793  0.00  0.00    +0.000 C 
ATOM     30  C   UNL     1     110.445 131.620 138.249  0.00  0.00    +0.000 C 
ATOM     31  C   UNL     1     110.372 131.559 136.823  0.00  0.00    +0.000 C 
BRANCH  30  33
ATOM     32  O   UNL     1     111.244 130.863 139.160  0.00  0.00    +0.000 OA
ATOM     33  C   UNL     1     110.535 131.242 138.976  0.00  0.00    +0.000 C 
ENDBRANCH  30  33
ENDBRANCH  22  31
ENDBRANCH   9  22
TORSDOF 5
ENDMDL
MODEL 3
REMARK VINA RESULT:      -9.1      1.578      2.581
REMARK  Name = 44257110
REMARK  5 active torsions:
REMARK  status: ('A' for Active; 'I' for Inactive)
REMARK    1  A    between atoms: O_2  and  C_16
REMARK    2  A    between atoms: O_2  and  C_23
REMARK    3  A    between atoms: O_10  and  C_30
REMARK    4  A    between atoms: C_15  and  C_17
REMARK    5  A    between atoms: C_19  and  C_25
REMARK                            x       y       z     vdW  Elec       q    Type
REMARK                         _______ _______ _______ _____ _____    ______ ____
ROOT
ATOM      1  O   UNL     1     112.515 127.291 137.137  0.00  0.00    +0.000 OA
ATOM      2  O   UNL     1     114.343 127.157 135.953  0.00  0.00    +0.000 OA
ATOM      3  O   UNL     1     112.962 129.809 135.794  0.00  0.00    +0.000 OA
ATOM      4  C   UNL     1     113.655 127.460 136.294  0.00  0.00    +0.000 C 
ATOM      5  C   UNL     1     113.202 126.988 136.796  0.00  0.00    +0.000 C 
ATOM      6  C   UNL     1     113.422 128.234 136.133  0.00  0.00    +0.000 C 
ATOM      7  C   UNL     1     112.734 128.537 136.474  0.00  0.00    +0.000 A 
ATOM      8  C   UNL     1     112.281 128.066 136.976  0.00  0.00    +0.000 A 
ATOM      9  C   UNL     1     111.314 129.176 137.173  0.00  0.00    +0.000 A 
ATOM     10  C   UNL     1     111.563 128.370 137.337  0.00  0.00    +0.000 A 
ATOM     11  C   UNL     1     112.502 129.345 136.298  0.00  0.00    +0.000 A 
ATOM     12  C   UNL     1     111.787 129.667 136.650  0.00  0.00    +0.000 A 
ENDROOT
BRANCH   5  14
ATOM     13  O   UNL     1     114.136 123.889 137.440  0.00  0.00    +0.000 OA
ATOM     14  C   UNL     1     113.436 126.213 136.957  0.00  0.00    +0.000 A 
ATOM     15  C   UNL     1     113.056 125.582 136.584  0.00  0.00    +0.000 A 
ATOM     16  C   UNL     1     114.048 126.070 137.491  0.00  0.00    +0.000 A 
ATOM     17  C   UNL     1     113.290 124.808 136.746  0.00  0.00    +0.000 A 
ATOM     18  C   UNL     1     114.282 125.295 137.651  0.00  0.00    +0.000 A 
ATOM     19  C   UNL     1     113.903 124.664 137.279  0.00  0.00    +0.000 A 
BRANCH  17  20
ATOM     20  O   UNL     1     112.911 124.176 136.373  0.00  0.00    +0.000 OA
ATOM     21  C   UNL     1     112.088 124.117 136.397  0.00  0.00    +0.000 C 
ENDBRANCH  17  20
ENDBRANCH   5  14
BRANCH   9  22
ATOM     22  O   UNL     1     110.626 129.476 137.516  0.00  0.00    +0.000 OA
BRANCH  22  31
ATOM     23  O   UNL     1     109.663 128.903 136.630  0.00  0.00    +0.000 OA
ATOM     24  O   UNL     1     108.424 131.045 136.589  0.00  0.00    +0.000 OA
ATOM     25  O   UNL     1     107.875 129.757 135.717  0.00  0.00    +0.000 OA
ATOM     26  O   UNL     1     109.800 130.904 137.489  0.00  0.00    +0.000 OA
ATOM     27  C   UNL     1     108.837 130.331 136.603  0.00  0.00    +0.000 C 
ATOM     28  C   UNL     1     108.563 129.686 136.167  0.00  0.00    +0.000 C 
ATOM     29  C   UNL     1     109.526 130.260 137.053  0.00  0.00    +0.000 C 
ATOM     30  C   UNL     1     108.976 128.972 136.180  0.00  0.00    +0.000 C 
ATOM     31  C   UNL     1     109.939 129.546 137.066  0.00  0.00    +0.000 C 
BRANCH  30  33
ATOM     32  O   UNL     1     108.509 127.623 136.125  0.00  0.00    +0.000 OA
ATOM     33  C   UNL     1     108.701 128.329 135.744  0.00  0.00    +0.000 C 
ENDBRANCH  30  33
ENDBRANCH  22  31
ENDBRANCH   9  22
TORSDOF 5
ENDMDL
MODEL 4
REMARK VINA RESULT:      -9.1      3.114      5.768
REMARK  Name = 44257110
REMARK  5 active torsions:
REMARK  status: ('A' for Active; 'I' for Inactive)
REMARK    1  A    between atoms: O_2  and  C_16
REMARK    2  A    between atoms: O_2  and  C_23
REMARK    3  A    between atoms: O_10  and  C_30
REMARK    4  A    between atoms: C_15  and  C_17
REMARK    5  A    between atoms: C_19  and  C_25
REMARK                            x       y       z     vdW  Elec       q    Type
REMARK                         _______ _______ _______ _____ _____    ______ ____
ROOT
ATOM      1  O   UNL     1     113.217 128.804 139.461  0.00  0.00    +0.000 OA
ATOM      2  O   UNL     1     113.115 130.792 138.567  0.00  0.00    +0.000 OA
ATOM      3  O   UNL     1     111.639 128.678 137.045  0.00  0.00    +0.000 OA
ATOM      4  C   UNL     1     113.000 129.984 138.686  0.00  0.00    +0.000 C 
ATOM      5  C   UNL     1     113.332 129.612 139.343  0.00  0.00    +0.000 C 
ATOM      6  C   UNL     1     112.551 129.548 138.148  0.00  0.00    +0.000 C 
ATOM      7  C   UNL     1     112.436 128.740 138.266  0.00  0.00    +0.000 A 
ATOM      8  C   UNL     1     112.769 128.368 138.923  0.00  0.00    +0.000 A 
ATOM      9  C   UNL     1     112.190 127.067 138.500  0.00  0.00    +0.000 A 
ATOM     10  C   UNL     1     112.656 127.527 139.057  0.00  0.00    +0.000 A 
ATOM     11  C   UNL     1     111.968 128.297 137.699  0.00  0.00    +0.000 A 
ATOM     12  C   UNL     1     111.844 127.455 137.816  0.00  0.00    +0.000 A 
ENDROOT
BRANCH   5  14
ATOM     13  O   UNL     1     115.124 131.356 141.496  0.00  0.00    +0.000 OA
ATOM     14  C   UNL     1     113.780 130.048 139.881  0.00  0.00    +0.000 A 
ATOM     15  C   UNL     1     113.438 130.311 140.585  0.00  0.00    +0.000 A 
ATOM     16  C   UNL     1     114.570 130.221 139.716  0.00  0.00    +0.000 A 
ATOM     17  C   UNL     1     113.886 130.747 141.123  0.00  0.00    +0.000 A 
ATOM     18  C   UNL     1     115.017 130.657 140.254  0.00  0.00    +0.000 A 
ATOM     19  C   UNL     1     114.676 130.920 140.958  0.00  0.00    +0.000 A 
BRANCH  17  20
ATOM     20  O   UNL     1     113.545 131.011 141.826  0.00  0.00    +0.000 OA
ATOM     21  C   UNL     1     112.824 130.697 142.078  0.00  0.00    +0.000 C 
ENDBRANCH  17  20
ENDBRANCH   5  14
BRANCH   9  22
ATOM     22  O   UNL     1     112.076 126.259 138.621  0.00  0.00    +0.000 OA
BRANCH  22  31
ATOM     23  O   UNL     1     113.243 125.751 137.971  0.00  0.00    +0.000 OA
ATOM     24  O   UNL     1     111.877 123.993 136.890  0.00  0.00    +0.000 OA
ATOM     25  O   UNL     1     113.499 124.072 136.602  0.00  0.00    +0.000 OA
ATOM     26  O   UNL     1     111.165 125.086 137.900  0.00  0.00    +0.000 OA
ATOM     27  C   UNL     1     112.333 124.579 137.251  0.00  0.00    +0.000 C 
ATOM     28  C   UNL     1     113.144 124.619 137.106  0.00  0.00    +0.000 C 
ATOM     29  C   UNL     1     111.977 125.126 137.756  0.00  0.00    +0.000 C 
ATOM     30  C   UNL     1     113.599 125.205 137.467  0.00  0.00    +0.000 C 
ATOM     31  C   UNL     1     112.432 125.712 138.116  0.00  0.00    +0.000 C 
BRANCH  30  33
ATOM     32  O   UNL     1     114.943 125.246 137.952  0.00  0.00    +0.000 OA
ATOM     33  C   UNL     1     114.410 125.244 137.322  0.00  0.00    +0.000 C 
ENDBRANCH  30  33
ENDBRANCH  22  31
ENDBRANCH   9  22
TORSDOF 5
ENDMDL
MODEL 5
REMARK VINA RESULT:      -9.1      1.491      2.436
REMARK  Name = 44257110
REMARK  5 active torsions:
REMARK  status: ('A' for Active; 'I' for Inactive)
REMARK    1  A    between atoms: O_2  and  C_16
REMARK    2  A    between atoms: O_2  and  C_23
REMARK    3  A    between atoms: O_10  and  C_30
REMARK    4  A    between atoms: C_15  and  C_17
REMARK    5  A    between atoms: C_19  and  C_25
REMARK                            x       y       z     vdW  Elec       q    Type
REMARK                         _______ _______ _______ _____ _____    ______ ____
ROOT
ATOM      1  O   UNL     1     111.588 127.130 136.115  0.00  0.00    +0.000 OA
ATOM      2  O   UNL     1     113.594 126.511 136.713  0.00  0.00    +0.000 OA
ATOM      3  O   UNL     1     113.430 129.309 135.661  0.00  0.00    +0.000 OA
ATOM      4  C   UNL     1     112.973 126.974 136.429  0.00  0.00    +0.000 C 
ATOM      5  C   UNL     1     112.209 126.667 136.400  0.00  0.00    +0.000 C 
ATOM      6  C   UNL     1     113.118 127.746 136.174  0.00  0.00    +0.000 C 
ATOM      7  C   UNL     1     112.498 128.209 135.890  0.00  0.00    +0.000 A 
ATOM      8  C   UNL     1     111.733 127.902 135.860  0.00  0.00    +0.000 A 
ATOM      9  C   UNL     1     111.223 129.179 135.299  0.00  0.00    +0.000 A 
ATOM     10  C   UNL     1     111.079 128.375 135.566  0.00  0.00    +0.000 A 
ATOM     11  C   UNL     1     112.662 129.011 135.628  0.00  0.00    +0.000 A 
ATOM     12  C   UNL     1     112.020 129.499 135.330  0.00  0.00    +0.000 A 
ENDROOT
BRANCH   5  14
ATOM     13  O   UNL     1     111.630 123.582 137.420  0.00  0.00    +0.000 OA
ATOM     14  C   UNL     1     112.064 125.895 136.654  0.00  0.00    +0.000 A 
ATOM     15  C   UNL     1     111.739 125.763 137.402  0.00  0.00    +0.000 A 
ATOM     16  C   UNL     1     112.244 125.258 136.163  0.00  0.00    +0.000 A 
ATOM     17  C   UNL     1     111.595 124.991 137.657  0.00  0.00    +0.000 A 
ATOM     18  C   UNL     1     112.099 124.487 136.418  0.00  0.00    +0.000 A 
ATOM     19  C   UNL     1     111.774 124.354 137.165  0.00  0.00    +0.000 A 
BRANCH  17  20
ATOM     20  O   UNL     1     111.270 124.858 138.403  0.00  0.00    +0.000 OA
ATOM     21  C   UNL     1     110.835 125.451 138.776  0.00  0.00    +0.000 C 
ENDBRANCH  17  20
ENDBRANCH   5  14
BRANCH   9  22
ATOM     22  O   UNL     1     110.601 129.641 135.015  0.00  0.00    +0.000 OA
BRANCH  22  31
ATOM     23  O   UNL     1     110.283 130.344 136.218  0.00  0.00    +0.000 OA
ATOM     24  O   UNL     1     107.870 130.052 135.751  0.00  0.00    +0.000 OA
ATOM     25  O   UNL     1     108.357 130.852 137.109  0.00  0.00    +0.000 OA
ATOM     26  O   UNL     1     108.992 129.447 134.704  0.00  0.00    +0.000 OA
ATOM     27  C   UNL     1     108.674 130.149 135.907  0.00  0.00    +0.000 C 
ATOM     28  C   UNL     1     108.918 130.549 136.586  0.00  0.00    +0.000 C 
ATOM     29  C   UNL     1     109.236 129.846 135.383  0.00  0.00    +0.000 C 
ATOM     30  C   UNL     1     109.723 130.646 136.742  0.00  0.00    +0.000 C 
ATOM     31  C   UNL     1     110.040 129.943 135.539  0.00  0.00    +0.000 C 
BRANCH  30  33
ATOM     32  O   UNL     1     110.513 131.660 137.365  0.00  0.00    +0.000 OA
ATOM     33  C   UNL     1     109.965 131.046 137.420  0.00  0.00    +0.000 C 
ENDBRANCH  30  33
ENDBRANCH  22  31
ENDBRANCH   9  22
TORSDOF 5
ENDMDL
MODEL 6
REMARK VINA RESULT:      -9.0      1.890      2.836
REMARK  Name = 44257110
REMARK  5 active torsions:
REMARK  status: ('A' for Active; 'I' for Inactive)
REMARK    1  A    between atoms: O_2  and  C_16
REMARK    2  A    between atoms: O_2  and  C_23
REMARK    3  A    between atoms: O_10  and  C_30
REMARK    4  A    between atoms: C_15  and  C_17
REMARK    5  A    between atoms: C_19  and  C_25
REMARK                            x       y       z     vdW  Elec       q    Type
REMARK                         _______ _______ _______ _____ _____    ______ ____
ROOT
ATOM      1  O   UNL     1     111.765 127.011 135.995  0.00  0.00    +0.000 OA
ATOM      2  O   UNL     1     109.856 126.011 135.645  0.00  0.00    +0.000 OA
ATOM      3  O   UNL     1     109.986 128.819 134.612  0.00  0.00    +0.000 OA
ATOM      4  C   UNL     1     110.444 126.590 135.648  0.00  0.00    +0.000 C 
ATOM      5  C   UNL     1     111.177 126.432 135.992  0.00  0.00    +0.000 C 
ATOM      6  C   UNL     1     110.299 127.327 135.308  0.00  0.00    +0.000 C 
ATOM      7  C   UNL     1     110.886 127.906 135.311  0.00  0.00    +0.000 A 
ATOM      8  C   UNL     1     111.619 127.748 135.654  0.00  0.00    +0.000 A 
ATOM      9  C   UNL     1     112.094 129.113 135.311  0.00  0.00    +0.000 A 
ATOM     10  C   UNL     1     112.239 128.343 135.664  0.00  0.00    +0.000 A 
ATOM     11  C   UNL     1     110.722 128.670 134.953  0.00  0.00    +0.000 A 
ATOM     12  C   UNL     1     111.330 129.277 134.953  0.00  0.00    +0.000 A 
ENDROOT
BRANCH   5  14
ATOM     13  O   UNL     1     111.759 123.483 137.354  0.00  0.00    +0.000 OA
ATOM     14  C   UNL     1     111.323 125.694 136.332  0.00  0.00    +0.000 A 
ATOM     15  C   UNL     1     111.236 125.592 137.147  0.00  0.00    +0.000 A 
ATOM     16  C   UNL     1     111.555 125.060 135.858  0.00  0.00    +0.000 A 
ATOM     17  C   UNL     1     111.382 124.855 137.487  0.00  0.00    +0.000 A 
ATOM     18  C   UNL     1     111.700 124.323 136.199  0.00  0.00    +0.000 A 
ATOM     19  C   UNL     1     111.613 124.220 137.013  0.00  0.00    +0.000 A 
BRANCH  17  20
ATOM     20  O   UNL     1     111.295 124.752 138.301  0.00  0.00    +0.000 OA
ATOM     21  C   UNL     1     111.235 125.409 138.796  0.00  0.00    +0.000 C 
ENDBRANCH  17  20
ENDBRANCH   5  14
BRANCH   9  22
ATOM     22  O   UNL     1     112.683 129.690 135.315  0.00  0.00    +0.000 OA
BRANCH  22  31
ATOM     23  O   UNL     1     112.261 130.419 136.470  0.00  0.00    +0.000 OA
ATOM     24  O   UNL     1     114.617 130.625 137.201  0.00  0.00    +0.000 OA
ATOM     25  O   UNL     1     113.410 131.284 138.111  0.00  0.00    +0.000 OA
ATOM     26  O   UNL     1     114.254 129.827 135.802  0.00  0.00    +0.000 OA
ATOM     27  C   UNL     1     113.832 130.556 136.957  0.00  0.00    +0.000 C 
ATOM     28  C   UNL     1     113.228 130.886 137.412  0.00  0.00    +0.000 C 
ATOM     29  C   UNL     1     113.650 130.157 136.257  0.00  0.00    +0.000 C 
ATOM     30  C   UNL     1     112.443 130.817 137.168  0.00  0.00    +0.000 C 
ATOM     31  C   UNL     1     112.865 130.089 136.014  0.00  0.00    +0.000 C 
BRANCH  30  33
ATOM     32  O   UNL     1     111.312 131.684 137.284  0.00  0.00    +0.000 OA
ATOM     33  C   UNL     1     111.840 131.147 137.623  0.00  0.00    +0.000 C 
ENDBRANCH  30  33
ENDBRANCH  22  31
ENDBRANCH   9  22
TORSDOF 5
ENDMDL
MODEL 7
REMARK VINA RESULT:      -8.9      1.795      5.517
REMARK  Name = 44257110
REMARK  5 active torsions:
REMARK  status: ('A' for Active; 'I' for Inactive)
REMARK    1  A    between atoms: O_2  and  C_16
REMARK    2  A    between atoms: O_2  and  C_23
REMARK    3  A    between atoms: O_10  and  C_30
REMARK    4  A    between atoms: C_15  and  C_17
REMARK    5  A    between atoms: C_19  and  C_25
REMARK                            x       y       z     vdW  Elec       q    Type
REMARK                         _______ _______ _______ _____ _____    ______ ____
ROOT
ATOM      1  O   UNL     1     110.070 130.102 136.635  0.00  0.00    +0.000 OA
ATOM      2  O   UNL     1     108.125 131.069 136.855  0.00  0.00    +0.000 OA
ATOM      3  O   UNL     1     108.014 128.341 135.625  0.00  0.00    +0.000 OA
ATOM      4  C   UNL     1     108.700 130.508 136.667  0.00  0.00    +0.000 C 
ATOM      5  C   UNL     1     109.495 130.663 136.823  0.00  0.00    +0.000 C 
ATOM      6  C   UNL     1     108.479 129.791 136.323  0.00  0.00    +0.000 C 
ATOM      7  C   UNL     1     109.054 129.230 136.135  0.00  0.00    +0.000 A 
ATOM      8  C   UNL     1     109.849 129.385 136.291  0.00  0.00    +0.000 A 
ATOM      9  C   UNL     1     110.233 128.060 135.741  0.00  0.00    +0.000 A 
ATOM     10  C   UNL     1     110.457 128.809 136.100  0.00  0.00    +0.000 A 
ATOM     11  C   UNL     1     108.812 128.487 135.777  0.00  0.00    +0.000 A 
ATOM     12  C   UNL     1     109.405 127.899 135.579  0.00  0.00    +0.000 A 
ENDROOT
BRANCH   5  14
ATOM     13  O   UNL     1     110.376 133.530 138.200  0.00  0.00    +0.000 OA
ATOM     14  C   UNL     1     109.715 131.380 137.167  0.00  0.00    +0.000 A 
ATOM     15  C   UNL     1     109.812 131.432 137.986  0.00  0.00    +0.000 A 
ATOM     16  C   UNL     1     109.839 132.044 136.694  0.00  0.00    +0.000 A 
ATOM     17  C   UNL     1     110.032 132.149 138.330  0.00  0.00    +0.000 A 
ATOM     18  C   UNL     1     110.060 132.760 137.039  0.00  0.00    +0.000 A 
ATOM     19  C   UNL     1     110.156 132.813 137.856  0.00  0.00    +0.000 A 
BRANCH  17  20
ATOM     20  O   UNL     1     110.128 132.201 139.147  0.00  0.00    +0.000 OA
ATOM     21  C   UNL     1     110.168 131.515 139.603  0.00  0.00    +0.000 C 
ENDBRANCH  17  20
ENDBRANCH   5  14
BRANCH   9  22
ATOM     22  O   UNL     1     110.810 127.500 135.554  0.00  0.00    +0.000 OA
BRANCH  22  31
ATOM     23  O   UNL     1     110.951 126.895 136.841  0.00  0.00    +0.000 OA
ATOM     24  O   UNL     1     111.045 124.661 135.780  0.00  0.00    +0.000 OA
ATOM     25  O   UNL     1     111.155 124.801 137.419  0.00  0.00    +0.000 OA
ATOM     26  O   UNL     1     110.873 126.011 134.847  0.00  0.00    +0.000 OA
ATOM     27  C   UNL     1     111.014 125.406 136.133  0.00  0.00    +0.000 C 
ATOM     28  C   UNL     1     111.069 125.476 136.953  0.00  0.00    +0.000 C 
ATOM     29  C   UNL     1     110.928 126.081 135.667  0.00  0.00    +0.000 C 
ATOM     30  C   UNL     1     111.037 126.220 137.307  0.00  0.00    +0.000 C 
ATOM     31  C   UNL     1     110.896 126.826 136.021  0.00  0.00    +0.000 C 
BRANCH  30  33
ATOM     32  O   UNL     1     111.650 126.797 138.462  0.00  0.00    +0.000 OA
ATOM     33  C   UNL     1     111.092 126.290 138.127  0.00  0.00    +0.000 C 
ENDBRANCH  30  33
ENDBRANCH  22  31
ENDBRANCH   9  22
TORSDOF 5
ENDMDL
MODEL 8
REMARK VINA RESULT:      -8.8     11.433     12.985
REMARK  Name = 44257110
REMARK  5 active torsions:
REMARK  status: ('A' for Active; 'I' for Inactive)
REMARK    1  A    between atoms: O_2  and  C_16
REMARK    2  A    between atoms: O_2  and  C_23
REMARK    3  A    between atoms: O_10  and  C_30
REMARK    4  A    between atoms: C_15  and  C_17
REMARK    5  A    between atoms: C_19  and  C_25
REMARK                            x       y       z     vdW  Elec       q    Type
REMARK                         _______ _______ _______ _____ _____    ______ ____
ROOT
ATOM      1  O   UNL     1     105.676 126.421 146.766  0.00  0.00    +0.000 OA
ATOM      2  O   UNL     1     107.855 126.483 146.889  0.00  0.00    +0.000 OA
ATOM      3  O   UNL     1     106.607 124.134 148.265  0.00  0.00    +0.000 OA
ATOM      4  C   UNL     1     107.075 126.232 146.988  0.00  0.00    +0.000 C 
ATOM      5  C   UNL     1     106.456 126.672 146.667  0.00  0.00    +0.000 C 
ATOM      6  C   UNL     1     106.914 125.540 147.409  0.00  0.00    +0.000 C 
ATOM      7  C   UNL     1     106.135 125.289 147.508  0.00  0.00    +0.000 A 
ATOM      8  C   UNL     1     105.516 125.730 147.186  0.00  0.00    +0.000 A 
ATOM      9  C   UNL     1     104.526 124.759 147.719  0.00  0.00    +0.000 A 
ATOM     10  C   UNL     1     104.700 125.479 147.282  0.00  0.00    +0.000 A 
ATOM     11  C   UNL     1     105.981 124.568 147.947  0.00  0.00    +0.000 A 
ATOM     12  C   UNL     1     105.171 124.301 148.054  0.00  0.00    +0.000 A 
ENDROOT
BRANCH   5  14
ATOM     13  O   UNL     1     107.099 129.438 144.985  0.00  0.00    +0.000 OA
ATOM     14  C   UNL     1     106.617 127.364 146.247  0.00  0.00    +0.000 A 
ATOM     15  C   UNL     1     106.672 127.342 145.423  0.00  0.00    +0.000 A 
ATOM     16  C   UNL     1     106.722 128.076 146.649  0.00  0.00    +0.000 A 
ATOM     17  C   UNL     1     106.833 128.034 145.003  0.00  0.00    +0.000 A 
ATOM     18  C   UNL     1     106.882 128.767 146.229  0.00  0.00    +0.000 A 
ATOM     19  C   UNL     1     106.938 128.746 145.406  0.00  0.00    +0.000 A 
BRANCH  17  20
ATOM     20  O   UNL     1     106.888 128.013 144.180  0.00  0.00    +0.000 OA
ATOM     21  C   UNL     1     106.346 127.573 143.741  0.00  0.00    +0.000 C 
ENDBRANCH  17  20
ENDBRANCH   5  14
BRANCH   9  22
ATOM     22  O   UNL     1     103.745 124.511 147.817  0.00  0.00    +0.000 OA
BRANCH  22  31
ATOM     23  O   UNL     1     103.713 123.625 146.696  0.00  0.00    +0.000 OA
ATOM     24  O   UNL     1     101.363 124.264 146.258  0.00  0.00    +0.000 OA
ATOM     25  O   UNL     1     102.114 123.166 145.284  0.00  0.00    +0.000 OA
ATOM     26  O   UNL     1     102.178 124.937 147.525  0.00  0.00    +0.000 OA
ATOM     27  C   UNL     1     102.146 124.051 146.404  0.00  0.00    +0.000 C 
ATOM     28  C   UNL     1     102.522 123.502 145.917  0.00  0.00    +0.000 C 
ATOM     29  C   UNL     1     102.554 124.387 147.038  0.00  0.00    +0.000 C 
ATOM     30  C   UNL     1     103.306 123.289 146.063  0.00  0.00    +0.000 C 
ATOM     31  C   UNL     1     103.338 124.174 147.184  0.00  0.00    +0.000 C 
BRANCH  30  33
ATOM     32  O   UNL     1     104.409 122.922 145.232  0.00  0.00    +0.000 OA
ATOM     33  C   UNL     1     103.681 122.739 145.576  0.00  0.00    +0.000 C 
ENDBRANCH  30  33
ENDBRANCH  22  31
ENDBRANCH   9  22
TORSDOF 5
ENDMDL
MODEL 9
REMARK VINA RESULT:      -8.8      2.400      3.370
REMARK  Name = 44257110
REMARK  5 active torsions:
REMARK  status: ('A' for Active; 'I' for Inactive)
REMARK    1  A    between atoms: O_2  and  C_16
REMARK    2  A    between atoms: O_2  and  C_23
REMARK    3  A    between atoms: O_10  and  C_30
REMARK    4  A    between atoms: C_15  and  C_17
REMARK    5  A    between atoms: C_19  and  C_25
REMARK                            x       y       z     vdW  Elec       q    Type
REMARK                         _______ _______ _______ _____ _____    ______ ____
ROOT
ATOM      1  O   UNL     1     111.782 126.951 137.001  0.00  0.00    +0.000 OA
ATOM      2  O   UNL     1     111.290 125.987 135.106  0.00  0.00    +0.000 OA
ATOM      3  O   UNL     1     110.624 128.904 135.215  0.00  0.00    +0.000 OA
ATOM      4  C   UNL     1     111.372 126.566 135.688  0.00  0.00    +0.000 C 
ATOM      5  C   UNL     1     111.700 126.372 136.420  0.00  0.00    +0.000 C 
ATOM      6  C   UNL     1     111.127 127.339 135.538  0.00  0.00    +0.000 C 
ATOM      7  C   UNL     1     111.210 127.919 136.119  0.00  0.00    +0.000 A 
ATOM      8  C   UNL     1     111.537 127.725 136.851  0.00  0.00    +0.000 A 
ATOM      9  C   UNL     1     111.375 129.127 137.314  0.00  0.00    +0.000 A 
ATOM     10  C   UNL     1     111.629 128.319 137.465  0.00  0.00    +0.000 A 
ATOM     11  C   UNL     1     110.951 128.720 135.950  0.00  0.00    +0.000 A 
ATOM     12  C   UNL     1     111.034 129.328 136.552  0.00  0.00    +0.000 A 
ENDROOT
BRANCH   5  14
ATOM     13  O   UNL     1     112.681 123.279 137.020  0.00  0.00    +0.000 OA
ATOM     14  C   UNL     1     111.945 125.598 136.570  0.00  0.00    +0.000 A 
ATOM     15  C   UNL     1     112.740 125.394 136.482  0.00  0.00    +0.000 A 
ATOM     16  C   UNL     1     111.396 125.031 136.808  0.00  0.00    +0.000 A 
ATOM     17  C   UNL     1     112.985 124.620 136.632  0.00  0.00    +0.000 A 
ATOM     18  C   UNL     1     111.642 124.258 136.958  0.00  0.00    +0.000 A 
ATOM     19  C   UNL     1     112.436 124.052 136.870  0.00  0.00    +0.000 A 
BRANCH  17  20
ATOM     20  O   UNL     1     113.779 124.415 136.545  0.00  0.00    +0.000 OA
ATOM     21  C   UNL     1     114.369 124.927 136.809  0.00  0.00    +0.000 C 
ENDBRANCH  17  20
ENDBRANCH   5  14
BRANCH   9  22
ATOM     22  O   UNL     1     111.459 129.704 137.897  0.00  0.00    +0.000 OA
BRANCH  22  31
ATOM     23  O   UNL     1     112.744 130.183 137.496  0.00  0.00    +0.000 OA
ATOM     24  O   UNL     1     113.388 130.446 139.871  0.00  0.00    +0.000 OA
ATOM     25  O   UNL     1     114.457 130.837 138.678  0.00  0.00    +0.000 OA
ATOM     26  O   UNL     1     111.888 129.879 139.481  0.00  0.00    +0.000 OA
ATOM     27  C   UNL     1     113.173 130.358 139.079  0.00  0.00    +0.000 C 
ATOM     28  C   UNL     1     113.708 130.554 138.483  0.00  0.00    +0.000 C 
ATOM     29  C   UNL     1     112.423 130.075 138.884  0.00  0.00    +0.000 C 
ATOM     30  C   UNL     1     113.493 130.466 137.691  0.00  0.00    +0.000 C 
ATOM     31  C   UNL     1     112.208 129.987 138.092  0.00  0.00    +0.000 C 
BRANCH  30  33
ATOM     32  O   UNL     1     113.809 131.191 136.501  0.00  0.00    +0.000 OA
ATOM     33  C   UNL     1     114.028 130.662 137.095  0.00  0.00    +0.000 C 
ENDBRANCH  30  33
ENDBRANCH  22  31
ENDBRANCH   9  22
TORSDOF 5
ENDMDL
MODEL 10
REMARK VINA RESULT:      -8.7      2.354      3.592
REMARK  Name = 44257110
REMARK  5 active torsions:
REMARK  status: ('A' for Active; 'I' for Inactive)
REMARK    1  A    between atoms: O_2  and  C_16
REMARK    2  A    between atoms: O_2  and  C_23
REMARK    3  A    between atoms: O_10  and  C_30
REMARK    4  A    between atoms: C_15  and  C_17
REMARK    5  A    between atoms: C_19  and  C_25
REMARK                            x       y       z     vdW  Elec       q    Type
REMARK                         _______ _______ _______ _____ _____    ______ ____
ROOT
ATOM      1  O   UNL     1     111.778 127.372 137.659  0.00  0.00    +0.000 OA
ATOM      2  O   UNL     1     113.352 127.030 136.185  0.00  0.00    +0.000 OA
ATOM      3  O   UNL     1     113.410 129.746 137.446  0.00  0.00    +0.000 OA
ATOM      4  C   UNL     1     112.884 127.402 136.754  0.00  0.00    +0.000 C 
ATOM      5  C   UNL     1     112.246 127.000 137.090  0.00  0.00    +0.000 C 
ATOM      6  C   UNL     1     113.052 128.176 136.986  0.00  0.00    +0.000 C 
ATOM      7  C   UNL     1     112.584 128.547 137.554  0.00  0.00    +0.000 A 
ATOM      8  C   UNL     1     111.947 128.145 137.891  0.00  0.00    +0.000 A 
ATOM      9  C   UNL     1     111.623 129.327 138.730  0.00  0.00    +0.000 A 
ATOM     10  C   UNL     1     111.452 128.521 138.484  0.00  0.00    +0.000 A 
ATOM     11  C   UNL     1     112.770 129.353 137.788  0.00  0.00    +0.000 A 
ATOM     12  C   UNL     1     112.286 129.745 138.379  0.00  0.00    +0.000 A 
ENDROOT
BRANCH   5  14
ATOM     13  O   UNL     1     111.571 123.907 136.161  0.00  0.00    +0.000 OA
ATOM     14  C   UNL     1     112.078 126.227 136.858  0.00  0.00    +0.000 A 
ATOM     15  C   UNL     1     111.524 126.087 136.262  0.00  0.00    +0.000 A 
ATOM     16  C   UNL     1     112.462 125.594 137.221  0.00  0.00    +0.000 A 
ATOM     17  C   UNL     1     111.355 125.313 136.030  0.00  0.00    +0.000 A 
ATOM     18  C   UNL     1     112.293 124.821 136.988  0.00  0.00    +0.000 A 
ATOM     19  C   UNL     1     111.740 124.680 136.393  0.00  0.00    +0.000 A 
BRANCH  17  20
ATOM     20  O   UNL     1     110.801 125.173 135.434  0.00  0.00    +0.000 OA
ATOM     21  C   UNL     1     110.175 125.697 135.322  0.00  0.00    +0.000 C 
ENDBRANCH  17  20
ENDBRANCH   5  14
BRANCH   9  22
ATOM     22  O   UNL     1     111.152 129.696 139.298  0.00  0.00    +0.000 OA
BRANCH  22  31
ATOM     23  O   UNL     1     110.113 130.178 138.444  0.00  0.00    +0.000 OA
ATOM     24  O   UNL     1     110.098 132.326 139.674  0.00  0.00    +0.000 OA
ATOM     25  O   UNL     1     109.064 132.091 138.411  0.00  0.00    +0.000 OA
ATOM     26  O   UNL     1     111.142 131.128 140.118  0.00  0.00    +0.000 OA
ATOM     27  C   UNL     1     110.103 131.610 139.264  0.00  0.00    +0.000 C 
ATOM     28  C   UNL     1     109.586 131.492 138.632  0.00  0.00    +0.000 C 
ATOM     29  C   UNL     1     110.625 131.011 139.486  0.00  0.00    +0.000 C 
ATOM     30  C   UNL     1     109.591 130.776 138.222  0.00  0.00    +0.000 C 
ATOM     31  C   UNL     1     110.630 130.295 139.076  0.00  0.00    +0.000 C 
BRANCH  30  33
ATOM     32  O   UNL     1     108.598 129.985 137.565  0.00  0.00    +0.000 OA
ATOM     33  C   UNL     1     109.074 130.659 137.591  0.00  0.00    +0.000 C 
ENDBRANCH  30  33
ENDBRANCH  22  31
ENDBRANCH   9  22
TORSDOF 5
ENDMDL
