MODEL 1
REMARK VINA RESULT:      -8.2      0.000      0.000
REMARK  Name = 44259893
REMARK  4 active torsions:
REMARK  status: ('A' for Active; 'I' for Inactive)
REMARK    1  A    between atoms: O_2  and  C_14
REMARK    2  A    between atoms: O_3  and  C_18
REMARK    3  A    between atoms: O_7  and  C_22
REMARK    4  A    between atoms: C_11  and  C_13
REMARK                            x       y       z     vdW  Elec       q    Type
REMARK                         _______ _______ _______ _____ _____    ______ ____
ROOT
ATOM      1  O   UNL     1     105.024 124.195 146.884  0.00  0.00    +0.000 OA
ATOM      2  O   UNL     1     102.313 125.061 147.385  0.00  0.00    +0.000 OA
ATOM      3  O   UNL     1     103.436 125.758 147.962  0.00  0.00    +0.000 OA
ATOM      4  O   UNL     1     102.806 122.739 145.683  0.00  0.00    +0.000 OA
ATOM      5  C   UNL     1     103.683 124.623 147.131  0.00  0.00    +0.000 A 
ATOM      6  C   UNL     1     105.307 124.811 147.356  0.00  0.00    +0.000 A 
ATOM      7  C   UNL     1     104.212 124.102 146.771  0.00  0.00    +0.000 A 
ATOM      8  C   UNL     1     104.778 125.331 147.716  0.00  0.00    +0.000 A 
ATOM      9  C   UNL     1     103.966 125.237 147.603  0.00  0.00    +0.000 A 
ATOM     10  C   UNL     1     102.835 124.535 147.021  0.00  0.00    +0.000 A 
ATOM     11  C   UNL     1     103.930 123.458 146.277  0.00  0.00    +0.000 A 
ATOM     12  C   UNL     1     102.535 123.897 146.531  0.00  0.00    +0.000 A 
ATOM     13  C   UNL     1     103.086 123.355 146.156  0.00  0.00    +0.000 A 
ENDROOT
BRANCH   6  16
ATOM     14  O   UNL     1     106.223 125.542 146.195  0.00  0.00    +0.000 OA
ATOM     15  O   UNL     1     108.555 125.183 147.807  0.00  0.00    +0.000 OA
ATOM     16  C   UNL     1     106.119 124.904 147.468  0.00  0.00    +0.000 A 
ATOM     17  C   UNL     1     106.577 125.270 146.888  0.00  0.00    +0.000 A 
ATOM     18  C   UNL     1     106.473 124.631 148.163  0.00  0.00    +0.000 A 
ATOM     19  C   UNL     1     107.285 124.724 148.275  0.00  0.00    +0.000 A 
ATOM     20  C   UNL     1     107.389 125.362 147.001  0.00  0.00    +0.000 A 
ATOM     21  C   UNL     1     107.743 125.090 147.694  0.00  0.00    +0.000 A 
BRANCH  19  22
ATOM     22  O   UNL     1     107.639 124.451 148.969  0.00  0.00    +0.000 OA
ATOM     23  C   UNL     1     107.186 124.059 149.535  0.00  0.00    +0.000 C 
ENDBRANCH  19  22
ENDBRANCH   6  16
BRANCH   8  24
ATOM     24  O   UNL     1     105.060 125.946 148.188  0.00  0.00    +0.000 OA
ATOM     25  C   UNL     1     104.538 126.509 148.488  0.00  0.00    +0.000 C 
ENDBRANCH   8  24
BRANCH  12  26
ATOM     26  O   UNL     1     101.722 123.806 146.420  0.00  0.00    +0.000 OA
ATOM     27  C   UNL     1     101.307 123.243 146.858  0.00  0.00    +0.000 C 
ENDBRANCH  12  26
TORSDOF 4
ENDMDL
MODEL 2
REMARK VINA RESULT:      -8.2      1.055      2.159
REMARK  Name = 44259893
REMARK  4 active torsions:
REMARK  status: ('A' for Active; 'I' for Inactive)
REMARK    1  A    between atoms: O_2  and  C_14
REMARK    2  A    between atoms: O_3  and  C_18
REMARK    3  A    between atoms: O_7  and  C_22
REMARK    4  A    between atoms: C_11  and  C_13
REMARK                            x       y       z     vdW  Elec       q    Type
REMARK                         _______ _______ _______ _____ _____    ______ ____
ROOT
ATOM      1  O   UNL     1     104.529 125.147 147.544  0.00  0.00    +0.000 OA
ATOM      2  O   UNL     1     102.514 123.890 145.898  0.00  0.00    +0.000 OA
ATOM      3  O   UNL     1     103.897 123.924 145.487  0.00  0.00    +0.000 OA
ATOM      4  O   UNL     1     101.758 125.118 148.438  0.00  0.00    +0.000 OA
ATOM      5  C   UNL     1     103.532 124.525 146.730  0.00  0.00    +0.000 A 
ATOM      6  C   UNL     1     105.105 124.953 146.985  0.00  0.00    +0.000 A 
ATOM      7  C   UNL     1     103.743 124.933 147.416  0.00  0.00    +0.000 A 
ATOM      8  C   UNL     1     104.895 124.545 146.300  0.00  0.00    +0.000 A 
ATOM      9  C   UNL     1     104.108 124.331 146.173  0.00  0.00    +0.000 A 
ATOM     10  C   UNL     1     102.716 124.298 146.586  0.00  0.00    +0.000 A 
ATOM     11  C   UNL     1     103.152 125.141 148.004  0.00  0.00    +0.000 A 
ATOM     12  C   UNL     1     102.112 124.497 147.164  0.00  0.00    +0.000 A 
ATOM     13  C   UNL     1     102.331 124.922 147.877  0.00  0.00    +0.000 A 
ENDROOT
BRANCH   6  16
ATOM     14  O   UNL     1     106.050 124.058 148.000  0.00  0.00    +0.000 OA
ATOM     15  O   UNL     1     108.251 125.810 147.496  0.00  0.00    +0.000 OA
ATOM     16  C   UNL     1     105.892 125.166 147.113  0.00  0.00    +0.000 A 
ATOM     17  C   UNL     1     106.364 124.719 147.621  0.00  0.00    +0.000 A 
ATOM     18  C   UNL     1     106.206 125.828 146.733  0.00  0.00    +0.000 A 
ATOM     19  C   UNL     1     106.992 126.042 146.861  0.00  0.00    +0.000 A 
ATOM     20  C   UNL     1     107.150 124.934 147.748  0.00  0.00    +0.000 A 
ATOM     21  C   UNL     1     107.465 125.595 147.368  0.00  0.00    +0.000 A 
BRANCH  19  22
ATOM     22  O   UNL     1     107.306 126.704 146.480  0.00  0.00    +0.000 OA
ATOM     23  C   UNL     1     106.918 127.430 146.529  0.00  0.00    +0.000 C 
ENDBRANCH  19  22
ENDBRANCH   6  16
BRANCH   8  24
ATOM     24  O   UNL     1     105.470 124.351 145.742  0.00  0.00    +0.000 OA
ATOM     25  C   UNL     1     105.259 124.246 144.951  0.00  0.00    +0.000 C 
ENDBRANCH   8  24
BRANCH  12  26
ATOM     26  O   UNL     1     101.326 124.282 147.034  0.00  0.00    +0.000 OA
ATOM     27  C   UNL     1     101.013 123.616 147.407  0.00  0.00    +0.000 C 
ENDBRANCH  12  26
TORSDOF 4
ENDMDL
MODEL 3
REMARK VINA RESULT:      -7.9      1.961      4.239
REMARK  Name = 44259893
REMARK  4 active torsions:
REMARK  status: ('A' for Active; 'I' for Inactive)
REMARK    1  A    between atoms: O_2  and  C_14
REMARK    2  A    between atoms: O_3  and  C_18
REMARK    3  A    between atoms: O_7  and  C_22
REMARK    4  A    between atoms: C_11  and  C_13
REMARK                            x       y       z     vdW  Elec       q    Type
REMARK                         _______ _______ _______ _____ _____    ______ ____
ROOT
ATOM      1  O   UNL     1     106.769 125.346 146.166  0.00  0.00    +0.000 OA
ATOM      2  O   UNL     1     105.639 124.559 148.706  0.00  0.00    +0.000 OA
ATOM      3  O   UNL     1     104.802 124.766 147.551  0.00  0.00    +0.000 OA
ATOM      4  O   UNL     1     108.524 124.945 148.455  0.00  0.00    +0.000 OA
ATOM      5  C   UNL     1     106.211 124.957 147.423  0.00  0.00    +0.000 A 
ATOM      6  C   UNL     1     106.014 125.349 145.832  0.00  0.00    +0.000 A 
ATOM      7  C   UNL     1     106.867 125.150 146.961  0.00  0.00    +0.000 A 
ATOM      8  C   UNL     1     105.358 125.156 146.294  0.00  0.00    +0.000 A 
ATOM      9  C   UNL     1     105.457 124.960 147.089  0.00  0.00    +0.000 A 
ATOM     10  C   UNL     1     106.301 124.751 148.253  0.00  0.00    +0.000 A 
ATOM     11  C   UNL     1     107.658 125.151 147.297  0.00  0.00    +0.000 A 
ATOM     12  C   UNL     1     107.084 124.746 148.605  0.00  0.00    +0.000 A 
ATOM     13  C   UNL     1     107.767 124.947 148.125  0.00  0.00    +0.000 A 
ENDROOT
BRANCH   6  16
ATOM     14  O   UNL     1     106.311 124.225 144.661  0.00  0.00    +0.000 OA
ATOM     15  O   UNL     1     105.621 126.136 142.651  0.00  0.00    +0.000 OA
ATOM     16  C   UNL     1     105.916 125.545 145.037  0.00  0.00    +0.000 A 
ATOM     17  C   UNL     1     106.065 124.983 144.452  0.00  0.00    +0.000 A 
ATOM     18  C   UNL     1     105.669 126.305 144.827  0.00  0.00    +0.000 A 
ATOM     19  C   UNL     1     105.571 126.501 144.032  0.00  0.00    +0.000 A 
ATOM     20  C   UNL     1     105.966 125.181 143.656  0.00  0.00    +0.000 A 
ATOM     21  C   UNL     1     105.720 125.939 143.447  0.00  0.00    +0.000 A 
BRANCH  19  22
ATOM     22  O   UNL     1     105.324 127.260 143.822  0.00  0.00    +0.000 OA
ATOM     23  C   UNL     1     105.709 127.919 144.135  0.00  0.00    +0.000 C 
ENDBRANCH  19  22
ENDBRANCH   6  16
BRANCH   8  24
ATOM     24  O   UNL     1     104.604 125.159 145.960  0.00  0.00    +0.000 OA
ATOM     25  C   UNL     1     103.945 124.999 146.430  0.00  0.00    +0.000 C 
ENDBRANCH   8  24
BRANCH  12  26
ATOM     26  O   UNL     1     107.180 124.549 149.401  0.00  0.00    +0.000 OA
ATOM     27  C   UNL     1     107.421 123.789 149.612  0.00  0.00    +0.000 C 
ENDBRANCH  12  26
TORSDOF 4
ENDMDL
MODEL 4
REMARK VINA RESULT:      -7.8     12.781     14.112
REMARK  Name = 44259893
REMARK  4 active torsions:
REMARK  status: ('A' for Active; 'I' for Inactive)
REMARK    1  A    between atoms: O_2  and  C_14
REMARK    2  A    between atoms: O_3  and  C_18
REMARK    3  A    between atoms: O_7  and  C_22
REMARK    4  A    between atoms: C_11  and  C_13
REMARK                            x       y       z     vdW  Elec       q    Type
REMARK                         _______ _______ _______ _____ _____    ______ ____
ROOT
ATOM      1  O   UNL     1     113.449 126.860 136.658  0.00  0.00    +0.000 OA
ATOM      2  O   UNL     1     111.327 125.030 135.953  0.00  0.00    +0.000 OA
ATOM      3  O   UNL     1     111.191 126.449 135.733  0.00  0.00    +0.000 OA
ATOM      4  O   UNL     1     113.796 124.007 137.132  0.00  0.00    +0.000 OA
ATOM      5  C   UNL     1     112.400 125.954 136.309  0.00  0.00    +0.000 A 
ATOM      6  C   UNL     1     112.992 127.492 136.389  0.00  0.00    +0.000 A 
ATOM      7  C   UNL     1     113.153 126.091 136.618  0.00  0.00    +0.000 A 
ATOM      8  C   UNL     1     112.239 127.355 136.080  0.00  0.00    +0.000 A 
ATOM      9  C   UNL     1     111.943 126.586 136.041  0.00  0.00    +0.000 A 
ATOM     10  C   UNL     1     112.081 125.157 136.263  0.00  0.00    +0.000 A 
ATOM     11  C   UNL     1     113.638 125.440 136.901  0.00  0.00    +0.000 A 
ATOM     12  C   UNL     1     112.552 124.495 136.541  0.00  0.00    +0.000 A 
ATOM     13  C   UNL     1     113.336 124.638 136.862  0.00  0.00    +0.000 A 
ENDROOT
BRANCH   6  16
ATOM     14  O   UNL     1     112.898 128.341 137.800  0.00  0.00    +0.000 OA
ATOM     15  O   UNL     1     114.178 130.568 136.546  0.00  0.00    +0.000 OA
ATOM     16  C   UNL     1     113.288 128.261 136.428  0.00  0.00    +0.000 A 
ATOM     17  C   UNL     1     113.241 128.686 137.134  0.00  0.00    +0.000 A 
ATOM     18  C   UNL     1     113.632 128.605 135.761  0.00  0.00    +0.000 A 
ATOM     19  C   UNL     1     113.928 129.374 135.801  0.00  0.00    +0.000 A 
ATOM     20  C   UNL     1     113.538 129.455 137.173  0.00  0.00    +0.000 A 
ATOM     21  C   UNL     1     113.881 129.799 136.507  0.00  0.00    +0.000 A 
BRANCH  19  22
ATOM     22  O   UNL     1     114.272 129.718 135.134  0.00  0.00    +0.000 OA
ATOM     23  C   UNL     1     114.816 129.292 134.684  0.00  0.00    +0.000 C 
ENDBRANCH  19  22
ENDBRANCH   6  16
BRANCH   8  24
ATOM     24  O   UNL     1     111.782 127.987 135.812  0.00  0.00    +0.000 OA
ATOM     25  C   UNL     1     111.177 127.856 135.267  0.00  0.00    +0.000 C 
ENDBRANCH   8  24
BRANCH  12  26
ATOM     26  O   UNL     1     112.254 123.727 136.500  0.00  0.00    +0.000 OA
ATOM     27  C   UNL     1     111.920 123.378 137.169  0.00  0.00    +0.000 C 
ENDBRANCH  12  26
TORSDOF 4
ENDMDL
MODEL 5
REMARK VINA RESULT:      -7.7      2.531      3.212
REMARK  Name = 44259893
REMARK  4 active torsions:
REMARK  status: ('A' for Active; 'I' for Inactive)
REMARK    1  A    between atoms: O_2  and  C_14
REMARK    2  A    between atoms: O_3  and  C_18
REMARK    3  A    between atoms: O_7  and  C_22
REMARK    4  A    between atoms: C_11  and  C_13
REMARK                            x       y       z     vdW  Elec       q    Type
REMARK                         _______ _______ _______ _____ _____    ______ ____
ROOT
ATOM      1  O   UNL     1     106.447 125.006 146.065  0.00  0.00    +0.000 OA
ATOM      2  O   UNL     1     105.772 127.239 144.361  0.00  0.00    +0.000 OA
ATOM      3  O   UNL     1     106.184 127.444 145.728  0.00  0.00    +0.000 OA
ATOM      4  O   UNL     1     105.624 124.516 143.315  0.00  0.00    +0.000 OA
ATOM      5  C   UNL     1     106.113 126.110 145.222  0.00  0.00    +0.000 A 
ATOM      6  C   UNL     1     106.606 125.528 146.685  0.00  0.00    +0.000 A 
ATOM      7  C   UNL     1     106.201 125.297 145.334  0.00  0.00    +0.000 A 
ATOM      8  C   UNL     1     106.518 126.341 146.573  0.00  0.00    +0.000 A 
ATOM      9  C   UNL     1     106.271 126.631 145.840  0.00  0.00    +0.000 A 
ATOM     10  C   UNL     1     105.857 126.425 144.464  0.00  0.00    +0.000 A 
ATOM     11  C   UNL     1     106.039 124.744 144.697  0.00  0.00    +0.000 A 
ATOM     12  C   UNL     1     105.690 125.887 143.816  0.00  0.00    +0.000 A 
ATOM     13  C   UNL     1     105.782 125.041 143.933  0.00  0.00    +0.000 A 
ENDROOT
BRANCH   6  16
ATOM     14  O   UNL     1     108.205 125.226 146.958  0.00  0.00    +0.000 OA
ATOM     15  O   UNL     1     107.588 124.362 149.612  0.00  0.00    +0.000 OA
ATOM     16  C   UNL     1     106.852 125.237 147.416  0.00  0.00    +0.000 A 
ATOM     17  C   UNL     1     107.652 125.086 147.553  0.00  0.00    +0.000 A 
ATOM     18  C   UNL     1     106.298 125.096 148.012  0.00  0.00    +0.000 A 
ATOM     19  C   UNL     1     106.544 124.805 148.743  0.00  0.00    +0.000 A 
ATOM     20  C   UNL     1     107.897 124.794 148.285  0.00  0.00    +0.000 A 
ATOM     21  C   UNL     1     107.343 124.654 148.880  0.00  0.00    +0.000 A 
BRANCH  19  22
ATOM     22  O   UNL     1     105.990 124.664 149.339  0.00  0.00    +0.000 OA
ATOM     23  C   UNL     1     105.196 124.552 149.144  0.00  0.00    +0.000 C 
ENDBRANCH  19  22
ENDBRANCH   6  16
BRANCH   8  24
ATOM     24  O   UNL     1     106.676 126.862 147.191  0.00  0.00    +0.000 OA
ATOM     25  C   UNL     1     106.343 127.616 147.190  0.00  0.00    +0.000 C 
ENDBRANCH   8  24
BRANCH  12  26
ATOM     26  O   UNL     1     105.444 126.181 143.085  0.00  0.00    +0.000 OA
ATOM     27  C   UNL     1     105.983 126.245 142.463  0.00  0.00    +0.000 C 
ENDBRANCH  12  26
TORSDOF 4
ENDMDL
MODEL 6
REMARK VINA RESULT:      -7.7      9.642     10.876
REMARK  Name = 44259893
REMARK  4 active torsions:
REMARK  status: ('A' for Active; 'I' for Inactive)
REMARK    1  A    between atoms: O_2  and  C_14
REMARK    2  A    between atoms: O_3  and  C_18
REMARK    3  A    between atoms: O_7  and  C_22
REMARK    4  A    between atoms: C_11  and  C_13
REMARK                            x       y       z     vdW  Elec       q    Type
REMARK                         _______ _______ _______ _____ _____    ______ ____
ROOT
ATOM      1  O   UNL     1     111.587 131.634 145.186  0.00  0.00    +0.000 OA
ATOM      2  O   UNL     1     112.169 132.150 142.403  0.00  0.00    +0.000 OA
ATOM      3  O   UNL     1     112.098 133.226 143.361  0.00  0.00    +0.000 OA
ATOM      4  O   UNL     1     111.712 129.411 143.309  0.00  0.00    +0.000 OA
ATOM      5  C   UNL     1     111.874 131.888 143.809  0.00  0.00    +0.000 A 
ATOM      6  C   UNL     1     111.640 132.442 145.346  0.00  0.00    +0.000 A 
ATOM      7  C   UNL     1     111.704 131.358 144.418  0.00  0.00    +0.000 A 
ATOM      8  C   UNL     1     111.811 132.973 144.738  0.00  0.00    +0.000 A 
ATOM      9  C   UNL     1     111.928 132.695 143.970  0.00  0.00    +0.000 A 
ATOM     10  C   UNL     1     111.998 131.612 143.005  0.00  0.00    +0.000 A 
ATOM     11  C   UNL     1     111.645 130.514 144.263  0.00  0.00    +0.000 A 
ATOM     12  C   UNL     1     111.944 130.772 142.832  0.00  0.00    +0.000 A 
ATOM     13  C   UNL     1     111.766 130.220 143.465  0.00  0.00    +0.000 A 
ENDROOT
BRANCH   6  16
ATOM     14  O   UNL     1     112.846 132.310 146.464  0.00  0.00    +0.000 OA
ATOM     15  O   UNL     1     111.169 133.548 148.420  0.00  0.00    +0.000 OA
ATOM     16  C   UNL     1     111.523 132.718 146.114  0.00  0.00    +0.000 A 
ATOM     17  C   UNL     1     112.126 132.652 146.674  0.00  0.00    +0.000 A 
ATOM     18  C   UNL     1     110.802 133.061 146.324  0.00  0.00    +0.000 A 
ATOM     19  C   UNL     1     110.684 133.337 147.092  0.00  0.00    +0.000 A 
ATOM     20  C   UNL     1     112.008 132.929 147.442  0.00  0.00    +0.000 A 
ATOM     21  C   UNL     1     111.287 133.271 147.651  0.00  0.00    +0.000 A 
BRANCH  19  22
ATOM     22  O   UNL     1     109.963 133.680 147.301  0.00  0.00    +0.000 OA
ATOM     23  C   UNL     1     109.256 133.334 147.055  0.00  0.00    +0.000 C 
ENDBRANCH  19  22
ENDBRANCH   6  16
BRANCH   8  24
ATOM     24  O   UNL     1     111.864 133.780 144.898  0.00  0.00    +0.000 OA
ATOM     25  C   UNL     1     111.871 134.323 144.278  0.00  0.00    +0.000 C 
ENDBRANCH   8  24
BRANCH  12  26
ATOM     26  O   UNL     1     112.061 130.498 142.063  0.00  0.00    +0.000 OA
ATOM     27  C   UNL     1     112.790 130.179 141.846  0.00  0.00    +0.000 C 
ENDBRANCH  12  26
TORSDOF 4
ENDMDL
MODEL 7
REMARK VINA RESULT:      -7.6     12.213     14.299
REMARK  Name = 44259893
REMARK  4 active torsions:
REMARK  status: ('A' for Active; 'I' for Inactive)
REMARK    1  A    between atoms: O_2  and  C_14
REMARK    2  A    between atoms: O_3  and  C_18
REMARK    3  A    between atoms: O_7  and  C_22
REMARK    4  A    between atoms: C_11  and  C_13
REMARK                            x       y       z     vdW  Elec       q    Type
REMARK                         _______ _______ _______ _____ _____    ______ ____
ROOT
ATOM      1  O   UNL     1     113.472 127.255 136.089  0.00  0.00    +0.000 OA
ATOM      2  O   UNL     1     113.332 129.751 137.537  0.00  0.00    +0.000 OA
ATOM      3  O   UNL     1     112.871 128.520 138.130  0.00  0.00    +0.000 OA
ATOM      4  O   UNL     1     114.422 129.702 134.828  0.00  0.00    +0.000 OA
ATOM      5  C   UNL     1     113.403 128.490 136.805  0.00  0.00    +0.000 A 
ATOM      6  C   UNL     1     113.139 126.863 136.735  0.00  0.00    +0.000 A 
ATOM      7  C   UNL     1     113.603 128.068 136.124  0.00  0.00    +0.000 A 
ATOM      8  C   UNL     1     112.939 127.284 137.416  0.00  0.00    +0.000 A 
ATOM      9  C   UNL     1     113.071 128.098 137.450  0.00  0.00    +0.000 A 
ATOM     10  C   UNL     1     113.535 129.338 136.853  0.00  0.00    +0.000 A 
ATOM     11  C   UNL     1     113.950 128.466 135.445  0.00  0.00    +0.000 A 
ATOM     12  C   UNL     1     113.881 129.752 136.184  0.00  0.00    +0.000 A 
ATOM     13  C   UNL     1     114.089 129.313 135.476  0.00  0.00    +0.000 A 
ENDROOT
BRANCH   6  16
ATOM     14  O   UNL     1     114.374 125.812 137.044  0.00  0.00    +0.000 OA
ATOM     15  O   UNL     1     112.611 123.608 136.594  0.00  0.00    +0.000 OA
ATOM     16  C   UNL     1     113.008 126.049 136.700  0.00  0.00    +0.000 A 
ATOM     17  C   UNL     1     113.625 125.524 136.854  0.00  0.00    +0.000 A 
ATOM     18  C   UNL     1     112.258 125.761 136.510  0.00  0.00    +0.000 A 
ATOM     19  C   UNL     1     112.126 124.947 136.475  0.00  0.00    +0.000 A 
ATOM     20  C   UNL     1     113.492 124.710 136.819  0.00  0.00    +0.000 A 
ATOM     21  C   UNL     1     112.743 124.422 136.629  0.00  0.00    +0.000 A 
BRANCH  19  22
ATOM     22  O   UNL     1     111.376 124.659 136.285  0.00  0.00    +0.000 OA
ATOM     23  C   UNL     1     110.912 125.054 135.729  0.00  0.00    +0.000 C 
ENDBRANCH  19  22
ENDBRANCH   6  16
BRANCH   8  24
ATOM     24  O   UNL     1     112.607 126.892 138.061  0.00  0.00    +0.000 OA
ATOM     25  C   UNL     1     112.173 127.315 138.621  0.00  0.00    +0.000 C 
ENDBRANCH   8  24
BRANCH  12  26
ATOM     26  O   UNL     1     114.011 130.565 136.221  0.00  0.00    +0.000 OA
ATOM     27  C   UNL     1     114.778 130.856 136.315  0.00  0.00    +0.000 C 
ENDBRANCH  12  26
TORSDOF 4
ENDMDL
MODEL 8
REMARK VINA RESULT:      -7.6      1.581      4.397
REMARK  Name = 44259893
REMARK  4 active torsions:
REMARK  status: ('A' for Active; 'I' for Inactive)
REMARK    1  A    between atoms: O_2  and  C_14
REMARK    2  A    between atoms: O_3  and  C_18
REMARK    3  A    between atoms: O_7  and  C_22
REMARK    4  A    between atoms: C_11  and  C_13
REMARK                            x       y       z     vdW  Elec       q    Type
REMARK                         _______ _______ _______ _____ _____    ______ ____
ROOT
ATOM      1  O   UNL     1     104.823 125.465 145.680  0.00  0.00    +0.000 OA
ATOM      2  O   UNL     1     107.367 126.437 146.645  0.00  0.00    +0.000 OA
ATOM      3  O   UNL     1     106.719 125.306 147.262  0.00  0.00    +0.000 OA
ATOM      4  O   UNL     1     106.070 127.754 144.383  0.00  0.00    +0.000 OA
ATOM      5  C   UNL     1     106.081 125.947 146.157  0.00  0.00    +0.000 A 
ATOM      6  C   UNL     1     104.829 124.876 146.259  0.00  0.00    +0.000 A 
ATOM      7  C   UNL     1     105.449 125.999 145.629  0.00  0.00    +0.000 A 
ATOM      8  C   UNL     1     105.461 124.824 146.787  0.00  0.00    +0.000 A 
ATOM      9  C   UNL     1     106.087 125.359 146.735  0.00  0.00    +0.000 A 
ATOM     10  C   UNL     1     106.739 126.498 146.113  0.00  0.00    +0.000 A 
ATOM     11  C   UNL     1     105.431 126.608 145.022  0.00  0.00    +0.000 A 
ATOM     12  C   UNL     1     106.738 127.112 145.512  0.00  0.00    +0.000 A 
ATOM     13  C   UNL     1     106.079 127.167 144.963  0.00  0.00    +0.000 A 
ENDROOT
BRANCH   6  16
ATOM     14  O   UNL     1     104.776 123.568 145.255  0.00  0.00    +0.000 OA
ATOM     15  O   UNL     1     102.323 122.739 146.465  0.00  0.00    +0.000 OA
ATOM     16  C   UNL     1     104.203 124.342 146.310  0.00  0.00    +0.000 A 
ATOM     17  C   UNL     1     104.176 123.688 145.808  0.00  0.00    +0.000 A 
ATOM     18  C   UNL     1     103.603 124.462 146.864  0.00  0.00    +0.000 A 
ATOM     19  C   UNL     1     102.977 123.927 146.915  0.00  0.00    +0.000 A 
ATOM     20  C   UNL     1     103.550 123.154 145.860  0.00  0.00    +0.000 A 
ATOM     21  C   UNL     1     102.950 123.273 146.413  0.00  0.00    +0.000 A 
BRANCH  19  22
ATOM     22  O   UNL     1     102.376 124.047 147.469  0.00  0.00    +0.000 OA
ATOM     23  C   UNL     1     102.002 124.781 147.518  0.00  0.00    +0.000 C 
ENDBRANCH  19  22
ENDBRANCH   6  16
BRANCH   8  24
ATOM     24  O   UNL     1     105.467 124.236 147.365  0.00  0.00    +0.000 OA
ATOM     25  C   UNL     1     105.895 124.348 148.062  0.00  0.00    +0.000 C 
ENDBRANCH   8  24
BRANCH  12  26
ATOM     26  O   UNL     1     107.365 127.646 145.463  0.00  0.00    +0.000 OA
ATOM     27  C   UNL     1     107.295 128.397 145.798  0.00  0.00    +0.000 C 
ENDBRANCH  12  26
TORSDOF 4
ENDMDL
MODEL 9
REMARK VINA RESULT:      -7.6      2.506      4.237
REMARK  Name = 44259893
REMARK  4 active torsions:
REMARK  status: ('A' for Active; 'I' for Inactive)
REMARK    1  A    between atoms: O_2  and  C_14
REMARK    2  A    between atoms: O_3  and  C_18
REMARK    3  A    between atoms: O_7  and  C_22
REMARK    4  A    between atoms: C_11  and  C_13
REMARK                            x       y       z     vdW  Elec       q    Type
REMARK                         _______ _______ _______ _____ _____    ______ ____
ROOT
ATOM      1  O   UNL     1     107.059 126.741 147.143  0.00  0.00    +0.000 OA
ATOM      2  O   UNL     1     106.180 127.154 144.421  0.00  0.00    +0.000 OA
ATOM      3  O   UNL     1     106.181 125.838 145.012  0.00  0.00    +0.000 OA
ATOM      4  O   UNL     1     107.084 129.427 146.017  0.00  0.00    +0.000 OA
ATOM      5  C   UNL     1     106.624 126.946 145.797  0.00  0.00    +0.000 A 
ATOM      6  C   UNL     1     106.909 125.933 147.068  0.00  0.00    +0.000 A 
ATOM      7  C   UNL     1     106.917 127.247 146.507  0.00  0.00    +0.000 A 
ATOM      8  C   UNL     1     106.616 125.632 146.357  0.00  0.00    +0.000 A 
ATOM      9  C   UNL     1     106.474 126.139 145.722  0.00  0.00    +0.000 A 
ATOM     10  C   UNL     1     106.472 127.464 145.127  0.00  0.00    +0.000 A 
ATOM     11  C   UNL     1     107.078 128.087 146.597  0.00  0.00    +0.000 A 
ATOM     12  C   UNL     1     106.627 128.306 145.199  0.00  0.00    +0.000 A 
ATOM     13  C   UNL     1     106.932 128.619 145.939  0.00  0.00    +0.000 A 
ENDROOT
BRANCH   6  16
ATOM     14  O   UNL     1     108.445 125.426 147.392  0.00  0.00    +0.000 OA
ATOM     15  O   UNL     1     107.475 123.909 149.612  0.00  0.00    +0.000 OA
ATOM     16  C   UNL     1     107.051 125.427 147.703  0.00  0.00    +0.000 A 
ATOM     17  C   UNL     1     107.819 125.174 147.866  0.00  0.00    +0.000 A 
ATOM     18  C   UNL     1     106.424 125.174 148.177  0.00  0.00    +0.000 A 
ATOM     19  C   UNL     1     106.566 124.668 148.813  0.00  0.00    +0.000 A 
ATOM     20  C   UNL     1     107.960 124.667 148.502  0.00  0.00    +0.000 A 
ATOM     21  C   UNL     1     107.334 124.415 148.975  0.00  0.00    +0.000 A 
BRANCH  19  22
ATOM     22  O   UNL     1     105.939 124.415 149.287  0.00  0.00    +0.000 OA
ATOM     23  C   UNL     1     105.382 124.960 149.558  0.00  0.00    +0.000 C 
ENDBRANCH  19  22
ENDBRANCH   6  16
BRANCH   8  24
ATOM     24  O   UNL     1     106.466 124.825 146.283  0.00  0.00    +0.000 OA
ATOM     25  C   UNL     1     105.915 124.557 145.730  0.00  0.00    +0.000 C 
ENDBRANCH   8  24
BRANCH  12  26
ATOM     26  O   UNL     1     106.484 128.810 144.562  0.00  0.00    +0.000 OA
ATOM     27  C   UNL     1     107.111 129.067 144.090  0.00  0.00    +0.000 C 
ENDBRANCH  12  26
TORSDOF 4
ENDMDL
MODEL 10
REMARK VINA RESULT:      -7.5     11.087     12.589
REMARK  Name = 44259893
REMARK  4 active torsions:
REMARK  status: ('A' for Active; 'I' for Inactive)
REMARK    1  A    between atoms: O_2  and  C_14
REMARK    2  A    between atoms: O_3  and  C_18
REMARK    3  A    between atoms: O_7  and  C_22
REMARK    4  A    between atoms: C_11  and  C_13
REMARK                            x       y       z     vdW  Elec       q    Type
REMARK                         _______ _______ _______ _____ _____    ______ ____
ROOT
ATOM      1  O   UNL     1     111.065 126.512 136.061  0.00  0.00    +0.000 OA
ATOM      2  O   UNL     1     108.740 127.823 137.168  0.00  0.00    +0.000 OA
ATOM      3  O   UNL     1     109.376 126.727 137.857  0.00  0.00    +0.000 OA
ATOM      4  O   UNL     1     109.834 128.718 134.613  0.00  0.00    +0.000 OA
ATOM      5  C   UNL     1     109.915 127.161 136.608  0.00  0.00    +0.000 A 
ATOM      6  C   UNL     1     111.088 126.006 136.713  0.00  0.00    +0.000 A 
ATOM      7  C   UNL     1     110.478 127.089 136.009  0.00  0.00    +0.000 A 
ATOM      8  C   UNL     1     110.525 126.077 137.312  0.00  0.00    +0.000 A 
ATOM      9  C   UNL     1     109.939 126.655 137.259  0.00  0.00    +0.000 A 
ATOM     10  C   UNL     1     109.299 127.759 136.565  0.00  0.00    +0.000 A 
ATOM     11  C   UNL     1     110.464 127.611 135.326  0.00  0.00    +0.000 A 
ATOM     12  C   UNL     1     109.269 128.288 135.889  0.00  0.00    +0.000 A 
ATOM     13  C   UNL     1     109.855 128.214 135.266  0.00  0.00    +0.000 A 
ENDROOT
BRANCH   6  16
ATOM     14  O   UNL     1     110.951 124.608 135.848  0.00  0.00    +0.000 OA
ATOM     15  O   UNL     1     113.438 123.698 136.923  0.00  0.00    +0.000 OA
ATOM     16  C   UNL     1     111.675 125.429 136.765  0.00  0.00    +0.000 A 
ATOM     17  C   UNL     1     111.607 124.729 136.333  0.00  0.00    +0.000 A 
ATOM     18  C   UNL     1     112.332 125.551 137.251  0.00  0.00    +0.000 A 
ATOM     19  C   UNL     1     112.919 124.974 137.303  0.00  0.00    +0.000 A 
ATOM     20  C   UNL     1     112.195 124.153 136.385  0.00  0.00    +0.000 A 
ATOM     21  C   UNL     1     112.850 124.275 136.870  0.00  0.00    +0.000 A 
BRANCH  19  22
ATOM     22  O   UNL     1     113.576 125.096 137.788  0.00  0.00    +0.000 OA
ATOM     23  C   UNL     1     114.017 125.789 137.716  0.00  0.00    +0.000 C 
ENDBRANCH  19  22
ENDBRANCH   6  16
BRANCH   8  24
ATOM     24  O   UNL     1     110.549 125.572 137.963  0.00  0.00    +0.000 OA
ATOM     25  C   UNL     1     110.177 125.788 138.667  0.00  0.00    +0.000 C 
ENDBRANCH   8  24
BRANCH  12  26
ATOM     26  O   UNL     1     108.681 128.865 135.839  0.00  0.00    +0.000 OA
ATOM     27  C   UNL     1     108.845 129.642 136.064  0.00  0.00    +0.000 C 
ENDBRANCH  12  26
TORSDOF 4
ENDMDL
