MODEL 1
REMARK VINA RESULT:     -10.2      0.000      0.000
REMARK  Name = 73813318
REMARK  7 active torsions:
REMARK  status: ('A' for Active; 'I' for Inactive)
REMARK    1  A    between atoms: O_3  and  C_22
REMARK    2  A    between atoms: O_3  and  C_32
REMARK    3  A    between atoms: O_4  and  C_26
REMARK    4  A    between atoms: O_4  and  C_36
REMARK    5  A    between atoms: C_20  and  C_31
REMARK    6  A    between atoms: C_25  and  C_33
REMARK    7  A    between atoms: C_27  and  C_35
REMARK                            x       y       z     vdW  Elec       q    Type
REMARK                         _______ _______ _______ _____ _____    ______ ____
ROOT
ATOM      1  O   UNL     1     110.705 129.414 135.664  0.00  0.00    +0.000 OA
ATOM      2  O   UNL     1     108.699 128.593 135.400  0.00  0.00    +0.000 OA
ATOM      3  O   UNL     1     113.273 128.108 136.088  0.00  0.00    +0.000 OA
ATOM      4  C   UNL     1     109.890 129.370 135.546  0.00  0.00    +0.000 C 
ATOM      5  C   UNL     1     109.514 128.636 135.518  0.00  0.00    +0.000 C 
ATOM      6  C   UNL     1     109.956 127.944 135.608  0.00  0.00    +0.000 C 
ATOM      7  C   UNL     1     110.770 127.987 135.725  0.00  0.00    +0.000 A 
ATOM      8  C   UNL     1     111.219 127.259 135.818  0.00  0.00    +0.000 A 
ATOM      9  C   UNL     1     111.146 128.721 135.753  0.00  0.00    +0.000 A 
ATOM     10  C   UNL     1     112.068 127.297 135.941  0.00  0.00    +0.000 A 
ATOM     11  C   UNL     1     111.994 128.779 135.876  0.00  0.00    +0.000 A 
ATOM     12  C   UNL     1     112.458 128.063 135.970  0.00  0.00    +0.000 A 
ENDROOT
BRANCH   4  14
ATOM     13  O   UNL     1     108.126 132.136 135.184  0.00  0.00    +0.000 OA
ATOM     14  C   UNL     1     109.448 130.062 135.456  0.00  0.00    +0.000 A 
ATOM     15  C   UNL     1     108.695 131.133 136.027  0.00  0.00    +0.000 A 
ATOM     16  C   UNL     1     109.136 130.441 136.118  0.00  0.00    +0.000 A 
ATOM     17  C   UNL     1     109.320 130.374 134.703  0.00  0.00    +0.000 A 
ATOM     18  C   UNL     1     108.567 131.445 135.275  0.00  0.00    +0.000 A 
ATOM     19  C   UNL     1     108.879 131.065 134.612  0.00  0.00    +0.000 A 
BRANCH  15  20
ATOM     20  O   UNL     1     108.383 131.513 136.690  0.00  0.00    +0.000 OA
BRANCH  20  29
ATOM     21  O   UNL     1     109.502 132.319 137.064  0.00  0.00    +0.000 OA
ATOM     22  O   UNL     1     109.172 131.679 139.432  0.00  0.00    +0.000 OA
ATOM     23  O   UNL     1     110.401 132.699 139.017  0.00  0.00    +0.000 OA
ATOM     24  O   UNL     1     108.162 131.086 138.269  0.00  0.00    +0.000 OA
ATOM     25  C   UNL     1     109.282 131.893 138.642  0.00  0.00    +0.000 C 
ATOM     26  C   UNL     1     109.896 132.402 138.434  0.00  0.00    +0.000 C 
ATOM     27  C   UNL     1     108.777 131.596 138.061  0.00  0.00    +0.000 C 
ATOM     28  C   UNL     1     110.006 132.615 137.646  0.00  0.00    +0.000 C 
ATOM     29  C   UNL     1     108.887 131.809 137.271  0.00  0.00    +0.000 C 
BRANCH  28  31
ATOM     30  O   UNL     1     110.494 133.714 136.874  0.00  0.00    +0.000 OA
ATOM     31  C   UNL     1     110.621 133.125 137.437  0.00  0.00    +0.000 C 
ENDBRANCH  28  31
ENDBRANCH  20  29
ENDBRANCH  15  20
ENDBRANCH   4  14
BRANCH   8  32
ATOM     32  O   UNL     1     110.836 126.529 135.788  0.00  0.00    +0.000 OA
BRANCH  32  41
ATOM     33  O   UNL     1     111.023 126.114 137.142  0.00  0.00    +0.000 OA
ATOM     34  O   UNL     1     111.593 123.835 136.364  0.00  0.00    +0.000 OA
ATOM     35  O   UNL     1     111.591 124.179 137.977  0.00  0.00    +0.000 OA
ATOM     36  O   UNL     1     111.216 125.010 135.269  0.00  0.00    +0.000 OA
ATOM     37  C   UNL     1     111.403 124.594 136.624  0.00  0.00    +0.000 C 
ATOM     38  C   UNL     1     111.402 124.766 137.430  0.00  0.00    +0.000 C 
ATOM     39  C   UNL     1     111.214 125.182 136.076  0.00  0.00    +0.000 C 
ATOM     40  C   UNL     1     111.212 125.526 137.689  0.00  0.00    +0.000 C 
ATOM     41  C   UNL     1     111.024 125.941 136.335  0.00  0.00    +0.000 C 
BRANCH  40  43
ATOM     42  O   UNL     1     110.503 125.894 138.874  0.00  0.00    +0.000 OA
ATOM     43  C   UNL     1     111.211 125.699 138.496  0.00  0.00    +0.000 C 
ENDBRANCH  40  43
ENDBRANCH  32  41
ENDBRANCH   8  32
TORSDOF 7
ENDMDL
MODEL 2
REMARK VINA RESULT:     -10.1      1.512      2.371
REMARK  Name = 73813318
REMARK  7 active torsions:
REMARK  status: ('A' for Active; 'I' for Inactive)
REMARK    1  A    between atoms: O_3  and  C_22
REMARK    2  A    between atoms: O_3  and  C_32
REMARK    3  A    between atoms: O_4  and  C_26
REMARK    4  A    between atoms: O_4  and  C_36
REMARK    5  A    between atoms: C_20  and  C_31
REMARK    6  A    between atoms: C_25  and  C_33
REMARK    7  A    between atoms: C_27  and  C_35
REMARK                            x       y       z     vdW  Elec       q    Type
REMARK                         _______ _______ _______ _____ _____    ______ ____
ROOT
ATOM      1  O   UNL     1     110.985 129.397 137.170  0.00  0.00    +0.000 OA
ATOM      2  O   UNL     1     109.536 128.146 138.219  0.00  0.00    +0.000 OA
ATOM      3  O   UNL     1     113.293 128.703 135.535  0.00  0.00    +0.000 OA
ATOM      4  C   UNL     1     110.341 129.171 137.633  0.00  0.00    +0.000 C 
ATOM      5  C   UNL     1     110.181 128.372 137.757  0.00  0.00    +0.000 C 
ATOM      6  C   UNL     1     110.667 127.797 137.418  0.00  0.00    +0.000 C 
ATOM      7  C   UNL     1     111.311 128.021 136.956  0.00  0.00    +0.000 A 
ATOM      8  C   UNL     1     111.810 127.413 136.609  0.00  0.00    +0.000 A 
ATOM      9  C   UNL     1     111.471 128.821 136.832  0.00  0.00    +0.000 A 
ATOM     10  C   UNL     1     112.482 127.641 136.126  0.00  0.00    +0.000 A 
ATOM     11  C   UNL     1     112.140 129.069 136.352  0.00  0.00    +0.000 A 
ATOM     12  C   UNL     1     112.649 128.475 135.997  0.00  0.00    +0.000 A 
ENDROOT
BRANCH   4  14
ATOM     13  O   UNL     1     108.399 131.469 138.990  0.00  0.00    +0.000 OA
ATOM     14  C   UNL     1     109.854 129.746 137.972  0.00  0.00    +0.000 A 
ATOM     15  C   UNL     1     108.798 130.699 137.854  0.00  0.00    +0.000 A 
ATOM     16  C   UNL     1     109.283 130.125 137.514  0.00  0.00    +0.000 A 
ATOM     17  C   UNL     1     109.941 129.941 138.769  0.00  0.00    +0.000 A 
ATOM     18  C   UNL     1     108.884 130.894 138.650  0.00  0.00    +0.000 A 
ATOM     19  C   UNL     1     109.456 130.515 139.108  0.00  0.00    +0.000 A 
BRANCH  15  20
ATOM     20  O   UNL     1     108.225 131.079 137.396  0.00  0.00    +0.000 OA
BRANCH  20  29
ATOM     21  O   UNL     1     109.094 131.972 136.695  0.00  0.00    +0.000 OA
ATOM     22  O   UNL     1     107.795 131.609 134.620  0.00  0.00    +0.000 OA
ATOM     23  O   UNL     1     109.097 132.623 134.612  0.00  0.00    +0.000 OA
ATOM     24  O   UNL     1     107.359 130.837 136.012  0.00  0.00    +0.000 OA
ATOM     25  C   UNL     1     108.229 131.730 135.312  0.00  0.00    +0.000 C 
ATOM     26  C   UNL     1     108.879 132.236 135.309  0.00  0.00    +0.000 C 
ATOM     27  C   UNL     1     108.010 131.344 136.008  0.00  0.00    +0.000 C 
ATOM     28  C   UNL     1     109.312 132.357 136.000  0.00  0.00    +0.000 C 
ATOM     29  C   UNL     1     108.443 131.465 136.700  0.00  0.00    +0.000 C 
BRANCH  28  31
ATOM     30  O   UNL     1     110.104 133.358 136.643  0.00  0.00    +0.000 OA
ATOM     31  C   UNL     1     109.963 132.864 135.996  0.00  0.00    +0.000 C 
ENDBRANCH  28  31
ENDBRANCH  20  29
ENDBRANCH  15  20
ENDBRANCH   4  14
BRANCH   8  32
ATOM     32  O   UNL     1     111.642 126.616 136.738  0.00  0.00    +0.000 OA
BRANCH  32  41
ATOM     33  O   UNL     1     112.764 126.261 137.549  0.00  0.00    +0.000 OA
ATOM     34  O   UNL     1     113.052 124.180 136.241  0.00  0.00    +0.000 OA
ATOM     35  O   UNL     1     114.077 124.519 137.487  0.00  0.00    +0.000 OA
ATOM     36  O   UNL     1     111.835 125.229 135.866  0.00  0.00    +0.000 OA
ATOM     37  C   UNL     1     112.956 124.874 136.677  0.00  0.00    +0.000 C 
ATOM     38  C   UNL     1     113.469 125.043 137.300  0.00  0.00    +0.000 C 
ATOM     39  C   UNL     1     112.347 125.398 136.489  0.00  0.00    +0.000 C 
ATOM     40  C   UNL     1     113.373 125.737 137.736  0.00  0.00    +0.000 C 
ATOM     41  C   UNL     1     112.251 126.091 136.925  0.00  0.00    +0.000 C 
BRANCH  40  43
ATOM     42  O   UNL     1     113.590 126.233 139.058  0.00  0.00    +0.000 OA
ATOM     43  C   UNL     1     113.885 125.907 138.360  0.00  0.00    +0.000 C 
ENDBRANCH  40  43
ENDBRANCH  32  41
ENDBRANCH   8  32
TORSDOF 7
ENDMDL
MODEL 3
REMARK VINA RESULT:      -9.9      1.129      5.932
REMARK  Name = 73813318
REMARK  7 active torsions:
REMARK  status: ('A' for Active; 'I' for Inactive)
REMARK    1  A    between atoms: O_3  and  C_22
REMARK    2  A    between atoms: O_3  and  C_32
REMARK    3  A    between atoms: O_4  and  C_26
REMARK    4  A    between atoms: O_4  and  C_36
REMARK    5  A    between atoms: C_20  and  C_31
REMARK    6  A    between atoms: C_25  and  C_33
REMARK    7  A    between atoms: C_27  and  C_35
REMARK                            x       y       z     vdW  Elec       q    Type
REMARK                         _______ _______ _______ _____ _____    ______ ____
ROOT
ATOM      1  O   UNL     1     109.560 128.220 135.928  0.00  0.00    +0.000 OA
ATOM      2  O   UNL     1     111.736 128.292 136.094  0.00  0.00    +0.000 OA
ATOM      3  O   UNL     1     107.562 130.339 135.941  0.00  0.00    +0.000 OA
ATOM      4  C   UNL     1     110.347 127.977 135.967  0.00  0.00    +0.000 C 
ATOM      5  C   UNL     1     110.949 128.535 136.055  0.00  0.00    +0.000 C 
ATOM      6  C   UNL     1     110.762 129.338 136.102  0.00  0.00    +0.000 C 
ATOM      7  C   UNL     1     109.976 129.582 136.062  0.00  0.00    +0.000 A 
ATOM      8  C   UNL     1     109.794 130.420 136.113  0.00  0.00    +0.000 A 
ATOM      9  C   UNL     1     109.374 129.024 135.975  0.00  0.00    +0.000 A 
ATOM     10  C   UNL     1     108.977 130.681 136.072  0.00  0.00    +0.000 A 
ATOM     11  C   UNL     1     108.551 129.265 135.932  0.00  0.00    +0.000 A 
ATOM     12  C   UNL     1     108.350 130.098 135.981  0.00  0.00    +0.000 A 
ENDROOT
BRANCH   4  14
ATOM     13  O   UNL     1     111.095 124.768 135.776  0.00  0.00    +0.000 OA
ATOM     14  C   UNL     1     110.534 127.174 135.920  0.00  0.00    +0.000 A 
ATOM     15  C   UNL     1     110.699 125.903 136.549  0.00  0.00    +0.000 A 
ATOM     16  C   UNL     1     110.512 126.705 136.598  0.00  0.00    +0.000 A 
ATOM     17  C   UNL     1     110.743 126.843 135.194  0.00  0.00    +0.000 A 
ATOM     18  C   UNL     1     110.908 125.571 135.825  0.00  0.00    +0.000 A 
ATOM     19  C   UNL     1     110.930 126.041 135.147  0.00  0.00    +0.000 A 
BRANCH  15  20
ATOM     20  O   UNL     1     110.676 125.433 137.227  0.00  0.00    +0.000 OA
BRANCH  20  29
ATOM     21  O   UNL     1     111.930 125.752 137.834  0.00  0.00    +0.000 OA
ATOM     22  O   UNL     1     110.794 126.086 140.007  0.00  0.00    +0.000 OA
ATOM     23  O   UNL     1     112.427 126.293 139.890  0.00  0.00    +0.000 OA
ATOM     24  O   UNL     1     109.918 125.656 138.676  0.00  0.00    +0.000 OA
ATOM     25  C   UNL     1     111.173 125.975 139.283  0.00  0.00    +0.000 C 
ATOM     26  C   UNL     1     111.988 126.078 139.224  0.00  0.00    +0.000 C 
ATOM     27  C   UNL     1     110.735 125.759 138.617  0.00  0.00    +0.000 C 
ATOM     28  C   UNL     1     112.367 125.967 138.500  0.00  0.00    +0.000 C 
ATOM     29  C   UNL     1     111.114 125.648 137.893  0.00  0.00    +0.000 C 
BRANCH  28  31
ATOM     30  O   UNL     1     113.638 125.528 138.014  0.00  0.00    +0.000 OA
ATOM     31  C   UNL     1     113.184 126.070 138.441  0.00  0.00    +0.000 C 
ENDBRANCH  28  31
ENDBRANCH  20  29
ENDBRANCH  15  20
ENDBRANCH   4  14
BRANCH   8  32
ATOM     32  O   UNL     1     110.401 130.972 136.200  0.00  0.00    +0.000 OA
BRANCH  32  41
ATOM     33  O   UNL     1     110.214 131.352 137.564  0.00  0.00    +0.000 OA
ATOM     34  O   UNL     1     110.447 133.734 136.934  0.00  0.00    +0.000 OA
ATOM     35  O   UNL     1     110.182 133.319 138.508  0.00  0.00    +0.000 OA
ATOM     36  O   UNL     1     110.556 132.560 135.779  0.00  0.00    +0.000 OA
ATOM     37  C   UNL     1     110.369 132.940 137.144  0.00  0.00    +0.000 C 
ATOM     38  C   UNL     1     110.237 132.733 137.931  0.00  0.00    +0.000 C 
ATOM     39  C   UNL     1     110.424 132.353 136.566  0.00  0.00    +0.000 C 
ATOM     40  C   UNL     1     110.159 131.939 138.141  0.00  0.00    +0.000 C 
ATOM     41  C   UNL     1     110.346 131.559 136.776  0.00  0.00    +0.000 C 
BRANCH  40  43
ATOM     42  O   UNL     1     110.492 131.149 139.285  0.00  0.00    +0.000 OA
ATOM     43  C   UNL     1     110.027 131.731 138.928  0.00  0.00    +0.000 C 
ENDBRANCH  40  43
ENDBRANCH  32  41
ENDBRANCH   8  32
TORSDOF 7
ENDMDL
MODEL 4
REMARK VINA RESULT:      -9.9      3.183      5.639
REMARK  Name = 73813318
REMARK  7 active torsions:
REMARK  status: ('A' for Active; 'I' for Inactive)
REMARK    1  A    between atoms: O_3  and  C_22
REMARK    2  A    between atoms: O_3  and  C_32
REMARK    3  A    between atoms: O_4  and  C_26
REMARK    4  A    between atoms: O_4  and  C_36
REMARK    5  A    between atoms: C_20  and  C_31
REMARK    6  A    between atoms: C_25  and  C_33
REMARK    7  A    between atoms: C_27  and  C_35
REMARK                            x       y       z     vdW  Elec       q    Type
REMARK                         _______ _______ _______ _____ _____    ______ ____
ROOT
ATOM      1  O   UNL     1     113.343 129.617 137.685  0.00  0.00    +0.000 OA
ATOM      2  O   UNL     1     112.235 130.809 139.140  0.00  0.00    +0.000 OA
ATOM      3  O   UNL     1     112.705 128.845 134.950  0.00  0.00    +0.000 OA
ATOM      4  C   UNL     1     113.146 130.009 138.384  0.00  0.00    +0.000 C 
ATOM      5  C   UNL     1     112.432 130.418 138.441  0.00  0.00    +0.000 C 
ATOM      6  C   UNL     1     111.914 130.435 137.798  0.00  0.00    +0.000 C 
ATOM      7  C   UNL     1     112.110 130.044 137.100  0.00  0.00    +0.000 A 
ATOM      8  C   UNL     1     111.563 130.069 136.438  0.00  0.00    +0.000 A 
ATOM      9  C   UNL     1     112.824 129.635 137.042  0.00  0.00    +0.000 A 
ATOM     10  C   UNL     1     111.761 129.664 135.707  0.00  0.00    +0.000 A 
ATOM     11  C   UNL     1     113.041 129.223 136.320  0.00  0.00    +0.000 A 
ATOM     12  C   UNL     1     112.506 129.237 135.648  0.00  0.00    +0.000 A 
ENDROOT
BRANCH   4  14
ATOM     13  O   UNL     1     115.216 129.942 140.953  0.00  0.00    +0.000 OA
ATOM     14  C   UNL     1     113.664 129.992 139.026  0.00  0.00    +0.000 A 
ATOM     15  C   UNL     1     114.219 129.308 140.150  0.00  0.00    +0.000 A 
ATOM     16  C   UNL     1     113.701 129.323 139.508  0.00  0.00    +0.000 A 
ATOM     17  C   UNL     1     114.143 130.644 139.186  0.00  0.00    +0.000 A 
ATOM     18  C   UNL     1     114.698 129.958 140.311  0.00  0.00    +0.000 A 
ATOM     19  C   UNL     1     114.661 130.627 139.828  0.00  0.00    +0.000 A 
BRANCH  15  20
ATOM     20  O   UNL     1     114.256 128.639 140.633  0.00  0.00    +0.000 OA
BRANCH  20  29
ATOM     21  O   UNL     1     113.085 128.819 141.431  0.00  0.00    +0.000 OA
ATOM     22  O   UNL     1     112.468 126.451 141.062  0.00  0.00    +0.000 OA
ATOM     23  O   UNL     1     111.502 127.421 141.983  0.00  0.00    +0.000 OA
ATOM     24  O   UNL     1     113.846 127.060 140.386  0.00  0.00    +0.000 OA
ATOM     25  C   UNL     1     112.674 127.241 141.185  0.00  0.00    +0.000 C 
ATOM     26  C   UNL     1     112.192 127.726 141.645  0.00  0.00    +0.000 C 
ATOM     27  C   UNL     1     113.363 127.545 140.847  0.00  0.00    +0.000 C 
ATOM     28  C   UNL     1     112.397 128.515 141.768  0.00  0.00    +0.000 C 
ATOM     29  C   UNL     1     113.568 128.334 140.970  0.00  0.00    +0.000 C 
BRANCH  28  31
ATOM     30  O   UNL     1     112.253 129.529 142.764  0.00  0.00    +0.000 OA
ATOM     31  C   UNL     1     111.914 129.000 142.229  0.00  0.00    +0.000 C 
ENDBRANCH  28  31
ENDBRANCH  20  29
ENDBRANCH  15  20
ENDBRANCH   4  14
BRANCH   8  32
ATOM     32  O   UNL     1     110.851 130.481 136.504  0.00  0.00    +0.000 OA
BRANCH  32  41
ATOM     33  O   UNL     1     109.983 129.348 136.582  0.00  0.00    +0.000 OA
ATOM     34  O   UNL     1     108.323 130.521 135.171  0.00  0.00    +0.000 OA
ATOM     35  O   UNL     1     108.009 128.998 135.720  0.00  0.00    +0.000 OA
ATOM     36  O   UNL     1     109.744 131.263 135.563  0.00  0.00    +0.000 OA
ATOM     37  C   UNL     1     108.876 130.130 135.641  0.00  0.00    +0.000 C 
ATOM     38  C   UNL     1     108.719 129.369 135.916  0.00  0.00    +0.000 C 
ATOM     39  C   UNL     1     109.587 130.501 135.837  0.00  0.00    +0.000 C 
ATOM     40  C   UNL     1     109.272 128.978 136.386  0.00  0.00    +0.000 C 
ATOM     41  C   UNL     1     110.140 130.110 136.307  0.00  0.00    +0.000 C 
BRANCH  40  43
ATOM     42  O   UNL     1     109.229 128.034 137.459  0.00  0.00    +0.000 OA
ATOM     43  C   UNL     1     109.116 128.216 136.661  0.00  0.00    +0.000 C 
ENDBRANCH  40  43
ENDBRANCH  32  41
ENDBRANCH   8  32
TORSDOF 7
ENDMDL
MODEL 5
REMARK VINA RESULT:      -9.8      1.340      5.877
REMARK  Name = 73813318
REMARK  7 active torsions:
REMARK  status: ('A' for Active; 'I' for Inactive)
REMARK    1  A    between atoms: O_3  and  C_22
REMARK    2  A    between atoms: O_3  and  C_32
REMARK    3  A    between atoms: O_4  and  C_26
REMARK    4  A    between atoms: O_4  and  C_36
REMARK    5  A    between atoms: C_20  and  C_31
REMARK    6  A    between atoms: C_25  and  C_33
REMARK    7  A    between atoms: C_27  and  C_35
REMARK                            x       y       z     vdW  Elec       q    Type
REMARK                         _______ _______ _______ _____ _____    ______ ____
ROOT
ATOM      1  O   UNL     1     111.146 127.645 135.806  0.00  0.00    +0.000 OA
ATOM      2  O   UNL     1     109.196 126.674 135.952  0.00  0.00    +0.000 OA
ATOM      3  O   UNL     1     111.877 130.444 135.468  0.00  0.00    +0.000 OA
ATOM      4  C   UNL     1     110.571 127.059 135.884  0.00  0.00    +0.000 C 
ATOM      5  C   UNL     1     109.771 127.260 135.874  0.00  0.00    +0.000 C 
ATOM      6  C   UNL     1     109.546 128.050 135.786  0.00  0.00    +0.000 C 
ATOM      7  C   UNL     1     110.120 128.636 135.708  0.00  0.00    +0.000 A 
ATOM      8  C   UNL     1     109.873 129.454 135.617  0.00  0.00    +0.000 A 
ATOM      9  C   UNL     1     110.920 128.435 135.718  0.00  0.00    +0.000 A 
ATOM     10  C   UNL     1     110.466 130.070 135.535  0.00  0.00    +0.000 A 
ATOM     11  C   UNL     1     111.528 129.036 135.638  0.00  0.00    +0.000 A 
ATOM     12  C   UNL     1     111.300 129.859 135.546  0.00  0.00    +0.000 A 
ENDROOT
BRANCH   4  14
ATOM     13  O   UNL     1     111.469 123.902 136.235  0.00  0.00    +0.000 OA
ATOM     14  C   UNL     1     110.796 126.269 135.973  0.00  0.00    +0.000 A 
ATOM     15  C   UNL     1     111.251 125.197 136.799  0.00  0.00    +0.000 A 
ATOM     16  C   UNL     1     111.026 125.986 136.712  0.00  0.00    +0.000 A 
ATOM     17  C   UNL     1     110.789 125.764 135.320  0.00  0.00    +0.000 A 
ATOM     18  C   UNL     1     111.245 124.692 136.148  0.00  0.00    +0.000 A 
ATOM     19  C   UNL     1     111.014 124.975 135.408  0.00  0.00    +0.000 A 
BRANCH  15  20
ATOM     20  O   UNL     1     111.482 124.913 137.539  0.00  0.00    +0.000 OA
BRANCH  20  29
ATOM     21  O   UNL     1     112.821 125.398 137.648  0.00  0.00    +0.000 OA
ATOM     22  O   UNL     1     112.310 126.307 139.893  0.00  0.00    +0.000 OA
ATOM     23  O   UNL     1     113.820 126.489 139.254  0.00  0.00    +0.000 OA
ATOM     24  O   UNL     1     111.140 125.519 139.035  0.00  0.00    +0.000 OA
ATOM     25  C   UNL     1     112.480 126.004 139.144  0.00  0.00    +0.000 C 
ATOM     26  C   UNL     1     113.234 126.095 138.825  0.00  0.00    +0.000 C 
ATOM     27  C   UNL     1     111.895 125.610 138.716  0.00  0.00    +0.000 C 
ATOM     28  C   UNL     1     113.405 125.792 138.077  0.00  0.00    +0.000 C 
ATOM     29  C   UNL     1     112.066 125.307 137.968  0.00  0.00    +0.000 C 
BRANCH  28  31
ATOM     30  O   UNL     1     114.591 125.219 137.522  0.00  0.00    +0.000 OA
ATOM     31  C   UNL     1     114.161 125.883 137.757  0.00  0.00    +0.000 C 
ENDBRANCH  28  31
ENDBRANCH  20  29
ENDBRANCH  15  20
ENDBRANCH   4  14
BRANCH   8  32
ATOM     32  O   UNL     1     109.071 129.647 135.608  0.00  0.00    +0.000 OA
BRANCH  32  41
ATOM     33  O   UNL     1     108.965 130.262 136.894  0.00  0.00    +0.000 OA
ATOM     34  O   UNL     1     107.580 132.065 135.918  0.00  0.00    +0.000 OA
ATOM     35  O   UNL     1     107.936 132.078 137.528  0.00  0.00    +0.000 OA
ATOM     36  O   UNL     1     108.147 130.849 134.957  0.00  0.00    +0.000 OA
ATOM     37  C   UNL     1     108.041 131.464 136.243  0.00  0.00    +0.000 C 
ATOM     38  C   UNL     1     108.219 131.471 137.048  0.00  0.00    +0.000 C 
ATOM     39  C   UNL     1     108.325 130.856 135.762  0.00  0.00    +0.000 C 
ATOM     40  C   UNL     1     108.681 130.870 137.373  0.00  0.00    +0.000 C 
ATOM     41  C   UNL     1     108.787 130.255 136.088  0.00  0.00    +0.000 C 
BRANCH  40  43
ATOM     42  O   UNL     1     108.709 130.207 138.639  0.00  0.00    +0.000 OA
ATOM     43  C   UNL     1     108.860 130.876 138.179  0.00  0.00    +0.000 C 
ENDBRANCH  40  43
ENDBRANCH  32  41
ENDBRANCH   8  32
TORSDOF 7
ENDMDL
MODEL 6
REMARK VINA RESULT:      -9.8      7.313      8.963
REMARK  Name = 73813318
REMARK  7 active torsions:
REMARK  status: ('A' for Active; 'I' for Inactive)
REMARK    1  A    between atoms: O_3  and  C_22
REMARK    2  A    between atoms: O_3  and  C_32
REMARK    3  A    between atoms: O_4  and  C_26
REMARK    4  A    between atoms: O_4  and  C_36
REMARK    5  A    between atoms: C_20  and  C_31
REMARK    6  A    between atoms: C_25  and  C_33
REMARK    7  A    between atoms: C_27  and  C_35
REMARK                            x       y       z     vdW  Elec       q    Type
REMARK                         _______ _______ _______ _____ _____    ______ ____
ROOT
ATOM      1  O   UNL     1     102.919 130.215 141.636  0.00  0.00    +0.000 OA
ATOM      2  O   UNL     1     103.029 131.162 143.600  0.00  0.00    +0.000 OA
ATOM      3  O   UNL     1     104.217 127.831 140.580  0.00  0.00    +0.000 OA
ATOM      4  C   UNL     1     102.787 130.744 142.255  0.00  0.00    +0.000 C 
ATOM      5  C   UNL     1     103.161 130.633 142.981  0.00  0.00    +0.000 C 
ATOM      6  C   UNL     1     103.670 129.992 143.089  0.00  0.00    +0.000 C 
ATOM      7  C   UNL     1     103.803 129.462 142.472  0.00  0.00    +0.000 A 
ATOM      8  C   UNL     1     104.334 128.798 142.596  0.00  0.00    +0.000 A 
ATOM      9  C   UNL     1     103.428 129.573 141.745  0.00  0.00    +0.000 A 
ATOM     10  C   UNL     1     104.477 128.244 141.957  0.00  0.00    +0.000 A 
ATOM     11  C   UNL     1     103.558 129.029 141.093  0.00  0.00    +0.000 A 
ATOM     12  C   UNL     1     104.086 128.359 141.199  0.00  0.00    +0.000 A 
ENDROOT
BRANCH   4  14
ATOM     13  O   UNL     1     100.753 133.307 141.826  0.00  0.00    +0.000 OA
ATOM     14  C   UNL     1     102.278 131.385 142.147  0.00  0.00    +0.000 A 
ATOM     15  C   UNL     1     102.025 132.689 141.622  0.00  0.00    +0.000 A 
ATOM     16  C   UNL     1     102.534 132.049 141.729  0.00  0.00    +0.000 A 
ATOM     17  C   UNL     1     101.514 131.362 142.458  0.00  0.00    +0.000 A 
ATOM     18  C   UNL     1     101.262 132.667 141.933  0.00  0.00    +0.000 A 
ATOM     19  C   UNL     1     101.006 132.003 142.351  0.00  0.00    +0.000 A 
BRANCH  15  20
ATOM     20  O   UNL     1     102.280 133.353 141.204  0.00  0.00    +0.000 OA
BRANCH  20  29
ATOM     21  O   UNL     1     103.063 133.988 142.218  0.00  0.00    +0.000 OA
ATOM     22  O   UNL     1     104.842 134.444 140.559  0.00  0.00    +0.000 OA
ATOM     23  O   UNL     1     105.031 134.926 142.126  0.00  0.00    +0.000 OA
ATOM     24  O   UNL     1     103.466 133.657 140.098  0.00  0.00    +0.000 OA
ATOM     25  C   UNL     1     104.249 134.292 141.112  0.00  0.00    +0.000 C 
ATOM     26  C   UNL     1     104.343 134.533 141.895  0.00  0.00    +0.000 C 
ATOM     27  C   UNL     1     103.561 133.899 140.881  0.00  0.00    +0.000 C 
ATOM     28  C   UNL     1     103.750 134.381 142.448  0.00  0.00    +0.000 C 
ATOM     29  C   UNL     1     102.968 133.746 141.434  0.00  0.00    +0.000 C 
BRANCH  28  31
ATOM     30  O   UNL     1     103.203 134.937 143.645  0.00  0.00    +0.000 OA
ATOM     31  C   UNL     1     103.844 134.622 143.231  0.00  0.00    +0.000 C 
ENDBRANCH  28  31
ENDBRANCH  20  29
ENDBRANCH  15  20
ENDBRANCH   4  14
BRANCH   8  32
ATOM     32  O   UNL     1     104.705 128.695 143.326  0.00  0.00    +0.000 OA
BRANCH  32  41
ATOM     33  O   UNL     1     106.068 128.945 142.977  0.00  0.00    +0.000 OA
ATOM     34  O   UNL     1     106.756 126.914 144.213  0.00  0.00    +0.000 OA
ATOM     35  O   UNL     1     107.889 127.840 143.453  0.00  0.00    +0.000 OA
ATOM     36  O   UNL     1     105.163 127.341 144.150  0.00  0.00    +0.000 OA
ATOM     37  C   UNL     1     106.527 127.591 143.801  0.00  0.00    +0.000 C 
ATOM     38  C   UNL     1     107.093 128.053 143.422  0.00  0.00    +0.000 C 
ATOM     39  C   UNL     1     105.730 127.804 143.770  0.00  0.00    +0.000 C 
ATOM     40  C   UNL     1     106.864 128.730 143.010  0.00  0.00    +0.000 C 
ATOM     41  C   UNL     1     105.501 128.481 143.358  0.00  0.00    +0.000 C 
BRANCH  40  43
ATOM     42  O   UNL     1     107.377 130.017 142.658  0.00  0.00    +0.000 OA
ATOM     43  C   UNL     1     107.431 129.194 142.629  0.00  0.00    +0.000 C 
ENDBRANCH  40  43
ENDBRANCH  32  41
ENDBRANCH   8  32
TORSDOF 7
ENDMDL
MODEL 7
REMARK VINA RESULT:      -9.8      2.190      5.790
REMARK  Name = 73813318
REMARK  7 active torsions:
REMARK  status: ('A' for Active; 'I' for Inactive)
REMARK    1  A    between atoms: O_3  and  C_22
REMARK    2  A    between atoms: O_3  and  C_32
REMARK    3  A    between atoms: O_4  and  C_26
REMARK    4  A    between atoms: O_4  and  C_36
REMARK    5  A    between atoms: C_20  and  C_31
REMARK    6  A    between atoms: C_25  and  C_33
REMARK    7  A    between atoms: C_27  and  C_35
REMARK                            x       y       z     vdW  Elec       q    Type
REMARK                         _______ _______ _______ _____ _____    ______ ____
ROOT
ATOM      1  O   UNL     1     112.694 128.723 137.177  0.00  0.00    +0.000 OA
ATOM      2  O   UNL     1     111.430 127.099 136.450  0.00  0.00    +0.000 OA
ATOM      3  O   UNL     1     112.420 131.615 136.957  0.00  0.00    +0.000 OA
ATOM      4  C   UNL     1     112.414 127.963 137.023  0.00  0.00    +0.000 C 
ATOM      5  C   UNL     1     111.711 127.859 136.604  0.00  0.00    +0.000 C 
ATOM      6  C   UNL     1     111.288 128.516 136.338  0.00  0.00    +0.000 C 
ATOM      7  C   UNL     1     111.568 129.276 136.491  0.00  0.00    +0.000 A 
ATOM      8  C   UNL     1     111.118 129.953 136.209  0.00  0.00    +0.000 A 
ATOM      9  C   UNL     1     112.271 129.381 136.910  0.00  0.00    +0.000 A 
ATOM     10  C   UNL     1     111.405 130.747 136.366  0.00  0.00    +0.000 A 
ATOM     11  C   UNL     1     112.573 130.168 137.077  0.00  0.00    +0.000 A 
ATOM     12  C   UNL     1     112.137 130.855 136.803  0.00  0.00    +0.000 A 
ENDROOT
BRANCH   4  14
ATOM     13  O   UNL     1     114.105 125.335 138.083  0.00  0.00    +0.000 OA
ATOM     14  C   UNL     1     112.836 127.306 137.289  0.00  0.00    +0.000 A 
ATOM     15  C   UNL     1     113.085 126.315 138.287  0.00  0.00    +0.000 A 
ATOM     16  C   UNL     1     112.662 126.973 138.023  0.00  0.00    +0.000 A 
ATOM     17  C   UNL     1     113.433 126.983 136.819  0.00  0.00    +0.000 A 
ATOM     18  C   UNL     1     113.682 125.992 137.819  0.00  0.00    +0.000 A 
ATOM     19  C   UNL     1     113.856 126.326 137.084  0.00  0.00    +0.000 A 
BRANCH  15  20
ATOM     20  O   UNL     1     112.911 125.981 139.021  0.00  0.00    +0.000 OA
BRANCH  20  29
ATOM     21  O   UNL     1     113.547 126.916 139.896  0.00  0.00    +0.000 OA
ATOM     22  O   UNL     1     111.524 126.959 141.322  0.00  0.00    +0.000 OA
ATOM     23  O   UNL     1     112.835 127.879 141.721  0.00  0.00    +0.000 OA
ATOM     24  O   UNL     1     111.562 126.010 139.971  0.00  0.00    +0.000 OA
ATOM     25  C   UNL     1     112.199 126.944 140.846  0.00  0.00    +0.000 C 
ATOM     26  C   UNL     1     112.854 127.404 141.045  0.00  0.00    +0.000 C 
ATOM     27  C   UNL     1     112.217 126.470 140.171  0.00  0.00    +0.000 C 
ATOM     28  C   UNL     1     113.528 127.390 140.571  0.00  0.00    +0.000 C 
ATOM     29  C   UNL     1     112.892 126.455 139.696  0.00  0.00    +0.000 C 
BRANCH  28  31
ATOM     30  O   UNL     1     114.931 127.502 140.818  0.00  0.00    +0.000 OA
ATOM     31  C   UNL     1     114.183 127.849 140.770  0.00  0.00    +0.000 C 
ENDBRANCH  28  31
ENDBRANCH  20  29
ENDBRANCH  15  20
ENDBRANCH   4  14
BRANCH   8  32
ATOM     32  O   UNL     1     110.417 129.839 135.791  0.00  0.00    +0.000 OA
BRANCH  32  41
ATOM     33  O   UNL     1     109.527 130.347 136.788  0.00  0.00    +0.000 OA
ATOM     34  O   UNL     1     108.141 131.387 135.022  0.00  0.00    +0.000 OA
ATOM     35  O   UNL     1     107.714 131.547 136.607  0.00  0.00    +0.000 OA
ATOM     36  O   UNL     1     109.492 130.533 134.614  0.00  0.00    +0.000 OA
ATOM     37  C   UNL     1     108.603 131.040 135.611  0.00  0.00    +0.000 C 
ATOM     38  C   UNL     1     108.389 131.120 136.403  0.00  0.00    +0.000 C 
ATOM     39  C   UNL     1     109.279 130.613 135.406  0.00  0.00    +0.000 C 
ATOM     40  C   UNL     1     108.852 130.774 136.992  0.00  0.00    +0.000 C 
ATOM     41  C   UNL     1     109.741 130.266 135.995  0.00  0.00    +0.000 C 
BRANCH  40  43
ATOM     42  O   UNL     1     108.636 130.192 138.279  0.00  0.00    +0.000 OA
ATOM     43  C   UNL     1     108.639 130.854 137.784  0.00  0.00    +0.000 C 
ENDBRANCH  40  43
ENDBRANCH  32  41
ENDBRANCH   8  32
TORSDOF 7
ENDMDL
MODEL 8
REMARK VINA RESULT:      -9.7      3.103      5.695
REMARK  Name = 73813318
REMARK  7 active torsions:
REMARK  status: ('A' for Active; 'I' for Inactive)
REMARK    1  A    between atoms: O_3  and  C_22
REMARK    2  A    between atoms: O_3  and  C_32
REMARK    3  A    between atoms: O_4  and  C_26
REMARK    4  A    between atoms: O_4  and  C_36
REMARK    5  A    between atoms: C_20  and  C_31
REMARK    6  A    between atoms: C_25  and  C_33
REMARK    7  A    between atoms: C_27  and  C_35
REMARK                            x       y       z     vdW  Elec       q    Type
REMARK                         _______ _______ _______ _____ _____    ______ ____
ROOT
ATOM      1  O   UNL     1     112.325 128.424 137.791  0.00  0.00    +0.000 OA
ATOM      2  O   UNL     1     110.928 128.027 139.420  0.00  0.00    +0.000 OA
ATOM      3  O   UNL     1     111.908 129.545 135.135  0.00  0.00    +0.000 OA
ATOM      4  C   UNL     1     112.029 128.187 138.523  0.00  0.00    +0.000 C 
ATOM      5  C   UNL     1     111.224 128.263 138.688  0.00  0.00    +0.000 C 
ATOM      6  C   UNL     1     110.715 128.577 138.119  0.00  0.00    +0.000 C 
ATOM      7  C   UNL     1     111.010 128.814 137.387  0.00  0.00    +0.000 A 
ATOM      8  C   UNL     1     110.470 129.140 136.803  0.00  0.00    +0.000 A 
ATOM      9  C   UNL     1     111.814 128.738 137.222  0.00  0.00    +0.000 A 
ATOM     10  C   UNL     1     110.771 129.388 136.038  0.00  0.00    +0.000 A 
ATOM     11  C   UNL     1     112.135 128.981 136.463  0.00  0.00    +0.000 A 
ATOM     12  C   UNL     1     111.610 129.308 135.867  0.00  0.00    +0.000 A 
ENDROOT
BRANCH   4  14
ATOM     13  O   UNL     1     114.063 126.930 140.797  0.00  0.00    +0.000 OA
ATOM     14  C   UNL     1     112.538 127.873 139.092  0.00  0.00    +0.000 A 
ATOM     15  C   UNL     1     113.570 128.052 140.062  0.00  0.00    +0.000 A 
ATOM     16  C   UNL     1     113.062 128.367 139.494  0.00  0.00    +0.000 A 
ATOM     17  C   UNL     1     112.521 127.065 139.258  0.00  0.00    +0.000 A 
ATOM     18  C   UNL     1     113.554 127.245 140.229  0.00  0.00    +0.000 A 
ATOM     19  C   UNL     1     113.029 126.751 139.827  0.00  0.00    +0.000 A 
BRANCH  15  20
ATOM     20  O   UNL     1     114.096 128.545 140.464  0.00  0.00    +0.000 OA
BRANCH  20  29
ATOM     21  O   UNL     1     113.164 129.142 141.369  0.00  0.00    +0.000 OA
ATOM     22  O   UNL     1     114.263 131.337 141.055  0.00  0.00    +0.000 OA
ATOM     23  O   UNL     1     112.966 131.201 142.065  0.00  0.00    +0.000 OA
ATOM     24  O   UNL     1     114.829 130.009 140.254  0.00  0.00    +0.000 OA
ATOM     25  C   UNL     1     113.897 130.605 141.160  0.00  0.00    +0.000 C 
ATOM     26  C   UNL     1     113.249 130.537 141.664  0.00  0.00    +0.000 C 
ATOM     27  C   UNL     1     114.180 129.941 140.759  0.00  0.00    +0.000 C 
ATOM     28  C   UNL     1     112.882 129.805 141.769  0.00  0.00    +0.000 C 
ATOM     29  C   UNL     1     113.813 129.209 140.864  0.00  0.00    +0.000 C 
BRANCH  28  31
ATOM     30  O   UNL     1     112.183 129.100 142.796  0.00  0.00    +0.000 OA
ATOM     31  C   UNL     1     112.233 129.737 142.274  0.00  0.00    +0.000 C 
ENDBRANCH  28  31
ENDBRANCH  20  29
ENDBRANCH  15  20
ENDBRANCH   4  14
BRANCH   8  32
ATOM     32  O   UNL     1     109.666 129.213 136.976  0.00  0.00    +0.000 OA
BRANCH  32  41
ATOM     33  O   UNL     1     109.553 130.636 137.039  0.00  0.00    +0.000 OA
ATOM     34  O   UNL     1     107.479 130.529 135.692  0.00  0.00    +0.000 OA
ATOM     35  O   UNL     1     108.056 131.987 136.204  0.00  0.00    +0.000 OA
ATOM     36  O   UNL     1     108.284 129.142 136.078  0.00  0.00    +0.000 OA
ATOM     37  C   UNL     1     108.170 130.565 136.141  0.00  0.00    +0.000 C 
ATOM     38  C   UNL     1     108.458 131.294 136.397  0.00  0.00    +0.000 C 
ATOM     39  C   UNL     1     108.572 129.870 136.334  0.00  0.00    +0.000 C 
ATOM     40  C   UNL     1     109.150 131.329 136.846  0.00  0.00    +0.000 C 
ATOM     41  C   UNL     1     109.263 129.906 136.783  0.00  0.00    +0.000 C 
BRANCH  40  43
ATOM     42  O   UNL     1     109.663 132.158 137.890  0.00  0.00    +0.000 OA
ATOM     43  C   UNL     1     109.439 132.058 137.102  0.00  0.00    +0.000 C 
ENDBRANCH  40  43
ENDBRANCH  32  41
ENDBRANCH   8  32
TORSDOF 7
ENDMDL
MODEL 9
REMARK VINA RESULT:      -9.7      3.365      6.625
REMARK  Name = 73813318
REMARK  7 active torsions:
REMARK  status: ('A' for Active; 'I' for Inactive)
REMARK    1  A    between atoms: O_3  and  C_22
REMARK    2  A    between atoms: O_3  and  C_32
REMARK    3  A    between atoms: O_4  and  C_26
REMARK    4  A    between atoms: O_4  and  C_36
REMARK    5  A    between atoms: C_20  and  C_31
REMARK    6  A    between atoms: C_25  and  C_33
REMARK    7  A    between atoms: C_27  and  C_35
REMARK                            x       y       z     vdW  Elec       q    Type
REMARK                         _______ _______ _______ _____ _____    ______ ____
ROOT
ATOM      1  O   UNL     1     113.082 127.575 138.829  0.00  0.00    +0.000 OA
ATOM      2  O   UNL     1     111.042 128.252 138.450  0.00  0.00    +0.000 OA
ATOM      3  O   UNL     1     114.525 127.125 141.318  0.00  0.00    +0.000 OA
ATOM      4  C   UNL     1     112.397 127.799 138.428  0.00  0.00    +0.000 C 
ATOM      5  C   UNL     1     111.727 128.028 138.851  0.00  0.00    +0.000 C 
ATOM      6  C   UNL     1     111.743 128.034 139.677  0.00  0.00    +0.000 C 
ATOM      7  C   UNL     1     112.427 127.810 140.078  0.00  0.00    +0.000 A 
ATOM      8  C   UNL     1     112.431 127.820 140.937  0.00  0.00    +0.000 A 
ATOM      9  C   UNL     1     113.097 127.581 139.655  0.00  0.00    +0.000 A 
ATOM     10  C   UNL     1     113.141 127.588 141.361  0.00  0.00    +0.000 A 
ATOM     11  C   UNL     1     113.817 127.345 140.061  0.00  0.00    +0.000 A 
ATOM     12  C   UNL     1     113.839 127.349 140.919  0.00  0.00    +0.000 A 
ENDROOT
BRANCH   4  14
ATOM     13  O   UNL     1     112.334 127.779 135.128  0.00  0.00    +0.000 OA
ATOM     14  C   UNL     1     112.381 127.793 137.603  0.00  0.00    +0.000 A 
ATOM     15  C   UNL     1     112.153 127.102 136.374  0.00  0.00    +0.000 A 
ATOM     16  C   UNL     1     112.169 127.107 137.199  0.00  0.00    +0.000 A 
ATOM     17  C   UNL     1     112.578 128.476 137.183  0.00  0.00    +0.000 A 
ATOM     18  C   UNL     1     112.350 127.784 135.954  0.00  0.00    +0.000 A 
ATOM     19  C   UNL     1     112.562 128.471 136.358  0.00  0.00    +0.000 A 
BRANCH  15  20
ATOM     20  O   UNL     1     111.941 126.415 135.969  0.00  0.00    +0.000 OA
BRANCH  20  29
ATOM     21  O   UNL     1     113.075 125.607 136.290  0.00  0.00    +0.000 OA
ATOM     22  O   UNL     1     111.585 123.670 136.682  0.00  0.00    +0.000 OA
ATOM     23  O   UNL     1     113.216 123.508 136.872  0.00  0.00    +0.000 OA
ATOM     24  O   UNL     1     110.947 125.124 136.230  0.00  0.00    +0.000 OA
ATOM     25  C   UNL     1     112.082 124.316 136.551  0.00  0.00    +0.000 C 
ATOM     26  C   UNL     1     112.897 124.236 136.646  0.00  0.00    +0.000 C 
ATOM     27  C   UNL     1     111.763 125.043 136.325  0.00  0.00    +0.000 C 
ATOM     28  C   UNL     1     113.394 124.881 136.516  0.00  0.00    +0.000 C 
ATOM     29  C   UNL     1     112.260 125.689 136.195  0.00  0.00    +0.000 C 
BRANCH  28  31
ATOM     30  O   UNL     1     114.724 125.213 136.115  0.00  0.00    +0.000 OA
ATOM     31  C   UNL     1     114.209 124.800 136.611  0.00  0.00    +0.000 C 
ENDBRANCH  28  31
ENDBRANCH  20  29
ENDBRANCH  15  20
ENDBRANCH   4  14
BRANCH   8  32
ATOM     32  O   UNL     1     111.756 128.051 141.352  0.00  0.00    +0.000 OA
BRANCH  32  41
ATOM     33  O   UNL     1     112.177 129.323 141.851  0.00  0.00    +0.000 OA
ATOM     34  O   UNL     1     111.290 128.740 144.086  0.00  0.00    +0.000 OA
ATOM     35  O   UNL     1     112.005 130.205 143.839  0.00  0.00    +0.000 OA
ATOM     36  O   UNL     1     111.165 127.663 142.843  0.00  0.00    +0.000 OA
ATOM     37  C   UNL     1     111.585 128.934 143.341  0.00  0.00    +0.000 C 
ATOM     38  C   UNL     1     111.943 129.667 143.218  0.00  0.00    +0.000 C 
ATOM     39  C   UNL     1     111.523 128.395 142.720  0.00  0.00    +0.000 C 
ATOM     40  C   UNL     1     112.239 129.861 142.473  0.00  0.00    +0.000 C 
ATOM     41  C   UNL     1     111.818 128.589 141.974  0.00  0.00    +0.000 C 
BRANCH  40  43
ATOM     42  O   UNL     1     112.469 131.000 141.641  0.00  0.00    +0.000 OA
ATOM     43  C   UNL     1     112.597 130.593 142.348  0.00  0.00    +0.000 C 
ENDBRANCH  40  43
ENDBRANCH  32  41
ENDBRANCH   8  32
TORSDOF 7
ENDMDL
MODEL 10
REMARK VINA RESULT:      -9.7      1.368      2.599
REMARK  Name = 73813318
REMARK  7 active torsions:
REMARK  status: ('A' for Active; 'I' for Inactive)
REMARK    1  A    between atoms: O_3  and  C_22
REMARK    2  A    between atoms: O_3  and  C_32
REMARK    3  A    between atoms: O_4  and  C_26
REMARK    4  A    between atoms: O_4  and  C_36
REMARK    5  A    between atoms: C_20  and  C_31
REMARK    6  A    between atoms: C_25  and  C_33
REMARK    7  A    between atoms: C_27  and  C_35
REMARK                            x       y       z     vdW  Elec       q    Type
REMARK                         _______ _______ _______ _____ _____    ______ ____
ROOT
ATOM      1  O   UNL     1     110.485 129.000 137.411  0.00  0.00    +0.000 OA
ATOM      2  O   UNL     1     111.903 129.308 135.780  0.00  0.00    +0.000 OA
ATOM      3  O   UNL     1     109.262 126.574 138.460  0.00  0.00    +0.000 OA
ATOM      4  C   UNL     1     110.988 129.376 136.876  0.00  0.00    +0.000 C 
ATOM      5  C   UNL     1     111.399 128.933 136.315  0.00  0.00    +0.000 C 
ATOM      6  C   UNL     1     111.307 128.113 136.288  0.00  0.00    +0.000 C 
ATOM      7  C   UNL     1     110.804 127.737 136.822  0.00  0.00    +0.000 A 
ATOM      8  C   UNL     1     110.716 126.883 136.785  0.00  0.00    +0.000 A 
ATOM      9  C   UNL     1     110.393 128.180 137.384  0.00  0.00    +0.000 A 
ATOM     10  C   UNL     1     110.194 126.486 137.339  0.00  0.00    +0.000 A 
ATOM     11  C   UNL     1     109.866 127.800 137.947  0.00  0.00    +0.000 A 
ATOM     12  C   UNL     1     109.765 126.948 137.924  0.00  0.00    +0.000 A 
ENDROOT
BRANCH   4  14
ATOM     13  O   UNL     1     111.360 132.653 136.983  0.00  0.00    +0.000 OA
ATOM     14  C   UNL     1     111.081 130.196 136.903  0.00  0.00    +0.000 A 
ATOM     15  C   UNL     1     110.680 131.501 136.483  0.00  0.00    +0.000 A 
ATOM     16  C   UNL     1     110.586 130.681 136.456  0.00  0.00    +0.000 A 
ATOM     17  C   UNL     1     111.669 130.529 137.376  0.00  0.00    +0.000 A 
ATOM     18  C   UNL     1     111.267 131.834 136.956  0.00  0.00    +0.000 A 
ATOM     19  C   UNL     1     111.762 131.348 137.403  0.00  0.00    +0.000 A 
BRANCH  15  20
ATOM     20  O   UNL     1     110.185 131.987 136.036  0.00  0.00    +0.000 OA
BRANCH  20  29
ATOM     21  O   UNL     1     108.995 131.877 136.819  0.00  0.00    +0.000 OA
ATOM     22  O   UNL     1     107.652 131.666 134.750  0.00  0.00    +0.000 OA
ATOM     23  O   UNL     1     106.910 131.627 136.223  0.00  0.00    +0.000 OA
ATOM     24  O   UNL     1     109.291 131.846 134.656  0.00  0.00    +0.000 OA
ATOM     25  C   UNL     1     108.100 131.737 135.440  0.00  0.00    +0.000 C 
ATOM     26  C   UNL     1     107.730 131.717 136.176  0.00  0.00    +0.000 C 
ATOM     27  C   UNL     1     108.919 131.827 135.392  0.00  0.00    +0.000 C 
ATOM     28  C   UNL     1     108.176 131.787 136.865  0.00  0.00    +0.000 C 
ATOM     29  C   UNL     1     109.367 131.897 136.082  0.00  0.00    +0.000 C 
BRANCH  28  31
ATOM     30  O   UNL     1     108.093 132.233 138.220  0.00  0.00    +0.000 OA
ATOM     31  C   UNL     1     107.805 131.768 137.602  0.00  0.00    +0.000 C 
ENDBRANCH  28  31
ENDBRANCH  20  29
ENDBRANCH  15  20
ENDBRANCH   4  14
BRANCH   8  32
ATOM     32  O   UNL     1     111.131 126.448 136.220  0.00  0.00    +0.000 OA
BRANCH  32  41
ATOM     33  O   UNL     1     112.143 125.832 137.019  0.00  0.00    +0.000 OA
ATOM     34  O   UNL     1     111.637 123.646 135.974  0.00  0.00    +0.000 OA
ATOM     35  O   UNL     1     112.817 123.759 137.120  0.00  0.00    +0.000 OA
ATOM     36  O   UNL     1     110.793 124.990 135.524  0.00  0.00    +0.000 OA
ATOM     37  C   UNL     1     111.806 124.374 136.323  0.00  0.00    +0.000 C 
ATOM     38  C   UNL     1     112.396 124.430 136.895  0.00  0.00    +0.000 C 
ATOM     39  C   UNL     1     111.383 125.046 136.097  0.00  0.00    +0.000 C 
ATOM     40  C   UNL     1     112.565 125.159 137.243  0.00  0.00    +0.000 C 
ATOM     41  C   UNL     1     111.552 125.775 136.445  0.00  0.00    +0.000 C 
BRANCH  40  43
ATOM     42  O   UNL     1     113.656 125.872 137.828  0.00  0.00    +0.000 OA
ATOM     43  C   UNL     1     113.155 125.216 137.817  0.00  0.00    +0.000 C 
ENDBRANCH  40  43
ENDBRANCH  32  41
ENDBRANCH   8  32
TORSDOF 7
ENDMDL
