MODEL 1
REMARK VINA RESULT:      -9.9      0.000      0.000
REMARK  Name = 44258141
REMARK  7 active torsions:
REMARK  status: ('A' for Active; 'I' for Inactive)
REMARK    1  A    between atoms: O_2  and  C_17
REMARK    2  A    between atoms: O_2  and  C_19
REMARK    3  A    between atoms: O_10  and  C_33
REMARK    4  A    between atoms: O_10  and  C_34
REMARK    5  A    between atoms: C_16  and  C_18
REMARK    6  A    between atoms: C_26  and  C_28
REMARK    7  A    between atoms: C_34  and  C_35
REMARK                            x       y       z     vdW  Elec       q    Type
REMARK                         _______ _______ _______ _____ _____    ______ ____
ROOT
ATOM      1  O   UNL     1     110.271 128.398 136.113  0.00  0.00    +0.000 OA
ATOM      2  O   UNL     1     107.842 129.916 135.736  0.00  0.00    +0.000 OA
ATOM      3  O   UNL     1     107.832 128.475 135.698  0.00  0.00    +0.000 OA
ATOM      4  C   UNL     1     109.939 130.608 136.110  0.00  0.00    +0.000 A 
ATOM      5  C   UNL     1     110.338 129.848 136.160  0.00  0.00    +0.000 A 
ATOM      6  C   UNL     1     109.093 130.634 135.967  0.00  0.00    +0.000 A 
ATOM      7  C   UNL     1     109.884 129.125 136.064  0.00  0.00    +0.000 A 
ATOM      8  C   UNL     1     109.070 129.150 135.926  0.00  0.00    +0.000 A 
ATOM      9  C   UNL     1     108.656 129.901 135.874  0.00  0.00    +0.000 A 
ATOM     10  C   UNL     1     108.645 128.449 135.836  0.00  0.00    +0.000 A 
ATOM     11  C   UNL     1     109.845 127.697 136.023  0.00  0.00    +0.000 A 
ATOM     12  C   UNL     1     109.032 127.723 135.885  0.00  0.00    +0.000 A 
ENDROOT
BRANCH  11  14
ATOM     13  O   UNL     1     110.880 125.355 134.752  0.00  0.00    +0.000 OA
ATOM     14  C   UNL     1     110.233 126.970 136.071  0.00  0.00    +0.000 A 
ATOM     15  C   UNL     1     110.363 126.526 135.388  0.00  0.00    +0.000 A 
ATOM     16  C   UNL     1     110.490 126.687 136.802  0.00  0.00    +0.000 A 
ATOM     17  C   UNL     1     110.750 125.799 135.435  0.00  0.00    +0.000 A 
ATOM     18  C   UNL     1     110.877 125.960 136.850  0.00  0.00    +0.000 A 
ATOM     19  C   UNL     1     111.007 125.517 136.166  0.00  0.00    +0.000 A 
BRANCH  19  20
ATOM     20  O   UNL     1     111.395 124.790 136.214  0.00  0.00    +0.000 OA
BRANCH  20  22
ATOM     21  O   UNL     1     112.421 125.373 137.019  0.00  0.00    +0.000 OA
ATOM     22  C   UNL     1     112.056 124.705 136.701  0.00  0.00    +0.000 C 
BRANCH  22  23
ATOM     23  C   UNL     1     112.351 123.953 136.870  0.00  0.00    +0.000 C 
ATOM     24  C   UNL     1     111.834 123.342 137.069  0.00  0.00    +0.000 C 
ATOM     25  C   UNL     1     113.163 123.813 136.839  0.00  0.00    +0.000 C 
ATOM     26  C   UNL     1     113.680 124.424 136.640  0.00  0.00    +0.000 C 
ENDBRANCH  22  23
ENDBRANCH  20  22
ENDBRANCH  19  20
ENDBRANCH  11  14
BRANCH   4  27
ATOM     27  O   UNL     1     110.367 131.307 136.201  0.00  0.00    +0.000 OA
BRANCH  27  36
ATOM     28  O   UNL     1     110.425 131.302 137.628  0.00  0.00    +0.000 OA
ATOM     29  O   UNL     1     110.128 133.759 137.650  0.00  0.00    +0.000 OA
ATOM     30  O   UNL     1     110.285 132.934 139.070  0.00  0.00    +0.000 OA
ATOM     31  O   UNL     1     110.169 132.945 136.215  0.00  0.00    +0.000 OA
ATOM     32  C   UNL     1     110.227 132.940 137.643  0.00  0.00    +0.000 C 
ATOM     33  C   UNL     1     110.306 132.528 138.353  0.00  0.00    +0.000 C 
ATOM     34  C   UNL     1     110.248 132.533 136.925  0.00  0.00    +0.000 C 
ATOM     35  C   UNL     1     110.405 131.709 138.345  0.00  0.00    +0.000 C 
ATOM     36  C   UNL     1     110.347 131.714 136.918  0.00  0.00    +0.000 C 
BRANCH  35  38
ATOM     37  O   UNL     1     111.197 130.925 139.239  0.00  0.00    +0.000 OA
ATOM     38  C   UNL     1     110.483 131.296 139.055  0.00  0.00    +0.000 C 
ENDBRANCH  35  38
ENDBRANCH  27  36
ENDBRANCH   4  27
TORSDOF 7
ENDMDL
MODEL 2
REMARK VINA RESULT:      -9.6      8.973     10.485
REMARK  Name = 44258141
REMARK  7 active torsions:
REMARK  status: ('A' for Active; 'I' for Inactive)
REMARK    1  A    between atoms: O_2  and  C_17
REMARK    2  A    between atoms: O_2  and  C_19
REMARK    3  A    between atoms: O_10  and  C_33
REMARK    4  A    between atoms: O_10  and  C_34
REMARK    5  A    between atoms: C_16  and  C_18
REMARK    6  A    between atoms: C_26  and  C_28
REMARK    7  A    between atoms: C_34  and  C_35
REMARK                            x       y       z     vdW  Elec       q    Type
REMARK                         _______ _______ _______ _____ _____    ______ ____
ROOT
ATOM      1  O   UNL     1     106.166 125.431 143.824  0.00  0.00    +0.000 OA
ATOM      2  O   UNL     1     105.208 127.544 142.103  0.00  0.00    +0.000 OA
ATOM      3  O   UNL     1     105.127 127.659 143.539  0.00  0.00    +0.000 OA
ATOM      4  C   UNL     1     106.141 125.573 141.594  0.00  0.00    +0.000 A 
ATOM      5  C   UNL     1     106.271 125.263 142.386  0.00  0.00    +0.000 A 
ATOM      6  C   UNL     1     105.780 126.346 141.495  0.00  0.00    +0.000 A 
ATOM      7  C   UNL     1     106.039 125.732 143.067  0.00  0.00    +0.000 A 
ATOM      8  C   UNL     1     105.692 126.475 142.972  0.00  0.00    +0.000 A 
ATOM      9  C   UNL     1     105.555 126.800 142.188  0.00  0.00    +0.000 A 
ATOM     10  C   UNL     1     105.474 126.917 143.634  0.00  0.00    +0.000 A 
ATOM     11  C   UNL     1     105.947 125.872 144.486  0.00  0.00    +0.000 A 
ATOM     12  C   UNL     1     105.601 126.615 144.391  0.00  0.00    +0.000 A 
ENDROOT
BRANCH  11  14
ATOM     13  O   UNL     1     105.362 123.944 146.513  0.00  0.00    +0.000 OA
ATOM     14  C   UNL     1     106.075 125.570 145.243  0.00  0.00    +0.000 A 
ATOM     15  C   UNL     1     105.655 124.908 145.500  0.00  0.00    +0.000 A 
ATOM     16  C   UNL     1     106.622 125.931 145.745  0.00  0.00    +0.000 A 
ATOM     17  C   UNL     1     105.782 124.606 146.257  0.00  0.00    +0.000 A 
ATOM     18  C   UNL     1     106.749 125.630 146.502  0.00  0.00    +0.000 A 
ATOM     19  C   UNL     1     106.329 124.967 146.758  0.00  0.00    +0.000 A 
BRANCH  19  20
ATOM     20  O   UNL     1     106.456 124.665 147.515  0.00  0.00    +0.000 OA
BRANCH  20  22
ATOM     21  O   UNL     1     106.549 125.973 148.083  0.00  0.00    +0.000 OA
ATOM     22  C   UNL     1     106.709 125.164 148.121  0.00  0.00    +0.000 C 
BRANCH  22  23
ATOM     23  C   UNL     1     107.122 124.855 148.766  0.00  0.00    +0.000 C 
ATOM     24  C   UNL     1     107.894 124.583 148.669  0.00  0.00    +0.000 C 
ATOM     25  C   UNL     1     106.761 124.819 149.507  0.00  0.00    +0.000 C 
ATOM     26  C   UNL     1     105.989 125.092 149.604  0.00  0.00    +0.000 C 
ENDBRANCH  22  23
ENDBRANCH  20  22
ENDBRANCH  19  20
ENDBRANCH  11  14
BRANCH   4  27
ATOM     27  O   UNL     1     106.360 125.129 140.934  0.00  0.00    +0.000 OA
BRANCH  27  36
ATOM     28  O   UNL     1     105.309 124.162 140.963  0.00  0.00    +0.000 OA
ATOM     29  O   UNL     1     105.094 124.322 138.502  0.00  0.00    +0.000 OA
ATOM     30  O   UNL     1     104.115 123.302 139.351  0.00  0.00    +0.000 OA
ATOM     31  O   UNL     1     106.217 125.236 139.294  0.00  0.00    +0.000 OA
ATOM     32  C   UNL     1     105.166 124.269 139.323  0.00  0.00    +0.000 C 
ATOM     33  C   UNL     1     104.676 123.759 139.746  0.00  0.00    +0.000 C 
ATOM     34  C   UNL     1     105.728 124.726 139.718  0.00  0.00    +0.000 C 
ATOM     35  C   UNL     1     104.748 123.705 140.567  0.00  0.00    +0.000 C 
ATOM     36  C   UNL     1     105.799 124.673 140.538  0.00  0.00    +0.000 C 
BRANCH  35  38
ATOM     37  O   UNL     1     104.571 122.739 141.605  0.00  0.00    +0.000 OA
ATOM     38  C   UNL     1     104.259 123.195 140.991  0.00  0.00    +0.000 C 
ENDBRANCH  35  38
ENDBRANCH  27  36
ENDBRANCH   4  27
TORSDOF 7
ENDMDL
MODEL 3
REMARK VINA RESULT:      -9.6      1.242      1.704
REMARK  Name = 44258141
REMARK  7 active torsions:
REMARK  status: ('A' for Active; 'I' for Inactive)
REMARK    1  A    between atoms: O_2  and  C_17
REMARK    2  A    between atoms: O_2  and  C_19
REMARK    3  A    between atoms: O_10  and  C_33
REMARK    4  A    between atoms: O_10  and  C_34
REMARK    5  A    between atoms: C_16  and  C_18
REMARK    6  A    between atoms: C_26  and  C_28
REMARK    7  A    between atoms: C_34  and  C_35
REMARK                            x       y       z     vdW  Elec       q    Type
REMARK                         _______ _______ _______ _____ _____    ______ ____
ROOT
ATOM      1  O   UNL     1     110.717 128.824 136.345  0.00  0.00    +0.000 OA
ATOM      2  O   UNL     1     107.875 128.866 135.831  0.00  0.00    +0.000 OA
ATOM      3  O   UNL     1     108.570 127.624 136.066  0.00  0.00    +0.000 OA
ATOM      4  C   UNL     1     109.350 130.546 135.947  0.00  0.00    +0.000 A 
ATOM      5  C   UNL     1     110.066 130.102 136.115  0.00  0.00    +0.000 A 
ATOM      6  C   UNL     1     108.605 130.130 135.850  0.00  0.00    +0.000 A 
ATOM      7  C   UNL     1     110.027 129.246 136.184  0.00  0.00    +0.000 A 
ATOM      8  C   UNL     1     109.311 128.846 136.091  0.00  0.00    +0.000 A 
ATOM      9  C   UNL     1     108.586 129.275 135.922  0.00  0.00    +0.000 A 
ATOM     10  C   UNL     1     109.286 128.024 136.159  0.00  0.00    +0.000 A 
ATOM     11  C   UNL     1     110.692 128.002 136.413  0.00  0.00    +0.000 A 
ATOM     12  C   UNL     1     109.976 127.603 136.320  0.00  0.00    +0.000 A 
ENDROOT
BRANCH  11  14
ATOM     13  O   UNL     1     112.674 127.118 138.272  0.00  0.00    +0.000 OA
ATOM     14  C   UNL     1     111.382 127.580 136.575  0.00  0.00    +0.000 A 
ATOM     15  C   UNL     1     111.683 127.560 137.342  0.00  0.00    +0.000 A 
ATOM     16  C   UNL     1     111.771 127.178 135.968  0.00  0.00    +0.000 A 
ATOM     17  C   UNL     1     112.373 127.138 137.504  0.00  0.00    +0.000 A 
ATOM     18  C   UNL     1     112.462 126.756 136.130  0.00  0.00    +0.000 A 
ATOM     19  C   UNL     1     112.762 126.736 136.898  0.00  0.00    +0.000 A 
BRANCH  19  20
ATOM     20  O   UNL     1     113.453 126.314 137.059  0.00  0.00    +0.000 OA
BRANCH  20  22
ATOM     21  O   UNL     1     113.000 125.186 136.310  0.00  0.00    +0.000 OA
ATOM     22  C   UNL     1     113.616 125.617 136.650  0.00  0.00    +0.000 C 
BRANCH  22  23
ATOM     23  C   UNL     1     114.394 125.350 136.581  0.00  0.00    +0.000 C 
ATOM     24  C   UNL     1     114.935 125.772 136.124  0.00  0.00    +0.000 C 
ATOM     25  C   UNL     1     114.630 124.661 136.969  0.00  0.00    +0.000 C 
ATOM     26  C   UNL     1     114.088 124.239 137.426  0.00  0.00    +0.000 C 
ENDBRANCH  22  23
ENDBRANCH  20  22
ENDBRANCH  19  20
ENDBRANCH  11  14
BRANCH   4  27
ATOM     27  O   UNL     1     109.378 131.368 135.880  0.00  0.00    +0.000 OA
BRANCH  27  36
ATOM     28  O   UNL     1     109.275 131.599 137.286  0.00  0.00    +0.000 OA
ATOM     29  O   UNL     1     110.584 133.685 137.041  0.00  0.00    +0.000 OA
ATOM     30  O   UNL     1     110.045 133.220 138.528  0.00  0.00    +0.000 OA
ATOM     31  O   UNL     1     110.251 132.759 135.716  0.00  0.00    +0.000 OA
ATOM     32  C   UNL     1     110.148 132.989 137.123  0.00  0.00    +0.000 C 
ATOM     33  C   UNL     1     109.878 132.757 137.866  0.00  0.00    +0.000 C 
ATOM     34  C   UNL     1     109.982 132.527 136.460  0.00  0.00    +0.000 C 
ATOM     35  C   UNL     1     109.442 132.062 137.948  0.00  0.00    +0.000 C 
ATOM     36  C   UNL     1     109.545 131.831 136.542  0.00  0.00    +0.000 C 
BRANCH  35  38
ATOM     37  O   UNL     1     108.364 131.721 138.822  0.00  0.00    +0.000 OA
ATOM     38  C   UNL     1     109.172 131.829 138.692  0.00  0.00    +0.000 C 
ENDBRANCH  35  38
ENDBRANCH  27  36
ENDBRANCH   4  27
TORSDOF 7
ENDMDL
MODEL 4
REMARK VINA RESULT:      -9.5      9.495     11.499
REMARK  Name = 44258141
REMARK  7 active torsions:
REMARK  status: ('A' for Active; 'I' for Inactive)
REMARK    1  A    between atoms: O_2  and  C_17
REMARK    2  A    between atoms: O_2  and  C_19
REMARK    3  A    between atoms: O_10  and  C_33
REMARK    4  A    between atoms: O_10  and  C_34
REMARK    5  A    between atoms: C_16  and  C_18
REMARK    6  A    between atoms: C_26  and  C_28
REMARK    7  A    between atoms: C_34  and  C_35
REMARK                            x       y       z     vdW  Elec       q    Type
REMARK                         _______ _______ _______ _____ _____    ______ ____
ROOT
ATOM      1  O   UNL     1     105.303 126.801 144.003  0.00  0.00    +0.000 OA
ATOM      2  O   UNL     1     107.241 126.506 146.125  0.00  0.00    +0.000 OA
ATOM      3  O   UNL     1     107.144 127.732 145.371  0.00  0.00    +0.000 OA
ATOM      4  C   UNL     1     105.714 125.064 145.348  0.00  0.00    +0.000 A 
ATOM      5  C   UNL     1     105.359 125.545 144.730  0.00  0.00    +0.000 A 
ATOM      6  C   UNL     1     106.353 125.387 145.822  0.00  0.00    +0.000 A 
ATOM      7  C   UNL     1     105.648 126.343 144.597  0.00  0.00    +0.000 A 
ATOM      8  C   UNL     1     106.261 126.654 145.053  0.00  0.00    +0.000 A 
ATOM      9  C   UNL     1     106.628 126.187 145.674  0.00  0.00    +0.000 A 
ATOM     10  C   UNL     1     106.530 127.422 144.915  0.00  0.00    +0.000 A 
ATOM     11  C   UNL     1     105.572 127.568 143.865  0.00  0.00    +0.000 A 
ATOM     12  C   UNL     1     106.185 127.878 144.321  0.00  0.00    +0.000 A 
ENDROOT
BRANCH  11  14
ATOM     13  O   UNL     1     105.055 128.047 141.095  0.00  0.00    +0.000 OA
ATOM     14  C   UNL     1     105.227 128.026 143.271  0.00  0.00    +0.000 A 
ATOM     15  C   UNL     1     105.313 127.808 142.480  0.00  0.00    +0.000 A 
ATOM     16  C   UNL     1     104.797 128.702 143.468  0.00  0.00    +0.000 A 
ATOM     17  C   UNL     1     104.969 128.265 141.886  0.00  0.00    +0.000 A 
ATOM     18  C   UNL     1     104.452 129.159 142.874  0.00  0.00    +0.000 A 
ATOM     19  C   UNL     1     104.539 128.940 142.083  0.00  0.00    +0.000 A 
BRANCH  19  20
ATOM     20  O   UNL     1     104.194 129.398 141.489  0.00  0.00    +0.000 OA
BRANCH  20  22
ATOM     21  O   UNL     1     102.998 129.583 142.247  0.00  0.00    +0.000 OA
ATOM     22  C   UNL     1     103.505 129.825 141.644  0.00  0.00    +0.000 C 
BRANCH  22  23
ATOM     23  C   UNL     1     103.324 130.493 141.195  0.00  0.00    +0.000 C 
ATOM     24  C   UNL     1     103.774 131.180 141.279  0.00  0.00    +0.000 C 
ATOM     25  C   UNL     1     102.694 130.475 140.664  0.00  0.00    +0.000 C 
ATOM     26  C   UNL     1     102.244 129.789 140.581  0.00  0.00    +0.000 C 
ENDBRANCH  22  23
ENDBRANCH  20  22
ENDBRANCH  19  20
ENDBRANCH  11  14
BRANCH   4  27
ATOM     27  O   UNL     1     105.443 124.297 145.483  0.00  0.00    +0.000 OA
BRANCH  27  36
ATOM     28  O   UNL     1     104.573 124.591 146.578  0.00  0.00    +0.000 OA
ATOM     29  O   UNL     1     102.917 122.977 145.695  0.00  0.00    +0.000 OA
ATOM     30  O   UNL     1     102.599 123.809 147.083  0.00  0.00    +0.000 OA
ATOM     31  O   UNL     1     104.339 123.221 144.895  0.00  0.00    +0.000 OA
ATOM     32  C   UNL     1     103.469 123.515 145.989  0.00  0.00    +0.000 C 
ATOM     33  C   UNL     1     103.310 123.931 146.683  0.00  0.00    +0.000 C 
ATOM     34  C   UNL     1     104.180 123.637 145.588  0.00  0.00    +0.000 C 
ATOM     35  C   UNL     1     103.861 124.469 146.977  0.00  0.00    +0.000 C 
ATOM     36  C   UNL     1     104.732 124.175 145.883  0.00  0.00    +0.000 C 
BRANCH  35  38
ATOM     37  O   UNL     1     104.240 124.862 148.298  0.00  0.00    +0.000 OA
ATOM     38  C   UNL     1     103.703 124.885 147.671  0.00  0.00    +0.000 C 
ENDBRANCH  35  38
ENDBRANCH  27  36
ENDBRANCH   4  27
TORSDOF 7
ENDMDL
MODEL 5
REMARK VINA RESULT:      -9.4      2.033      3.249
REMARK  Name = 44258141
REMARK  7 active torsions:
REMARK  status: ('A' for Active; 'I' for Inactive)
REMARK    1  A    between atoms: O_2  and  C_17
REMARK    2  A    between atoms: O_2  and  C_19
REMARK    3  A    between atoms: O_10  and  C_33
REMARK    4  A    between atoms: O_10  and  C_34
REMARK    5  A    between atoms: C_16  and  C_18
REMARK    6  A    between atoms: C_26  and  C_28
REMARK    7  A    between atoms: C_34  and  C_35
REMARK                            x       y       z     vdW  Elec       q    Type
REMARK                         _______ _______ _______ _____ _____    ______ ____
ROOT
ATOM      1  O   UNL     1     112.191 129.501 137.482  0.00  0.00    +0.000 OA
ATOM      2  O   UNL     1     113.228 131.992 136.448  0.00  0.00    +0.000 OA
ATOM      3  O   UNL     1     113.905 130.743 136.199  0.00  0.00    +0.000 OA
ATOM      4  C   UNL     1     111.402 131.583 137.679  0.00  0.00    +0.000 A 
ATOM      5  C   UNL     1     111.469 130.730 137.762  0.00  0.00    +0.000 A 
ATOM      6  C   UNL     1     111.997 132.014 137.234  0.00  0.00    +0.000 A 
ATOM      7  C   UNL     1     112.131 130.320 137.399  0.00  0.00    +0.000 A 
ATOM      8  C   UNL     1     112.703 130.734 136.971  0.00  0.00    +0.000 A 
ATOM      9  C   UNL     1     112.652 131.586 136.878  0.00  0.00    +0.000 A 
ATOM     10  C   UNL     1     113.334 130.329 136.627  0.00  0.00    +0.000 A 
ATOM     11  C   UNL     1     112.822 129.097 137.138  0.00  0.00    +0.000 A 
ATOM     12  C   UNL     1     113.393 129.511 136.710  0.00  0.00    +0.000 A 
ENDROOT
BRANCH  11  14
ATOM     13  O   UNL     1     113.212 126.799 138.792  0.00  0.00    +0.000 OA
ATOM     14  C   UNL     1     112.882 128.278 137.221  0.00  0.00    +0.000 A 
ATOM     15  C   UNL     1     113.017 127.948 137.965  0.00  0.00    +0.000 A 
ATOM     16  C   UNL     1     112.806 127.790 136.560  0.00  0.00    +0.000 A 
ATOM     17  C   UNL     1     113.077 127.130 138.049  0.00  0.00    +0.000 A 
ATOM     18  C   UNL     1     112.866 126.971 136.643  0.00  0.00    +0.000 A 
ATOM     19  C   UNL     1     113.002 126.641 137.388  0.00  0.00    +0.000 A 
BRANCH  19  20
ATOM     20  O   UNL     1     113.061 125.823 137.471  0.00  0.00    +0.000 OA
BRANCH  20  22
ATOM     21  O   UNL     1     112.155 125.556 136.400  0.00  0.00    +0.000 OA
ATOM     22  C   UNL     1     112.792 125.325 136.870  0.00  0.00    +0.000 C 
BRANCH  22  23
ATOM     23  C   UNL     1     113.160 124.598 136.740  0.00  0.00    +0.000 C 
ATOM     24  C   UNL     1     113.945 124.572 136.487  0.00  0.00    +0.000 C 
ATOM     25  C   UNL     1     112.742 123.897 136.862  0.00  0.00    +0.000 C 
ATOM     26  C   UNL     1     111.957 123.923 137.115  0.00  0.00    +0.000 C 
ENDBRANCH  22  23
ENDBRANCH  20  22
ENDBRANCH  19  20
ENDBRANCH  11  14
BRANCH   4  27
ATOM     27  O   UNL     1     110.770 131.985 138.024  0.00  0.00    +0.000 OA
BRANCH  27  36
ATOM     28  O   UNL     1     109.917 131.924 136.880  0.00  0.00    +0.000 OA
ATOM     29  O   UNL     1     107.943 131.735 138.362  0.00  0.00    +0.000 OA
ATOM     30  O   UNL     1     107.748 131.737 136.724  0.00  0.00    +0.000 OA
ATOM     31  O   UNL     1     109.455 131.859 139.012  0.00  0.00    +0.000 OA
ATOM     32  C   UNL     1     108.601 131.798 137.868  0.00  0.00    +0.000 C 
ATOM     33  C   UNL     1     108.503 131.799 137.050  0.00  0.00    +0.000 C 
ATOM     34  C   UNL     1     109.357 131.860 138.194  0.00  0.00    +0.000 C 
ATOM     35  C   UNL     1     109.161 131.862 136.556  0.00  0.00    +0.000 C 
ATOM     36  C   UNL     1     110.014 131.923 137.700  0.00  0.00    +0.000 C 
BRANCH  35  38
ATOM     37  O   UNL     1     109.338 132.501 135.290  0.00  0.00    +0.000 OA
ATOM     38  C   UNL     1     109.064 131.863 135.736  0.00  0.00    +0.000 C 
ENDBRANCH  35  38
ENDBRANCH  27  36
ENDBRANCH   4  27
TORSDOF 7
ENDMDL
MODEL 6
REMARK VINA RESULT:      -9.3      8.437     10.638
REMARK  Name = 44258141
REMARK  7 active torsions:
REMARK  status: ('A' for Active; 'I' for Inactive)
REMARK    1  A    between atoms: O_2  and  C_17
REMARK    2  A    between atoms: O_2  and  C_19
REMARK    3  A    between atoms: O_10  and  C_33
REMARK    4  A    between atoms: O_10  and  C_34
REMARK    5  A    between atoms: C_16  and  C_18
REMARK    6  A    between atoms: C_26  and  C_28
REMARK    7  A    between atoms: C_34  and  C_35
REMARK                            x       y       z     vdW  Elec       q    Type
REMARK                         _______ _______ _______ _____ _____    ______ ____
ROOT
ATOM      1  O   UNL     1     105.004 127.554 142.554  0.00  0.00    +0.000 OA
ATOM      2  O   UNL     1     107.856 127.092 142.573  0.00  0.00    +0.000 OA
ATOM      3  O   UNL     1     107.307 128.336 142.093  0.00  0.00    +0.000 OA
ATOM      4  C   UNL     1     106.169 125.768 143.220  0.00  0.00    +0.000 A 
ATOM      5  C   UNL     1     105.503 126.283 143.047  0.00  0.00    +0.000 A 
ATOM      6  C   UNL     1     106.968 126.039 143.060  0.00  0.00    +0.000 A 
ATOM      7  C   UNL     1     105.647 127.063 142.717  0.00  0.00    +0.000 A 
ATOM      8  C   UNL     1     106.414 127.325 142.564  0.00  0.00    +0.000 A 
ATOM      9  C   UNL     1     107.092 126.822 142.730  0.00  0.00    +0.000 A 
ATOM     10  C   UNL     1     106.539 128.076 142.247  0.00  0.00    +0.000 A 
ATOM     11  C   UNL     1     105.129 128.305 142.237  0.00  0.00    +0.000 A 
ATOM     12  C   UNL     1     105.897 128.566 142.083  0.00  0.00    +0.000 A 
ENDROOT
BRANCH  11  14
ATOM     13  O   UNL     1     103.017 129.118 140.491  0.00  0.00    +0.000 OA
ATOM     14  C   UNL     1     104.486 128.796 142.073  0.00  0.00    +0.000 A 
ATOM     15  C   UNL     1     104.073 128.712 141.364  0.00  0.00    +0.000 A 
ATOM     16  C   UNL     1     104.257 129.372 142.618  0.00  0.00    +0.000 A 
ATOM     17  C   UNL     1     103.430 129.202 141.200  0.00  0.00    +0.000 A 
ATOM     18  C   UNL     1     103.615 129.863 142.454  0.00  0.00    +0.000 A 
ATOM     19  C   UNL     1     103.201 129.778 141.745  0.00  0.00    +0.000 A 
BRANCH  19  20
ATOM     20  O   UNL     1     102.559 130.269 141.581  0.00  0.00    +0.000 OA
BRANCH  20  22
ATOM     21  O   UNL     1     102.528 130.908 142.858  0.00  0.00    +0.000 OA
ATOM     22  C   UNL     1     102.425 130.941 142.040  0.00  0.00    +0.000 C 
BRANCH  22  23
ATOM     23  C   UNL     1     102.189 131.646 141.682  0.00  0.00    +0.000 C 
ATOM     24  C   UNL     1     102.738 132.105 141.273  0.00  0.00    +0.000 C 
ATOM     25  C   UNL     1     101.402 131.891 141.732  0.00  0.00    +0.000 C 
ATOM     26  C   UNL     1     100.853 131.431 142.141  0.00  0.00    +0.000 C 
ENDBRANCH  22  23
ENDBRANCH  20  22
ENDBRANCH  19  20
ENDBRANCH  11  14
BRANCH   4  27
ATOM     27  O   UNL     1     106.041 125.017 143.537  0.00  0.00    +0.000 OA
BRANCH  27  36
ATOM     28  O   UNL     1     106.315 125.355 144.898  0.00  0.00    +0.000 OA
ATOM     29  O   UNL     1     104.516 123.825 145.639  0.00  0.00    +0.000 OA
ATOM     30  O   UNL     1     105.389 124.672 146.753  0.00  0.00    +0.000 OA
ATOM     31  O   UNL     1     104.842 123.997 144.031  0.00  0.00    +0.000 OA
ATOM     32  C   UNL     1     105.115 124.335 145.392  0.00  0.00    +0.000 C 
ATOM     33  C   UNL     1     105.552 124.758 145.949  0.00  0.00    +0.000 C 
ATOM     34  C   UNL     1     105.278 124.420 144.588  0.00  0.00    +0.000 C 
ATOM     35  C   UNL     1     106.151 125.268 145.702  0.00  0.00    +0.000 C 
ATOM     36  C   UNL     1     105.878 124.930 144.341  0.00  0.00    +0.000 C 
BRANCH  35  38
ATOM     37  O   UNL     1     107.406 125.588 146.307  0.00  0.00    +0.000 OA
ATOM     38  C   UNL     1     106.588 125.692 146.259  0.00  0.00    +0.000 C 
ENDBRANCH  35  38
ENDBRANCH  27  36
ENDBRANCH   4  27
TORSDOF 7
ENDMDL
MODEL 7
REMARK VINA RESULT:      -9.3      1.785      5.937
REMARK  Name = 44258141
REMARK  7 active torsions:
REMARK  status: ('A' for Active; 'I' for Inactive)
REMARK    1  A    between atoms: O_2  and  C_17
REMARK    2  A    between atoms: O_2  and  C_19
REMARK    3  A    between atoms: O_10  and  C_33
REMARK    4  A    between atoms: O_10  and  C_34
REMARK    5  A    between atoms: C_16  and  C_18
REMARK    6  A    between atoms: C_26  and  C_28
REMARK    7  A    between atoms: C_34  and  C_35
REMARK                            x       y       z     vdW  Elec       q    Type
REMARK                         _______ _______ _______ _____ _____    ______ ____
ROOT
ATOM      1  O   UNL     1     110.309 127.274 136.637  0.00  0.00    +0.000 OA
ATOM      2  O   UNL     1     111.027 124.641 135.691  0.00  0.00    +0.000 OA
ATOM      3  O   UNL     1     110.443 125.617 134.804  0.00  0.00    +0.000 OA
ATOM      4  C   UNL     1     111.218 125.550 137.729  0.00  0.00    +0.000 A 
ATOM      5  C   UNL     1     110.894 126.330 137.573  0.00  0.00    +0.000 A 
ATOM      6  C   UNL     1     111.265 124.975 137.093  0.00  0.00    +0.000 A 
ATOM      7  C   UNL     1     110.620 126.524 136.782  0.00  0.00    +0.000 A 
ATOM      8  C   UNL     1     110.664 125.972 136.170  0.00  0.00    +0.000 A 
ATOM      9  C   UNL     1     110.986 125.187 136.308  0.00  0.00    +0.000 A 
ATOM     10  C   UNL     1     110.398 126.170 135.415  0.00  0.00    +0.000 A 
ATOM     11  C   UNL     1     110.043 127.472 135.882  0.00  0.00    +0.000 A 
ATOM     12  C   UNL     1     110.088 126.920 135.271  0.00  0.00    +0.000 A 
ENDROOT
BRANCH  11  14
ATOM     13  O   UNL     1     107.826 129.277 135.892  0.00  0.00    +0.000 OA
ATOM     14  C   UNL     1     109.732 128.223 135.737  0.00  0.00    +0.000 A 
ATOM     15  C   UNL     1     108.935 128.375 135.887  0.00  0.00    +0.000 A 
ATOM     16  C   UNL     1     110.218 128.821 135.443  0.00  0.00    +0.000 A 
ATOM     17  C   UNL     1     108.623 129.125 135.743  0.00  0.00    +0.000 A 
ATOM     18  C   UNL     1     109.907 129.572 135.299  0.00  0.00    +0.000 A 
ATOM     19  C   UNL     1     109.109 129.723 135.449  0.00  0.00    +0.000 A 
BRANCH  19  20
ATOM     20  O   UNL     1     108.798 130.473 135.304  0.00  0.00    +0.000 OA
BRANCH  20  22
ATOM     21  O   UNL     1     110.005 131.067 135.785  0.00  0.00    +0.000 OA
ATOM     22  C   UNL     1     109.250 131.146 135.462  0.00  0.00    +0.000 C 
BRANCH  22  23
ATOM     23  C   UNL     1     108.947 131.895 135.298  0.00  0.00    +0.000 C 
ATOM     24  C   UNL     1     108.507 132.021 134.612  0.00  0.00    +0.000 C 
ATOM     25  C   UNL     1     109.084 132.519 135.820  0.00  0.00    +0.000 C 
ATOM     26  C   UNL     1     109.524 132.393 136.507  0.00  0.00    +0.000 C 
ENDBRANCH  22  23
ENDBRANCH  20  22
ENDBRANCH  19  20
ENDBRANCH  11  14
BRANCH   4  27
ATOM     27  O   UNL     1     111.484 125.354 138.485  0.00  0.00    +0.000 OA
BRANCH  27  36
ATOM     28  O   UNL     1     112.858 125.734 138.395  0.00  0.00    +0.000 OA
ATOM     29  O   UNL     1     112.681 126.893 140.575  0.00  0.00    +0.000 OA
ATOM     30  O   UNL     1     114.114 126.886 139.758  0.00  0.00    +0.000 OA
ATOM     31  O   UNL     1     111.365 126.127 139.938  0.00  0.00    +0.000 OA
ATOM     32  C   UNL     1     112.740 126.507 139.848  0.00  0.00    +0.000 C 
ATOM     33  C   UNL     1     113.457 126.504 139.440  0.00  0.00    +0.000 C 
ATOM     34  C   UNL     1     112.082 126.124 139.530  0.00  0.00    +0.000 C 
ATOM     35  C   UNL     1     113.516 126.117 138.714  0.00  0.00    +0.000 C 
ATOM     36  C   UNL     1     112.141 125.738 138.804  0.00  0.00    +0.000 C 
BRANCH  35  38
ATOM     37  O   UNL     1     114.512 125.412 137.970  0.00  0.00    +0.000 OA
ATOM     38  C   UNL     1     114.232 126.113 138.305  0.00  0.00    +0.000 C 
ENDBRANCH  35  38
ENDBRANCH  27  36
ENDBRANCH   4  27
TORSDOF 7
ENDMDL
MODEL 8
REMARK VINA RESULT:      -9.3      7.660      8.845
REMARK  Name = 44258141
REMARK  7 active torsions:
REMARK  status: ('A' for Active; 'I' for Inactive)
REMARK    1  A    between atoms: O_2  and  C_17
REMARK    2  A    between atoms: O_2  and  C_19
REMARK    3  A    between atoms: O_10  and  C_33
REMARK    4  A    between atoms: O_10  and  C_34
REMARK    5  A    between atoms: C_16  and  C_18
REMARK    6  A    between atoms: C_26  and  C_28
REMARK    7  A    between atoms: C_34  and  C_35
REMARK                            x       y       z     vdW  Elec       q    Type
REMARK                         _______ _______ _______ _____ _____    ______ ____
ROOT
ATOM      1  O   UNL     1     105.714 125.637 141.579  0.00  0.00    +0.000 OA
ATOM      2  O   UNL     1     108.264 126.762 142.339  0.00  0.00    +0.000 OA
ATOM      3  O   UNL     1     108.135 125.937 141.163  0.00  0.00    +0.000 OA
ATOM      4  C   UNL     1     106.255 126.938 143.313  0.00  0.00    +0.000 A 
ATOM      5  C   UNL     1     105.787 126.461 142.773  0.00  0.00    +0.000 A 
ATOM      6  C   UNL     1     107.095 127.042 143.169  0.00  0.00    +0.000 A 
ATOM      7  C   UNL     1     106.167 126.094 142.095  0.00  0.00    +0.000 A 
ATOM      8  C   UNL     1     106.975 126.194 141.956  0.00  0.00    +0.000 A 
ATOM      9  C   UNL     1     107.457 126.668 142.486  0.00  0.00    +0.000 A 
ATOM     10  C   UNL     1     107.328 125.837 141.301  0.00  0.00    +0.000 A 
ATOM     11  C   UNL     1     106.067 125.280 140.925  0.00  0.00    +0.000 A 
ATOM     12  C   UNL     1     106.874 125.380 140.786  0.00  0.00    +0.000 A 
ENDROOT
BRANCH  11  14
ATOM     13  O   UNL     1     104.765 122.815 140.296  0.00  0.00    +0.000 OA
ATOM     14  C   UNL     1     105.614 124.823 140.409  0.00  0.00    +0.000 A 
ATOM     15  C   UNL     1     105.416 124.048 140.610  0.00  0.00    +0.000 A 
ATOM     16  C   UNL     1     105.358 125.141 139.692  0.00  0.00    +0.000 A 
ATOM     17  C   UNL     1     104.962 123.590 140.095  0.00  0.00    +0.000 A 
ATOM     18  C   UNL     1     104.904 124.684 139.176  0.00  0.00    +0.000 A 
ATOM     19  C   UNL     1     104.707 123.908 139.378  0.00  0.00    +0.000 A 
BRANCH  19  20
ATOM     20  O   UNL     1     104.253 123.451 138.862  0.00  0.00    +0.000 OA
BRANCH  20  22
ATOM     21  O   UNL     1     103.255 124.467 138.755  0.00  0.00    +0.000 OA
ATOM     22  C   UNL     1     103.621 123.791 138.456  0.00  0.00    +0.000 C 
BRANCH  22  23
ATOM     23  C   UNL     1     103.354 123.455 137.751  0.00  0.00    +0.000 C 
ATOM     24  C   UNL     1     103.893 123.258 137.158  0.00  0.00    +0.000 C 
ATOM     25  C   UNL     1     102.548 123.317 137.639  0.00  0.00    +0.000 C 
ATOM     26  C   UNL     1     102.010 123.514 138.232  0.00  0.00    +0.000 C 
ENDBRANCH  22  23
ENDBRANCH  20  22
ENDBRANCH  19  20
ENDBRANCH  11  14
BRANCH   4  27
ATOM     27  O   UNL     1     105.899 127.294 143.967  0.00  0.00    +0.000 OA
BRANCH  27  36
ATOM     28  O   UNL     1     105.955 126.177 144.857  0.00  0.00    +0.000 OA
ATOM     29  O   UNL     1     106.542 127.693 146.723  0.00  0.00    +0.000 OA
ATOM     30  O   UNL     1     106.402 126.071 146.990  0.00  0.00    +0.000 OA
ATOM     31  O   UNL     1     106.291 128.304 145.211  0.00  0.00    +0.000 OA
ATOM     32  C   UNL     1     106.346 127.187 146.101  0.00  0.00    +0.000 C 
ATOM     33  C   UNL     1     106.276 126.377 146.235  0.00  0.00    +0.000 C 
ATOM     34  C   UNL     1     106.221 127.494 145.345  0.00  0.00    +0.000 C 
ATOM     35  C   UNL     1     106.081 125.872 145.613  0.00  0.00    +0.000 C 
ATOM     36  C   UNL     1     106.025 126.988 144.723  0.00  0.00    +0.000 C 
BRANCH  35  38
ATOM     37  O   UNL     1     106.520 124.535 145.365  0.00  0.00    +0.000 OA
ATOM     38  C   UNL     1     106.010 125.061 145.746  0.00  0.00    +0.000 C 
ENDBRANCH  35  38
ENDBRANCH  27  36
ENDBRANCH   4  27
TORSDOF 7
ENDMDL
MODEL 9
REMARK VINA RESULT:      -9.2      7.759     10.573
REMARK  Name = 44258141
REMARK  7 active torsions:
REMARK  status: ('A' for Active; 'I' for Inactive)
REMARK    1  A    between atoms: O_2  and  C_17
REMARK    2  A    between atoms: O_2  and  C_19
REMARK    3  A    between atoms: O_10  and  C_33
REMARK    4  A    between atoms: O_10  and  C_34
REMARK    5  A    between atoms: C_16  and  C_18
REMARK    6  A    between atoms: C_26  and  C_28
REMARK    7  A    between atoms: C_34  and  C_35
REMARK                            x       y       z     vdW  Elec       q    Type
REMARK                         _______ _______ _______ _____ _____    ______ ____
ROOT
ATOM      1  O   UNL     1     103.375 130.257 141.943  0.00  0.00    +0.000 OA
ATOM      2  O   UNL     1     103.685 127.898 140.304  0.00  0.00    +0.000 OA
ATOM      3  O   UNL     1     102.838 128.988 139.887  0.00  0.00    +0.000 OA
ATOM      4  C   UNL     1     104.591 128.414 142.286  0.00  0.00    +0.000 A 
ATOM      5  C   UNL     1     104.241 129.188 142.410  0.00  0.00    +0.000 A 
ATOM      6  C   UNL     1     104.405 127.973 141.573  0.00  0.00    +0.000 A 
ATOM      7  C   UNL     1     103.709 129.512 141.819  0.00  0.00    +0.000 A 
ATOM      8  C   UNL     1     103.529 129.090 141.133  0.00  0.00    +0.000 A 
ATOM      9  C   UNL     1     103.870 128.313 140.992  0.00  0.00    +0.000 A 
ATOM     10  C   UNL     1     103.017 129.411 140.572  0.00  0.00    +0.000 A 
ATOM     11  C   UNL     1     102.863 130.578 141.382  0.00  0.00    +0.000 A 
ATOM     12  C   UNL     1     102.684 130.155 140.697  0.00  0.00    +0.000 A 
ENDROOT
BRANCH  11  14
ATOM     13  O   UNL     1     100.714 132.198 142.346  0.00  0.00    +0.000 OA
ATOM     14  C   UNL     1     102.529 131.322 141.506  0.00  0.00    +0.000 A 
ATOM     15  C   UNL     1     101.789 131.388 141.864  0.00  0.00    +0.000 A 
ATOM     16  C   UNL     1     102.936 132.001 141.273  0.00  0.00    +0.000 A 
ATOM     17  C   UNL     1     101.455 132.132 141.989  0.00  0.00    +0.000 A 
ATOM     18  C   UNL     1     102.603 132.745 141.397  0.00  0.00    +0.000 A 
ATOM     19  C   UNL     1     101.862 132.810 141.755  0.00  0.00    +0.000 A 
BRANCH  19  20
ATOM     20  O   UNL     1     101.528 133.555 141.879  0.00  0.00    +0.000 OA
BRANCH  20  22
ATOM     21  O   UNL     1     102.722 134.084 142.458  0.00  0.00    +0.000 OA
ATOM     22  C   UNL     1     102.011 134.200 142.056  0.00  0.00    +0.000 C 
BRANCH  22  23
ATOM     23  C   UNL     1     101.784 134.960 141.831  0.00  0.00    +0.000 C 
ATOM     24  C   UNL     1     101.705 135.148 141.031  0.00  0.00    +0.000 C 
ATOM     25  C   UNL     1     101.635 135.533 142.405  0.00  0.00    +0.000 C 
ATOM     26  C   UNL     1     101.714 135.346 143.205  0.00  0.00    +0.000 C 
ENDBRANCH  22  23
ENDBRANCH  20  22
ENDBRANCH  19  20
ENDBRANCH  11  14
BRANCH   4  27
ATOM     27  O   UNL     1     105.103 128.095 142.849  0.00  0.00    +0.000 OA
BRANCH  27  36
ATOM     28  O   UNL     1     106.316 128.609 142.295  0.00  0.00    +0.000 OA
ATOM     29  O   UNL     1     107.481 126.511 142.898  0.00  0.00    +0.000 OA
ATOM     30  O   UNL     1     108.305 127.724 142.144  0.00  0.00    +0.000 OA
ATOM     31  O   UNL     1     105.880 126.695 143.250  0.00  0.00    +0.000 OA
ATOM     32  C   UNL     1     107.093 127.210 142.697  0.00  0.00    +0.000 C 
ATOM     33  C   UNL     1     107.505 127.817 142.320  0.00  0.00    +0.000 C 
ATOM     34  C   UNL     1     106.292 127.302 142.873  0.00  0.00    +0.000 C 
ATOM     35  C   UNL     1     107.117 128.516 142.120  0.00  0.00    +0.000 C 
ATOM     36  C   UNL     1     105.904 128.002 142.673  0.00  0.00    +0.000 C 
BRANCH  35  38
ATOM     37  O   UNL     1     107.332 129.336 140.969  0.00  0.00    +0.000 OA
ATOM     38  C   UNL     1     107.528 129.124 141.743  0.00  0.00    +0.000 C 
ENDBRANCH  35  38
ENDBRANCH  27  36
ENDBRANCH   4  27
TORSDOF 7
ENDMDL
MODEL 10
REMARK VINA RESULT:      -9.2      1.916      3.194
REMARK  Name = 44258141
REMARK  7 active torsions:
REMARK  status: ('A' for Active; 'I' for Inactive)
REMARK    1  A    between atoms: O_2  and  C_17
REMARK    2  A    between atoms: O_2  and  C_19
REMARK    3  A    between atoms: O_10  and  C_33
REMARK    4  A    between atoms: O_10  and  C_34
REMARK    5  A    between atoms: C_16  and  C_18
REMARK    6  A    between atoms: C_26  and  C_28
REMARK    7  A    between atoms: C_34  and  C_35
REMARK                            x       y       z     vdW  Elec       q    Type
REMARK                         _______ _______ _______ _____ _____    ______ ____
ROOT
ATOM      1  O   UNL     1     111.110 129.217 137.804  0.00  0.00    +0.000 OA
ATOM      2  O   UNL     1     110.857 131.462 139.605  0.00  0.00    +0.000 OA
ATOM      3  O   UNL     1     111.992 130.574 139.677  0.00  0.00    +0.000 OA
ATOM      4  C   UNL     1     109.505 130.764 137.961  0.00  0.00    +0.000 A 
ATOM      5  C   UNL     1     109.947 130.079 137.689  0.00  0.00    +0.000 A 
ATOM      6  C   UNL     1     109.811 131.235 138.611  0.00  0.00    +0.000 A 
ATOM      7  C   UNL     1     110.690 129.875 138.070  0.00  0.00    +0.000 A 
ATOM      8  C   UNL     1     110.984 130.327 138.695  0.00  0.00    +0.000 A 
ATOM      9  C   UNL     1     110.555 131.015 138.980  0.00  0.00    +0.000 A 
ATOM     10  C   UNL     1     111.698 130.122 139.053  0.00  0.00    +0.000 A 
ATOM     11  C   UNL     1     111.824 129.011 138.163  0.00  0.00    +0.000 A 
ATOM     12  C   UNL     1     112.118 129.464 138.787  0.00  0.00    +0.000 A 
ENDROOT
BRANCH  11  14
ATOM     13  O   UNL     1     113.489 127.764 136.202  0.00  0.00    +0.000 OA
ATOM     14  C   UNL     1     112.245 128.353 137.897  0.00  0.00    +0.000 A 
ATOM     15  C   UNL     1     112.657 128.387 137.183  0.00  0.00    +0.000 A 
ATOM     16  C   UNL     1     112.254 127.660 138.345  0.00  0.00    +0.000 A 
ATOM     17  C   UNL     1     113.077 127.730 136.916  0.00  0.00    +0.000 A 
ATOM     18  C   UNL     1     112.674 127.002 138.079  0.00  0.00    +0.000 A 
ATOM     19  C   UNL     1     113.086 127.037 137.365  0.00  0.00    +0.000 A 
BRANCH  19  20
ATOM     20  O   UNL     1     113.506 126.379 137.099  0.00  0.00    +0.000 OA
BRANCH  20  22
ATOM     21  O   UNL     1     112.612 125.493 137.774  0.00  0.00    +0.000 OA
ATOM     22  C   UNL     1     113.334 125.630 137.398  0.00  0.00    +0.000 C 
BRANCH  22  23
ATOM     23  C   UNL     1     113.882 125.018 137.321  0.00  0.00    +0.000 C 
ATOM     24  C   UNL     1     114.632 125.092 137.656  0.00  0.00    +0.000 C 
ATOM     25  C   UNL     1     113.679 124.332 136.910  0.00  0.00    +0.000 C 
ATOM     26  C   UNL     1     112.928 124.258 136.576  0.00  0.00    +0.000 C 
ENDBRANCH  22  23
ENDBRANCH  20  22
ENDBRANCH  19  20
ENDBRANCH  11  14
BRANCH   4  27
ATOM     27  O   UNL     1     108.792 130.967 137.601  0.00  0.00    +0.000 OA
BRANCH  27  36
ATOM     28  O   UNL     1     109.365 131.938 136.723  0.00  0.00    +0.000 OA
ATOM     29  O   UNL     1     107.654 131.403 135.016  0.00  0.00    +0.000 OA
ATOM     30  O   UNL     1     108.796 132.552 134.707  0.00  0.00    +0.000 OA
ATOM     31  O   UNL     1     107.651 130.611 136.463  0.00  0.00    +0.000 OA
ATOM     32  C   UNL     1     108.224 131.581 135.585  0.00  0.00    +0.000 C 
ATOM     33  C   UNL     1     108.795 132.155 135.430  0.00  0.00    +0.000 C 
ATOM     34  C   UNL     1     108.222 131.185 136.309  0.00  0.00    +0.000 C 
ATOM     35  C   UNL     1     109.365 132.334 135.999  0.00  0.00    +0.000 C 
ATOM     36  C   UNL     1     108.792 131.363 136.877  0.00  0.00    +0.000 C 
BRANCH  35  38
ATOM     37  O   UNL     1     110.152 133.444 136.435  0.00  0.00    +0.000 OA
ATOM     38  C   UNL     1     109.937 132.908 135.845  0.00  0.00    +0.000 C 
ENDBRANCH  35  38
ENDBRANCH  27  36
ENDBRANCH   4  27
TORSDOF 7
ENDMDL
