MODEL 1
REMARK VINA RESULT:      -9.2      0.000      0.000
REMARK  Name = 44258464
REMARK  4 active torsions:
REMARK  status: ('A' for Active; 'I' for Inactive)
REMARK    1  A    between atoms: O_2  and  C_15
REMARK    2  A    between atoms: O_2  and  C_17
REMARK    3  A    between atoms: O_7  and  C_18
REMARK    4  A    between atoms: C_24  and  C_26
REMARK                            x       y       z     vdW  Elec       q    Type
REMARK                         _______ _______ _______ _____ _____    ______ ____
ROOT
ATOM      1  O   UNL     1     104.136 124.465 145.983  0.00  0.00    +0.000 OA
ATOM      2  O   UNL     1     106.110 125.259 147.945  0.00  0.00    +0.000 OA
ATOM      3  O   UNL     1     104.891 124.631 148.395  0.00  0.00    +0.000 OA
ATOM      4  C   UNL     1     106.109 125.439 145.770  0.00  0.00    +0.000 A 
ATOM      5  C   UNL     1     106.352 125.492 146.557  0.00  0.00    +0.000 A 
ATOM      6  C   UNL     1     105.380 125.101 145.586  0.00  0.00    +0.000 A 
ATOM      7  C   UNL     1     104.894 124.815 146.188  0.00  0.00    +0.000 A 
ATOM      8  C   UNL     1     105.137 124.868 146.974  0.00  0.00    +0.000 A 
ATOM      9  C   UNL     1     105.866 125.206 147.159  0.00  0.00    +0.000 A 
ATOM     10  C   UNL     1     104.640 124.574 147.610  0.00  0.00    +0.000 A 
ATOM     11  C   UNL     1     103.625 124.165 146.605  0.00  0.00    +0.000 A 
ATOM     12  C   UNL     1     103.879 124.220 147.425  0.00  0.00    +0.000 A 
ENDROOT
BRANCH  11  14
ATOM     13  O   UNL     1     100.710 122.812 145.857  0.00  0.00    +0.000 OA
ATOM     14  C   UNL     1     102.896 123.827 146.418  0.00  0.00    +0.000 A 
ATOM     15  C   UNL     1     102.197 124.223 146.606  0.00  0.00    +0.000 A 
ATOM     16  C   UNL     1     102.866 123.092 146.044  0.00  0.00    +0.000 A 
ATOM     17  C   UNL     1     101.468 123.885 146.418  0.00  0.00    +0.000 A 
ATOM     18  C   UNL     1     102.138 122.754 145.857  0.00  0.00    +0.000 A 
ATOM     19  C   UNL     1     101.439 123.150 146.044  0.00  0.00    +0.000 A 
ENDBRANCH  11  14
BRANCH   5  20
ATOM     20  O   UNL     1     107.082 125.831 146.740  0.00  0.00    +0.000 OA
ATOM     21  C   UNL     1     107.655 125.385 147.132  0.00  0.00    +0.000 C 
ENDBRANCH   5  20
BRANCH   4  22
ATOM     22  O   UNL     1     106.595 125.725 145.167  0.00  0.00    +0.000 OA
BRANCH  22  31
ATOM     23  O   UNL     1     105.920 126.940 144.835  0.00  0.00    +0.000 OA
ATOM     24  O   UNL     1     106.110 126.387 142.430  0.00  0.00    +0.000 OA
ATOM     25  O   UNL     1     105.371 127.786 142.899  0.00  0.00    +0.000 OA
ATOM     26  O   UNL     1     106.722 125.357 143.564  0.00  0.00    +0.000 OA
ATOM     27  C   UNL     1     106.047 126.571 143.231  0.00  0.00    +0.000 C 
ATOM     28  C   UNL     1     105.677 127.270 143.466  0.00  0.00    +0.000 C 
ATOM     29  C   UNL     1     106.352 126.057 143.799  0.00  0.00    +0.000 C 
ATOM     30  C   UNL     1     105.614 127.455 144.268  0.00  0.00    +0.000 C 
ATOM     31  C   UNL     1     106.289 126.241 144.600  0.00  0.00    +0.000 C 
ATOM     32  C   UNL     1     105.245 128.155 144.502  0.00  0.00    +0.000 C 
ENDBRANCH  22  31
ENDBRANCH   4  22
TORSDOF 4
ENDMDL
MODEL 2
REMARK VINA RESULT:      -9.1     10.549     13.215
REMARK  Name = 44258464
REMARK  4 active torsions:
REMARK  status: ('A' for Active; 'I' for Inactive)
REMARK    1  A    between atoms: O_2  and  C_15
REMARK    2  A    between atoms: O_2  and  C_17
REMARK    3  A    between atoms: O_7  and  C_18
REMARK    4  A    between atoms: C_24  and  C_26
REMARK                            x       y       z     vdW  Elec       q    Type
REMARK                         _______ _______ _______ _____ _____    ______ ____
ROOT
ATOM      1  O   UNL     1     112.730 128.920 135.652  0.00  0.00    +0.000 OA
ATOM      2  O   UNL     1     112.256 126.220 136.581  0.00  0.00    +0.000 OA
ATOM      3  O   UNL     1     113.614 126.698 136.486  0.00  0.00    +0.000 OA
ATOM      4  C   UNL     1     110.861 127.778 135.954  0.00  0.00    +0.000 A 
ATOM      5  C   UNL     1     111.152 127.055 136.226  0.00  0.00    +0.000 A 
ATOM      6  C   UNL     1     111.383 128.388 135.767  0.00  0.00    +0.000 A 
ATOM      7  C   UNL     1     112.197 128.276 135.851  0.00  0.00    +0.000 A 
ATOM      8  C   UNL     1     112.487 127.554 136.122  0.00  0.00    +0.000 A 
ATOM      9  C   UNL     1     111.965 126.943 136.310  0.00  0.00    +0.000 A 
ATOM     10  C   UNL     1     113.332 127.425 136.214  0.00  0.00    +0.000 A 
ATOM     11  C   UNL     1     113.578 128.810 135.737  0.00  0.00    +0.000 A 
ATOM     12  C   UNL     1     113.881 128.056 136.020  0.00  0.00    +0.000 A 
ENDROOT
BRANCH  11  14
ATOM     13  O   UNL     1     115.657 131.260 134.986  0.00  0.00    +0.000 OA
ATOM     14  C   UNL     1     114.097 129.423 135.549  0.00  0.00    +0.000 A 
ATOM     15  C   UNL     1     114.442 129.456 134.800  0.00  0.00    +0.000 A 
ATOM     16  C   UNL     1     114.273 130.002 136.110  0.00  0.00    +0.000 A 
ATOM     17  C   UNL     1     114.962 130.068 134.612  0.00  0.00    +0.000 A 
ATOM     18  C   UNL     1     114.792 130.614 135.923  0.00  0.00    +0.000 A 
ATOM     19  C   UNL     1     115.137 130.647 135.174  0.00  0.00    +0.000 A 
ENDBRANCH  11  14
BRANCH   5  20
ATOM     20  O   UNL     1     110.630 126.444 136.413  0.00  0.00    +0.000 OA
ATOM     21  C   UNL     1     110.579 125.782 135.924  0.00  0.00    +0.000 C 
ENDBRANCH   5  20
BRANCH   4  22
ATOM     22  O   UNL     1     110.048 127.890 135.870  0.00  0.00    +0.000 OA
BRANCH  22  31
ATOM     23  O   UNL     1     109.861 128.761 136.987  0.00  0.00    +0.000 OA
ATOM     24  O   UNL     1     108.245 130.098 135.674  0.00  0.00    +0.000 OA
ATOM     25  O   UNL     1     108.597 130.524 137.229  0.00  0.00    +0.000 OA
ATOM     26  O   UNL     1     108.971 128.781 134.994  0.00  0.00    +0.000 OA
ATOM     27  C   UNL     1     108.784 129.653 136.111  0.00  0.00    +0.000 C 
ATOM     28  C   UNL     1     108.960 129.865 136.889  0.00  0.00    +0.000 C 
ATOM     29  C   UNL     1     109.147 128.994 135.772  0.00  0.00    +0.000 C 
ATOM     30  C   UNL     1     109.499 129.419 137.326  0.00  0.00    +0.000 C 
ATOM     31  C   UNL     1     109.685 128.548 136.210  0.00  0.00    +0.000 C 
ATOM     32  C   UNL     1     109.674 129.632 138.104  0.00  0.00    +0.000 C 
ENDBRANCH  22  31
ENDBRANCH   4  22
TORSDOF 4
ENDMDL
MODEL 3
REMARK VINA RESULT:      -9.0     11.072     12.300
REMARK  Name = 44258464
REMARK  4 active torsions:
REMARK  status: ('A' for Active; 'I' for Inactive)
REMARK    1  A    between atoms: O_2  and  C_15
REMARK    2  A    between atoms: O_2  and  C_17
REMARK    3  A    between atoms: O_7  and  C_18
REMARK    4  A    between atoms: C_24  and  C_26
REMARK                            x       y       z     vdW  Elec       q    Type
REMARK                         _______ _______ _______ _____ _____    ______ ____
ROOT
ATOM      1  O   UNL     1     112.098 127.179 136.733  0.00  0.00    +0.000 OA
ATOM      2  O   UNL     1     113.977 129.264 136.029  0.00  0.00    +0.000 OA
ATOM      3  O   UNL     1     114.390 127.886 135.920  0.00  0.00    +0.000 OA
ATOM      4  C   UNL     1     111.917 129.383 136.742  0.00  0.00    +0.000 A 
ATOM      5  C   UNL     1     112.665 129.610 136.476  0.00  0.00    +0.000 A 
ATOM      6  C   UNL     1     111.736 128.582 136.824  0.00  0.00    +0.000 A 
ATOM      7  C   UNL     1     112.301 128.009 136.642  0.00  0.00    +0.000 A 
ATOM      8  C   UNL     1     113.047 128.237 136.377  0.00  0.00    +0.000 A 
ATOM      9  C   UNL     1     113.230 129.037 136.294  0.00  0.00    +0.000 A 
ATOM     10  C   UNL     1     113.644 127.650 136.185  0.00  0.00    +0.000 A 
ATOM     11  C   UNL     1     112.682 126.577 136.545  0.00  0.00    +0.000 A 
ATOM     12  C   UNL     1     113.461 126.815 136.269  0.00  0.00    +0.000 A 
ENDROOT
BRANCH  11  14
ATOM     13  O   UNL     1     111.942 123.379 136.883  0.00  0.00    +0.000 OA
ATOM     14  C   UNL     1     112.497 125.778 136.630  0.00  0.00    +0.000 A 
ATOM     15  C   UNL     1     111.913 125.437 136.156  0.00  0.00    +0.000 A 
ATOM     16  C   UNL     1     112.896 125.319 137.187  0.00  0.00    +0.000 A 
ATOM     17  C   UNL     1     111.728 124.638 136.240  0.00  0.00    +0.000 A 
ATOM     18  C   UNL     1     112.711 124.519 137.272  0.00  0.00    +0.000 A 
ATOM     19  C   UNL     1     112.127 124.179 136.798  0.00  0.00    +0.000 A 
ENDBRANCH  11  14
BRANCH   5  20
ATOM     20  O   UNL     1     112.847 130.410 136.393  0.00  0.00    +0.000 OA
ATOM     21  C   UNL     1     113.359 130.773 136.928  0.00  0.00    +0.000 C 
ENDBRANCH   5  20
BRANCH   4  22
ATOM     22  O   UNL     1     111.352 129.956 136.924  0.00  0.00    +0.000 OA
BRANCH  22  31
ATOM     23  O   UNL     1     110.482 129.780 135.804  0.00  0.00    +0.000 OA
ATOM     24  O   UNL     1     108.520 129.950 137.302  0.00  0.00    +0.000 OA
ATOM     25  O   UNL     1     108.304 129.718 135.682  0.00  0.00    +0.000 OA
ATOM     26  O   UNL     1     110.044 130.068 137.922  0.00  0.00    +0.000 OA
ATOM     27  C   UNL     1     109.174 129.893 136.802  0.00  0.00    +0.000 C 
ATOM     28  C   UNL     1     109.067 129.777 135.993  0.00  0.00    +0.000 C 
ATOM     29  C   UNL     1     109.936 129.953 137.112  0.00  0.00    +0.000 C 
ATOM     30  C   UNL     1     109.721 129.721 135.493  0.00  0.00    +0.000 C 
ATOM     31  C   UNL     1     110.590 129.896 136.613  0.00  0.00    +0.000 C 
ATOM     32  C   UNL     1     109.612 129.605 134.684  0.00  0.00    +0.000 C 
ENDBRANCH  22  31
ENDBRANCH   4  22
TORSDOF 4
ENDMDL
MODEL 4
REMARK VINA RESULT:      -9.0      1.157      4.554
REMARK  Name = 44258464
REMARK  4 active torsions:
REMARK  status: ('A' for Active; 'I' for Inactive)
REMARK    1  A    between atoms: O_2  and  C_15
REMARK    2  A    between atoms: O_2  and  C_17
REMARK    3  A    between atoms: O_7  and  C_18
REMARK    4  A    between atoms: C_24  and  C_26
REMARK                            x       y       z     vdW  Elec       q    Type
REMARK                         _______ _______ _______ _____ _____    ______ ____
ROOT
ATOM      1  O   UNL     1     105.103 126.405 145.330  0.00  0.00    +0.000 OA
ATOM      2  O   UNL     1     107.106 125.277 147.087  0.00  0.00    +0.000 OA
ATOM      3  O   UNL     1     107.476 126.363 146.213  0.00  0.00    +0.000 OA
ATOM      4  C   UNL     1     105.001 124.767 146.811  0.00  0.00    +0.000 A 
ATOM      5  C   UNL     1     105.776 124.756 147.097  0.00  0.00    +0.000 A 
ATOM      6  C   UNL     1     104.785 125.311 146.230  0.00  0.00    +0.000 A 
ATOM      7  C   UNL     1     105.342 125.844 145.935  0.00  0.00    +0.000 A 
ATOM      8  C   UNL     1     106.115 125.832 146.220  0.00  0.00    +0.000 A 
ATOM      9  C   UNL     1     106.333 125.288 146.802  0.00  0.00    +0.000 A 
ATOM     10  C   UNL     1     106.703 126.382 145.921  0.00  0.00    +0.000 A 
ATOM     11  C   UNL     1     105.677 126.963 145.018  0.00  0.00    +0.000 A 
ATOM     12  C   UNL     1     106.484 126.951 145.316  0.00  0.00    +0.000 A 
ENDROOT
BRANCH  11  14
ATOM     13  O   UNL     1     104.798 129.133 142.693  0.00  0.00    +0.000 OA
ATOM     14  C   UNL     1     105.458 127.505 144.437  0.00  0.00    +0.000 A 
ATOM     15  C   UNL     1     105.180 128.252 144.653  0.00  0.00    +0.000 A 
ATOM     16  C   UNL     1     105.515 127.302 143.639  0.00  0.00    +0.000 A 
ATOM     17  C   UNL     1     104.960 128.795 144.072  0.00  0.00    +0.000 A 
ATOM     18  C   UNL     1     105.295 127.844 143.058  0.00  0.00    +0.000 A 
ATOM     19  C   UNL     1     105.018 128.590 143.274  0.00  0.00    +0.000 A 
ENDBRANCH  11  14
BRANCH   5  20
ATOM     20  O   UNL     1     105.992 124.212 147.678  0.00  0.00    +0.000 OA
ATOM     21  C   UNL     1     106.226 124.477 148.423  0.00  0.00    +0.000 C 
ENDBRANCH   5  20
BRANCH   4  22
ATOM     22  O   UNL     1     104.445 124.234 147.106  0.00  0.00    +0.000 OA
BRANCH  22  31
ATOM     23  O   UNL     1     104.201 123.487 145.913  0.00  0.00    +0.000 OA
ATOM     24  O   UNL     1     101.776 123.488 146.409  0.00  0.00    +0.000 OA
ATOM     25  O   UNL     1     102.340 122.740 145.050  0.00  0.00    +0.000 OA
ATOM     26  O   UNL     1     102.828 124.235 147.437  0.00  0.00    +0.000 OA
ATOM     27  C   UNL     1     102.584 123.488 146.243  0.00  0.00    +0.000 C 
ATOM     28  C   UNL     1     102.867 123.114 145.564  0.00  0.00    +0.000 C 
ATOM     29  C   UNL     1     103.111 123.861 146.757  0.00  0.00    +0.000 C 
ATOM     30  C   UNL     1     103.675 123.114 145.399  0.00  0.00    +0.000 C 
ATOM     31  C   UNL     1     103.919 123.861 146.592  0.00  0.00    +0.000 C 
ATOM     32  C   UNL     1     103.956 122.740 144.720  0.00  0.00    +0.000 C 
ENDBRANCH  22  31
ENDBRANCH   4  22
TORSDOF 4
ENDMDL
MODEL 5
REMARK VINA RESULT:      -8.9      8.608     11.488
REMARK  Name = 44258464
REMARK  4 active torsions:
REMARK  status: ('A' for Active; 'I' for Inactive)
REMARK    1  A    between atoms: O_2  and  C_15
REMARK    2  A    between atoms: O_2  and  C_17
REMARK    3  A    between atoms: O_7  and  C_18
REMARK    4  A    between atoms: C_24  and  C_26
REMARK                            x       y       z     vdW  Elec       q    Type
REMARK                         _______ _______ _______ _____ _____    ______ ____
ROOT
ATOM      1  O   UNL     1     113.500 126.477 138.451  0.00  0.00    +0.000 OA
ATOM      2  O   UNL     1     110.911 126.090 139.684  0.00  0.00    +0.000 OA
ATOM      3  O   UNL     1     111.299 125.232 138.591  0.00  0.00    +0.000 OA
ATOM      4  C   UNL     1     112.496 127.527 140.118  0.00  0.00    +0.000 A 
ATOM      5  C   UNL     1     111.780 127.119 140.161  0.00  0.00    +0.000 A 
ATOM      6  C   UNL     1     113.059 127.312 139.554  0.00  0.00    +0.000 A 
ATOM      7  C   UNL     1     112.905 126.691 139.033  0.00  0.00    +0.000 A 
ATOM      8  C   UNL     1     112.190 126.284 139.077  0.00  0.00    +0.000 A 
ATOM      9  C   UNL     1     111.626 126.497 139.641  0.00  0.00    +0.000 A 
ATOM     10  C   UNL     1     112.019 125.635 138.541  0.00  0.00    +0.000 A 
ATOM     11  C   UNL     1     113.347 125.831 137.906  0.00  0.00    +0.000 A 
ATOM     12  C   UNL     1     112.600 125.406 137.951  0.00  0.00    +0.000 A 
ENDROOT
BRANCH  11  14
ATOM     13  O   UNL     1     115.605 124.983 135.654  0.00  0.00    +0.000 OA
ATOM     14  C   UNL     1     113.911 125.619 137.343  0.00  0.00    +0.000 A 
ATOM     15  C   UNL     1     114.410 124.976 137.480  0.00  0.00    +0.000 A 
ATOM     16  C   UNL     1     113.978 126.050 136.643  0.00  0.00    +0.000 A 
ATOM     17  C   UNL     1     114.974 124.764 136.917  0.00  0.00    +0.000 A 
ATOM     18  C   UNL     1     114.542 125.839 136.079  0.00  0.00    +0.000 A 
ATOM     19  C   UNL     1     115.040 125.195 136.217  0.00  0.00    +0.000 A 
ENDBRANCH  11  14
BRANCH   5  20
ATOM     20  O   UNL     1     111.217 127.334 140.725  0.00  0.00    +0.000 OA
ATOM     21  C   UNL     1     111.067 126.837 141.366  0.00  0.00    +0.000 C 
ENDBRANCH   5  20
BRANCH   4  22
ATOM     22  O   UNL     1     112.650 128.148 140.638  0.00  0.00    +0.000 OA
BRANCH  22  31
ATOM     23  O   UNL     1     112.632 129.253 139.731  0.00  0.00    +0.000 OA
ATOM     24  O   UNL     1     114.699 130.136 140.768  0.00  0.00    +0.000 OA
ATOM     25  O   UNL     1     113.993 130.946 139.516  0.00  0.00    +0.000 OA
ATOM     26  O   UNL     1     114.027 128.737 141.329  0.00  0.00    +0.000 OA
ATOM     27  C   UNL     1     114.010 129.842 140.422  0.00  0.00    +0.000 C 
ATOM     28  C   UNL     1     113.657 130.246 139.796  0.00  0.00    +0.000 C 
ATOM     29  C   UNL     1     113.674 129.142 140.703  0.00  0.00    +0.000 C 
ATOM     30  C   UNL     1     112.968 129.951 139.451  0.00  0.00    +0.000 C 
ATOM     31  C   UNL     1     112.985 128.848 140.357  0.00  0.00    +0.000 C 
ATOM     32  C   UNL     1     112.615 130.357 138.824  0.00  0.00    +0.000 C 
ENDBRANCH  22  31
ENDBRANCH   4  22
TORSDOF 4
ENDMDL
MODEL 6
REMARK VINA RESULT:      -8.9      8.878     11.780
REMARK  Name = 44258464
REMARK  4 active torsions:
REMARK  status: ('A' for Active; 'I' for Inactive)
REMARK    1  A    between atoms: O_2  and  C_15
REMARK    2  A    between atoms: O_2  and  C_17
REMARK    3  A    between atoms: O_7  and  C_18
REMARK    4  A    between atoms: C_24  and  C_26
REMARK                            x       y       z     vdW  Elec       q    Type
REMARK                         _______ _______ _______ _____ _____    ______ ____
ROOT
ATOM      1  O   UNL     1     111.036 127.357 136.159  0.00  0.00    +0.000 OA
ATOM      2  O   UNL     1     110.910 124.497 135.735  0.00  0.00    +0.000 OA
ATOM      3  O   UNL     1     110.170 125.367 134.853  0.00  0.00    +0.000 OA
ATOM      4  C   UNL     1     111.980 125.669 137.232  0.00  0.00    +0.000 A 
ATOM      5  C   UNL     1     111.696 125.023 136.804  0.00  0.00    +0.000 A 
ATOM      6  C   UNL     1     111.760 126.435 137.016  0.00  0.00    +0.000 A 
ATOM      7  C   UNL     1     111.257 126.554 136.374  0.00  0.00    +0.000 A 
ATOM      8  C   UNL     1     110.974 125.908 135.947  0.00  0.00    +0.000 A 
ATOM      9  C   UNL     1     111.193 125.142 136.162  0.00  0.00    +0.000 A 
ATOM     10  C   UNL     1     110.450 126.020 135.275  0.00  0.00    +0.000 A 
ATOM     11  C   UNL     1     110.513 127.488 135.491  0.00  0.00    +0.000 A 
ATOM     12  C   UNL     1     110.217 126.814 135.045  0.00  0.00    +0.000 A 
ENDROOT
BRANCH  11  14
ATOM     13  O   UNL     1     109.643 130.554 134.637  0.00  0.00    +0.000 OA
ATOM     14  C   UNL     1     110.295 128.255 135.278  0.00  0.00    +0.000 A 
ATOM     15  C   UNL     1     109.566 128.557 135.515  0.00  0.00    +0.000 A 
ATOM     16  C   UNL     1     110.807 128.719 134.827  0.00  0.00    +0.000 A 
ATOM     17  C   UNL     1     109.348 129.324 135.302  0.00  0.00    +0.000 A 
ATOM     18  C   UNL     1     110.591 129.485 134.613  0.00  0.00    +0.000 A 
ATOM     19  C   UNL     1     109.861 129.788 134.851  0.00  0.00    +0.000 A 
ENDBRANCH  11  14
BRANCH   5  20
ATOM     20  O   UNL     1     111.916 124.258 137.020  0.00  0.00    +0.000 OA
ATOM     21  C   UNL     1     112.439 123.831 136.547  0.00  0.00    +0.000 C 
ENDBRANCH   5  20
BRANCH   4  22
ATOM     22  O   UNL     1     112.483 125.550 137.875  0.00  0.00    +0.000 OA
BRANCH  22  31
ATOM     23  O   UNL     1     111.597 125.968 138.915  0.00  0.00    +0.000 OA
ATOM     24  O   UNL     1     113.467 127.138 140.038  0.00  0.00    +0.000 OA
ATOM     25  O   UNL     1     111.957 127.167 140.704  0.00  0.00    +0.000 OA
ATOM     26  O   UNL     1     113.730 126.330 138.624  0.00  0.00    +0.000 OA
ATOM     27  C   UNL     1     112.843 126.748 139.664  0.00  0.00    +0.000 C 
ATOM     28  C   UNL     1     112.089 126.762 139.996  0.00  0.00    +0.000 C 
ATOM     29  C   UNL     1     112.974 126.344 138.957  0.00  0.00    +0.000 C 
ATOM     30  C   UNL     1     111.465 126.372 139.622  0.00  0.00    +0.000 C 
ATOM     31  C   UNL     1     112.351 125.954 138.582  0.00  0.00    +0.000 C 
ATOM     32  C   UNL     1     110.711 126.387 139.955  0.00  0.00    +0.000 C 
ENDBRANCH  22  31
ENDBRANCH   4  22
TORSDOF 4
ENDMDL
MODEL 7
REMARK VINA RESULT:      -8.9     10.507     11.535
REMARK  Name = 44258464
REMARK  4 active torsions:
REMARK  status: ('A' for Active; 'I' for Inactive)
REMARK    1  A    between atoms: O_2  and  C_15
REMARK    2  A    between atoms: O_2  and  C_17
REMARK    3  A    between atoms: O_7  and  C_18
REMARK    4  A    between atoms: C_24  and  C_26
REMARK                            x       y       z     vdW  Elec       q    Type
REMARK                         _______ _______ _______ _____ _____    ______ ____
ROOT
ATOM      1  O   UNL     1     110.919 127.116 136.659  0.00  0.00    +0.000 OA
ATOM      2  O   UNL     1     108.449 128.549 136.186  0.00  0.00    +0.000 OA
ATOM      3  O   UNL     1     108.420 127.108 136.251  0.00  0.00    +0.000 OA
ATOM      4  C   UNL     1     110.485 129.277 136.485  0.00  0.00    +0.000 A 
ATOM      5  C   UNL     1     109.670 129.271 136.352  0.00  0.00    +0.000 A 
ATOM      6  C   UNL     1     110.891 128.566 136.585  0.00  0.00    +0.000 A 
ATOM      7  C   UNL     1     110.484 127.850 136.553  0.00  0.00    +0.000 A 
ATOM      8  C   UNL     1     109.670 127.844 136.420  0.00  0.00    +0.000 A 
ATOM      9  C   UNL     1     109.263 128.555 136.319  0.00  0.00    +0.000 A 
ATOM     10  C   UNL     1     109.235 127.104 136.384  0.00  0.00    +0.000 A 
ATOM     11  C   UNL     1     110.501 126.367 136.627  0.00  0.00    +0.000 A 
ATOM     12  C   UNL     1     109.652 126.361 136.488  0.00  0.00    +0.000 A 
ENDROOT
BRANCH  11  14
ATOM     13  O   UNL     1     112.138 123.530 137.031  0.00  0.00    +0.000 OA
ATOM     14  C   UNL     1     110.910 125.657 136.728  0.00  0.00    +0.000 A 
ATOM     15  C   UNL     1     111.141 125.217 136.069  0.00  0.00    +0.000 A 
ATOM     16  C   UNL     1     111.088 125.388 137.487  0.00  0.00    +0.000 A 
ATOM     17  C   UNL     1     111.550 124.508 136.170  0.00  0.00    +0.000 A 
ATOM     18  C   UNL     1     111.497 124.680 137.589  0.00  0.00    +0.000 A 
ATOM     19  C   UNL     1     111.728 124.239 136.930  0.00  0.00    +0.000 A 
ENDBRANCH  11  14
BRANCH   5  20
ATOM     20  O   UNL     1     109.264 129.982 136.251  0.00  0.00    +0.000 OA
ATOM     21  C   UNL     1     108.985 130.194 135.505  0.00  0.00    +0.000 C 
ENDBRANCH   5  20
BRANCH   4  22
ATOM     22  O   UNL     1     110.893 129.994 136.517  0.00  0.00    +0.000 OA
BRANCH  22  31
ATOM     23  O   UNL     1     111.078 130.076 137.932  0.00  0.00    +0.000 OA
ATOM     24  O   UNL     1     113.397 130.867 137.582  0.00  0.00    +0.000 OA
ATOM     25  O   UNL     1     112.809 130.685 139.113  0.00  0.00    +0.000 OA
ATOM     26  O   UNL     1     112.439 130.521 136.284  0.00  0.00    +0.000 OA
ATOM     27  C   UNL     1     112.624 130.603 137.698  0.00  0.00    +0.000 C 
ATOM     28  C   UNL     1     112.330 130.512 138.464  0.00  0.00    +0.000 C 
ATOM     29  C   UNL     1     112.144 130.430 137.050  0.00  0.00    +0.000 C 
ATOM     30  C   UNL     1     111.557 130.249 138.580  0.00  0.00    +0.000 C 
ATOM     31  C   UNL     1     111.371 130.167 137.167  0.00  0.00    +0.000 C 
ATOM     32  C   UNL     1     111.263 130.158 139.346  0.00  0.00    +0.000 C 
ENDBRANCH  22  31
ENDBRANCH   4  22
TORSDOF 4
ENDMDL
MODEL 8
REMARK VINA RESULT:      -8.7     10.041     12.443
REMARK  Name = 44258464
REMARK  4 active torsions:
REMARK  status: ('A' for Active; 'I' for Inactive)
REMARK    1  A    between atoms: O_2  and  C_15
REMARK    2  A    between atoms: O_2  and  C_17
REMARK    3  A    between atoms: O_7  and  C_18
REMARK    4  A    between atoms: C_24  and  C_26
REMARK                            x       y       z     vdW  Elec       q    Type
REMARK                         _______ _______ _______ _____ _____    ______ ____
ROOT
ATOM      1  O   UNL     1     113.087 127.584 137.365  0.00  0.00    +0.000 OA
ATOM      2  O   UNL     1     113.873 130.073 136.115  0.00  0.00    +0.000 OA
ATOM      3  O   UNL     1     114.196 128.829 135.459  0.00  0.00    +0.000 OA
ATOM      4  C   UNL     1     112.815 129.689 137.985  0.00  0.00    +0.000 A 
ATOM      5  C   UNL     1     113.177 130.092 137.362  0.00  0.00    +0.000 A 
ATOM      6  C   UNL     1     112.787 128.865 137.981  0.00  0.00    +0.000 A 
ATOM      7  C   UNL     1     113.122 128.443 137.356  0.00  0.00    +0.000 A 
ATOM      8  C   UNL     1     113.484 128.846 136.734  0.00  0.00    +0.000 A 
ATOM      9  C   UNL     1     113.511 129.671 136.737  0.00  0.00    +0.000 A 
ATOM     10  C   UNL     1     113.835 128.418 136.078  0.00  0.00    +0.000 A 
ATOM     11  C   UNL     1     113.433 127.139 136.717  0.00  0.00    +0.000 A 
ATOM     12  C   UNL     1     113.811 127.560 136.068  0.00  0.00    +0.000 A 
ENDROOT
BRANCH  11  14
ATOM     13  O   UNL     1     113.317 123.842 136.715  0.00  0.00    +0.000 OA
ATOM     14  C   UNL     1     113.404 126.315 136.716  0.00  0.00    +0.000 A 
ATOM     15  C   UNL     1     114.048 125.879 136.993  0.00  0.00    +0.000 A 
ATOM     16  C   UNL     1     112.732 125.926 136.440  0.00  0.00    +0.000 A 
ATOM     17  C   UNL     1     114.019 125.055 136.992  0.00  0.00    +0.000 A 
ATOM     18  C   UNL     1     112.702 125.102 136.439  0.00  0.00    +0.000 A 
ATOM     19  C   UNL     1     113.346 124.666 136.715  0.00  0.00    +0.000 A 
ENDBRANCH  11  14
BRANCH   5  20
ATOM     20  O   UNL     1     113.204 130.917 137.365  0.00  0.00    +0.000 OA
ATOM     21  C   UNL     1     112.710 131.346 136.864  0.00  0.00    +0.000 C 
ENDBRANCH   5  20
BRANCH   4  22
ATOM     22  O   UNL     1     112.480 130.111 138.610  0.00  0.00    +0.000 OA
BRANCH  22  31
ATOM     23  O   UNL     1     113.431 129.794 139.629  0.00  0.00    +0.000 OA
ATOM     24  O   UNL     1     111.587 129.456 141.245  0.00  0.00    +0.000 OA
ATOM     25  O   UNL     1     113.153 129.252 141.725  0.00  0.00    +0.000 OA
ATOM     26  O   UNL     1     111.251 129.885 139.687  0.00  0.00    +0.000 OA
ATOM     27  C   UNL     1     112.202 129.569 140.706  0.00  0.00    +0.000 C 
ATOM     28  C   UNL     1     112.985 129.467 140.945  0.00  0.00    +0.000 C 
ATOM     29  C   UNL     1     112.034 129.783 139.927  0.00  0.00    +0.000 C 
ATOM     30  C   UNL     1     113.599 129.580 140.407  0.00  0.00    +0.000 C 
ATOM     31  C   UNL     1     112.649 129.896 139.389  0.00  0.00    +0.000 C 
ATOM     32  C   UNL     1     114.382 129.478 140.647  0.00  0.00    +0.000 C 
ENDBRANCH  22  31
ENDBRANCH   4  22
TORSDOF 4
ENDMDL
MODEL 9
REMARK VINA RESULT:      -8.7     10.299     12.045
REMARK  Name = 44258464
REMARK  4 active torsions:
REMARK  status: ('A' for Active; 'I' for Inactive)
REMARK    1  A    between atoms: O_2  and  C_15
REMARK    2  A    between atoms: O_2  and  C_17
REMARK    3  A    between atoms: O_7  and  C_18
REMARK    4  A    between atoms: C_24  and  C_26
REMARK                            x       y       z     vdW  Elec       q    Type
REMARK                         _______ _______ _______ _____ _____    ______ ____
ROOT
ATOM      1  O   UNL     1     113.299 128.935 139.381  0.00  0.00    +0.000 OA
ATOM      2  O   UNL     1     112.870 126.074 139.457  0.00  0.00    +0.000 OA
ATOM      3  O   UNL     1     113.562 126.706 140.554  0.00  0.00    +0.000 OA
ATOM      4  C   UNL     1     112.311 127.560 137.959  0.00  0.00    +0.000 A 
ATOM      5  C   UNL     1     112.398 126.835 138.344  0.00  0.00    +0.000 A 
ATOM      6  C   UNL     1     112.609 128.248 138.304  0.00  0.00    +0.000 A 
ATOM      7  C   UNL     1     112.994 128.211 139.033  0.00  0.00    +0.000 A 
ATOM      8  C   UNL     1     113.081 127.487 139.417  0.00  0.00    +0.000 A 
ATOM      9  C   UNL     1     112.783 126.799 139.073  0.00  0.00    +0.000 A 
ATOM     10  C   UNL     1     113.479 127.436 140.176  0.00  0.00    +0.000 A 
ATOM     11  C   UNL     1     113.701 128.904 140.139  0.00  0.00    +0.000 A 
ATOM     12  C   UNL     1     113.792 128.149 140.540  0.00  0.00    +0.000 A 
ENDROOT
BRANCH  11  14
ATOM     13  O   UNL     1     114.887 131.663 141.507  0.00  0.00    +0.000 OA
ATOM     14  C   UNL     1     113.998 129.594 140.481  0.00  0.00    +0.000 A 
ATOM     15  C   UNL     1     114.737 129.882 140.254  0.00  0.00    +0.000 A 
ATOM     16  C   UNL     1     113.556 129.995 141.051  0.00  0.00    +0.000 A 
ATOM     17  C   UNL     1     115.033 130.572 140.596  0.00  0.00    +0.000 A 
ATOM     18  C   UNL     1     113.852 130.685 141.393  0.00  0.00    +0.000 A 
ATOM     19  C   UNL     1     114.591 130.973 141.165  0.00  0.00    +0.000 A 
ENDBRANCH  11  14
BRANCH   5  20
ATOM     20  O   UNL     1     112.100 126.147 137.999  0.00  0.00    +0.000 OA
ATOM     21  C   UNL     1     111.443 125.774 138.329  0.00  0.00    +0.000 C 
ENDBRANCH   5  20
BRANCH   4  22
ATOM     22  O   UNL     1     111.926 127.597 137.230  0.00  0.00    +0.000 OA
BRANCH  22  31
ATOM     23  O   UNL     1     113.049 127.965 136.426  0.00  0.00    +0.000 OA
ATOM     24  O   UNL     1     111.620 129.530 135.147  0.00  0.00    +0.000 OA
ATOM     25  O   UNL     1     113.219 129.376 134.770  0.00  0.00    +0.000 OA
ATOM     26  O   UNL     1     110.973 128.640 136.378  0.00  0.00    +0.000 OA
ATOM     27  C   UNL     1     112.096 129.008 135.574  0.00  0.00    +0.000 C 
ATOM     28  C   UNL     1     112.895 128.931 135.386  0.00  0.00    +0.000 C 
ATOM     29  C   UNL     1     111.773 128.563 136.189  0.00  0.00    +0.000 C 
ATOM     30  C   UNL     1     113.372 128.409 135.812  0.00  0.00    +0.000 C 
ATOM     31  C   UNL     1     112.250 128.041 136.615  0.00  0.00    +0.000 C 
ATOM     32  C   UNL     1     114.171 128.333 135.623  0.00  0.00    +0.000 C 
ENDBRANCH  22  31
ENDBRANCH   4  22
TORSDOF 4
ENDMDL
MODEL 10
REMARK VINA RESULT:      -8.7      9.447     12.764
REMARK  Name = 44258464
REMARK  4 active torsions:
REMARK  status: ('A' for Active; 'I' for Inactive)
REMARK    1  A    between atoms: O_2  and  C_15
REMARK    2  A    between atoms: O_2  and  C_17
REMARK    3  A    between atoms: O_7  and  C_18
REMARK    4  A    between atoms: C_24  and  C_26
REMARK                            x       y       z     vdW  Elec       q    Type
REMARK                         _______ _______ _______ _____ _____    ______ ____
ROOT
ATOM      1  O   UNL     1     112.755 128.629 136.539  0.00  0.00    +0.000 OA
ATOM      2  O   UNL     1     110.252 129.472 137.723  0.00  0.00    +0.000 OA
ATOM      3  O   UNL     1     111.075 130.452 137.057  0.00  0.00    +0.000 OA
ATOM      4  C   UNL     1     111.198 127.507 137.638  0.00  0.00    +0.000 A 
ATOM      5  C   UNL     1     110.653 128.103 137.805  0.00  0.00    +0.000 A 
ATOM      6  C   UNL     1     111.888 127.684 137.221  0.00  0.00    +0.000 A 
ATOM      7  C   UNL     1     112.032 128.457 136.972  0.00  0.00    +0.000 A 
ATOM      8  C   UNL     1     111.487 129.053 137.139  0.00  0.00    +0.000 A 
ATOM      9  C   UNL     1     110.797 128.876 137.556  0.00  0.00    +0.000 A 
ATOM     10  C   UNL     1     111.626 129.862 136.885  0.00  0.00    +0.000 A 
ATOM     11  C   UNL     1     112.911 129.432 136.277  0.00  0.00    +0.000 A 
ATOM     12  C   UNL     1     112.342 130.053 136.451  0.00  0.00    +0.000 A 
ENDROOT
BRANCH  11  14
ATOM     13  O   UNL     1     115.674 130.130 134.612  0.00  0.00    +0.000 OA
ATOM     14  C   UNL     1     113.602 129.606 135.860  0.00  0.00    +0.000 A 
ATOM     15  C   UNL     1     113.694 129.341 135.084  0.00  0.00    +0.000 A 
ATOM     16  C   UNL     1     114.200 130.046 136.220  0.00  0.00    +0.000 A 
ATOM     17  C   UNL     1     114.385 129.515 134.668  0.00  0.00    +0.000 A 
ATOM     18  C   UNL     1     114.891 130.221 135.804  0.00  0.00    +0.000 A 
ATOM     19  C   UNL     1     114.983 129.955 135.028  0.00  0.00    +0.000 A 
ENDBRANCH  11  14
BRANCH   5  20
ATOM     20  O   UNL     1     109.963 127.925 138.221  0.00  0.00    +0.000 OA
ATOM     21  C   UNL     1     109.876 128.182 139.000  0.00  0.00    +0.000 C 
ENDBRANCH   5  20
BRANCH   4  22
ATOM     22  O   UNL     1     111.054 126.733 137.887  0.00  0.00    +0.000 OA
BRANCH  22  31
ATOM     23  O   UNL     1     110.758 126.168 136.608  0.00  0.00    +0.000 OA
ATOM     24  O   UNL     1     112.003 124.120 137.225  0.00  0.00    +0.000 OA
ATOM     25  O   UNL     1     111.292 124.238 135.741  0.00  0.00    +0.000 OA
ATOM     26  O   UNL     1     111.884 125.368 138.298  0.00  0.00    +0.000 OA
ATOM     27  C   UNL     1     111.588 124.803 137.020  0.00  0.00    +0.000 C 
ATOM     28  C   UNL     1     111.233 124.862 136.278  0.00  0.00    +0.000 C 
ATOM     29  C   UNL     1     111.528 125.427 137.555  0.00  0.00    +0.000 C 
ATOM     30  C   UNL     1     110.818 125.545 136.072  0.00  0.00    +0.000 C 
ATOM     31  C   UNL     1     111.113 126.110 137.350  0.00  0.00    +0.000 C 
ATOM     32  C   UNL     1     110.462 125.603 135.329  0.00  0.00    +0.000 C 
ENDBRANCH  22  31
ENDBRANCH   4  22
TORSDOF 4
ENDMDL
