MODEL 1
REMARK VINA RESULT:      -9.5      0.000      0.000
REMARK  Name = 42607907
REMARK  4 active torsions:
REMARK  status: ('A' for Active; 'I' for Inactive)
REMARK    1  A    between atoms: O_2  and  C_15
REMARK    2  A    between atoms: O_2  and  C_18
REMARK    3  A    between atoms: C_14  and  C_16
REMARK    4  A    between atoms: C_17  and  C_19
REMARK                            x       y       z     vdW  Elec       q    Type
REMARK                         _______ _______ _______ _____ _____    ______ ____
ROOT
ATOM      1  C   UNL     1     109.808 127.433 135.431  0.00  0.00    +0.000 A 
ATOM      2  C   UNL     1     110.904 126.302 135.922  0.00  0.00    +0.000 A 
ATOM      3  C   UNL     1     109.756 127.110 136.188  0.00  0.00    +0.000 A 
ATOM      4  C   UNL     1     110.408 127.191 134.920  0.00  0.00    +0.000 A 
ATOM      5  C   UNL     1     110.304 126.544 136.434  0.00  0.00    +0.000 A 
ATOM      6  C   UNL     1     110.956 126.625 135.165  0.00  0.00    +0.000 A 
ENDROOT
BRANCH   2  11
ATOM      7  O   UNL     1     112.197 125.972 136.435  0.00  0.00    +0.000 OA
ATOM      8  O   UNL     1     111.607 123.569 136.372  0.00  0.00    +0.000 OA
ATOM      9  O   UNL     1     112.906 123.208 136.889  0.00  0.00    +0.000 OA
ATOM     10  O   UNL     1     114.836 125.318 137.479  0.00  0.00    +0.000 OA
ATOM     11  C   UNL     1     111.452 125.737 136.168  0.00  0.00    +0.000 C 
ATOM     12  C   UNL     1     111.256 124.936 136.147  0.00  0.00    +0.000 C 
ATOM     13  C   UNL     1     111.804 124.370 136.393  0.00  0.00    +0.000 C 
ATOM     14  C   UNL     1     112.548 124.606 136.659  0.00  0.00    +0.000 A 
ATOM     15  C   UNL     1     112.745 125.407 136.680  0.00  0.00    +0.000 A 
ATOM     16  C   UNL     1     113.111 124.006 136.913  0.00  0.00    +0.000 A 
ATOM     17  C   UNL     1     113.517 125.665 136.956  0.00  0.00    +0.000 A 
ATOM     18  C   UNL     1     114.092 125.080 137.213  0.00  0.00    +0.000 A 
ATOM     19  C   UNL     1     113.888 124.246 137.191  0.00  0.00    +0.000 A 
ENDBRANCH   2  11
BRANCH   1  20
ATOM     20  O   UNL     1     109.260 127.999 135.185  0.00  0.00    +0.000 OA
BRANCH  20  29
ATOM     21  O   UNL     1     110.021 129.170 135.487  0.00  0.00    +0.000 OA
ATOM     22  O   UNL     1     107.981 130.272 136.353  0.00  0.00    +0.000 OA
ATOM     23  O   UNL     1     109.421 131.075 136.367  0.00  0.00    +0.000 OA
ATOM     24  O   UNL     1     107.900 128.734 135.762  0.00  0.00    +0.000 OA
ATOM     25  C   UNL     1     108.661 129.905 136.065  0.00  0.00    +0.000 C 
ATOM     26  C   UNL     1     109.381 130.306 136.071  0.00  0.00    +0.000 C 
ATOM     27  C   UNL     1     108.620 129.135 135.769  0.00  0.00    +0.000 C 
ATOM     28  C   UNL     1     110.061 129.939 135.783  0.00  0.00    +0.000 C 
ATOM     29  C   UNL     1     109.300 128.768 135.480  0.00  0.00    +0.000 C 
BRANCH  28  31
ATOM     30  O   UNL     1     111.389 130.091 136.289  0.00  0.00    +0.000 OA
ATOM     31  C   UNL     1     110.781 130.341 135.790  0.00  0.00    +0.000 C 
ENDBRANCH  28  31
ENDBRANCH  20  29
ENDBRANCH   1  20
TORSDOF 4
ENDMDL
MODEL 2
REMARK VINA RESULT:      -9.3      1.634      2.969
REMARK  Name = 42607907
REMARK  4 active torsions:
REMARK  status: ('A' for Active; 'I' for Inactive)
REMARK    1  A    between atoms: O_2  and  C_15
REMARK    2  A    between atoms: O_2  and  C_18
REMARK    3  A    between atoms: C_14  and  C_16
REMARK    4  A    between atoms: C_17  and  C_19
REMARK                            x       y       z     vdW  Elec       q    Type
REMARK                         _______ _______ _______ _____ _____    ______ ____
ROOT
ATOM      1  C   UNL     1     113.097 129.271 136.783  0.00  0.00    +0.000 A 
ATOM      2  C   UNL     1     113.228 127.628 136.863  0.00  0.00    +0.000 A 
ATOM      3  C   UNL     1     113.325 128.842 136.115  0.00  0.00    +0.000 A 
ATOM      4  C   UNL     1     112.935 128.878 137.490  0.00  0.00    +0.000 A 
ATOM      5  C   UNL     1     113.391 128.021 136.155  0.00  0.00    +0.000 A 
ATOM      6  C   UNL     1     113.000 128.056 137.529  0.00  0.00    +0.000 A 
ENDROOT
BRANCH   2  11
ATOM      7  O   UNL     1     112.674 126.330 136.634  0.00  0.00    +0.000 OA
ATOM      8  O   UNL     1     114.725 125.295 137.557  0.00  0.00    +0.000 OA
ATOM      9  O   UNL     1     114.190 123.972 137.337  0.00  0.00    +0.000 OA
ATOM     10  O   UNL     1     111.531 123.694 136.162  0.00  0.00    +0.000 OA
ATOM     11  C   UNL     1     113.293 126.807 136.902  0.00  0.00    +0.000 C 
ATOM     12  C   UNL     1     113.976 126.461 137.210  0.00  0.00    +0.000 C 
ATOM     13  C   UNL     1     114.041 125.640 137.249  0.00  0.00    +0.000 C 
ATOM     14  C   UNL     1     113.423 125.164 136.982  0.00  0.00    +0.000 A 
ATOM     15  C   UNL     1     112.739 125.508 136.674  0.00  0.00    +0.000 A 
ATOM     16  C   UNL     1     113.503 124.309 137.028  0.00  0.00    +0.000 A 
ATOM     17  C   UNL     1     112.089 125.023 136.391  0.00  0.00    +0.000 A 
ATOM     18  C   UNL     1     112.151 124.167 136.430  0.00  0.00    +0.000 A 
ATOM     19  C   UNL     1     112.863 123.808 136.751  0.00  0.00    +0.000 A 
ENDBRANCH   2  11
BRANCH   1  20
ATOM     20  O   UNL     1     113.032 130.093 136.743  0.00  0.00    +0.000 OA
BRANCH  20  29
ATOM     21  O   UNL     1     111.680 130.160 136.286  0.00  0.00    +0.000 OA
ATOM     22  O   UNL     1     111.273 132.095 137.775  0.00  0.00    +0.000 OA
ATOM     23  O   UNL     1     110.057 131.517 136.822  0.00  0.00    +0.000 OA
ATOM     24  O   UNL     1     112.760 131.383 137.736  0.00  0.00    +0.000 OA
ATOM     25  C   UNL     1     111.408 131.450 137.278  0.00  0.00    +0.000 C 
ATOM     26  C   UNL     1     110.801 131.160 136.802  0.00  0.00    +0.000 C 
ATOM     27  C   UNL     1     112.153 131.093 137.259  0.00  0.00    +0.000 C 
ATOM     28  C   UNL     1     110.936 130.515 136.305  0.00  0.00    +0.000 C 
ATOM     29  C   UNL     1     112.288 130.448 136.763  0.00  0.00    +0.000 C 
BRANCH  28  31
ATOM     30  O   UNL     1     110.458 130.101 135.024  0.00  0.00    +0.000 OA
ATOM     31  C   UNL     1     110.328 130.227 135.829  0.00  0.00    +0.000 C 
ENDBRANCH  28  31
ENDBRANCH  20  29
ENDBRANCH   1  20
TORSDOF 4
ENDMDL
MODEL 3
REMARK VINA RESULT:      -9.2      4.267      5.238
REMARK  Name = 42607907
REMARK  4 active torsions:
REMARK  status: ('A' for Active; 'I' for Inactive)
REMARK    1  A    between atoms: O_2  and  C_15
REMARK    2  A    between atoms: O_2  and  C_18
REMARK    3  A    between atoms: C_14  and  C_16
REMARK    4  A    between atoms: C_17  and  C_19
REMARK                            x       y       z     vdW  Elec       q    Type
REMARK                         _______ _______ _______ _____ _____    ______ ____
ROOT
ATOM      1  C   UNL     1     113.758 128.256 140.423  0.00  0.00    +0.000 A 
ATOM      2  C   UNL     1     113.307 127.066 139.373  0.00  0.00    +0.000 A 
ATOM      3  C   UNL     1     113.885 127.463 140.617  0.00  0.00    +0.000 A 
ATOM      4  C   UNL     1     113.406 128.452 139.703  0.00  0.00    +0.000 A 
ATOM      5  C   UNL     1     113.659 126.868 140.092  0.00  0.00    +0.000 A 
ATOM      6  C   UNL     1     113.181 127.857 139.178  0.00  0.00    +0.000 A 
ENDROOT
BRANCH   2  11
ATOM      7  O   UNL     1     113.611 126.204 138.273  0.00  0.00    +0.000 OA
ATOM      8  O   UNL     1     111.345 125.219 138.419  0.00  0.00    +0.000 OA
ATOM      9  O   UNL     1     111.626 124.338 137.312  0.00  0.00    +0.000 OA
ATOM     10  O   UNL     1     114.249 124.455 136.034  0.00  0.00    +0.000 OA
ATOM     11  C   UNL     1     113.081 126.471 138.847  0.00  0.00    +0.000 C 
ATOM     12  C   UNL     1     112.326 126.142 138.895  0.00  0.00    +0.000 C 
ATOM     13  C   UNL     1     112.101 125.547 138.370  0.00  0.00    +0.000 C 
ATOM     14  C   UNL     1     112.630 125.281 137.797  0.00  0.00    +0.000 A 
ATOM     15  C   UNL     1     113.386 125.609 137.748  0.00  0.00    +0.000 A 
ATOM     16  C   UNL     1     112.383 124.660 137.256  0.00  0.00    +0.000 A 
ATOM     17  C   UNL     1     113.947 125.340 137.155  0.00  0.00    +0.000 A 
ATOM     18  C   UNL     1     113.717 124.720 136.606  0.00  0.00    +0.000 A 
ATOM     19  C   UNL     1     112.931 124.378 136.656  0.00  0.00    +0.000 A 
ENDBRANCH   2  11
BRANCH   1  20
ATOM     20  O   UNL     1     113.984 128.851 140.948  0.00  0.00    +0.000 OA
BRANCH  20  29
ATOM     21  O   UNL     1     112.790 128.863 141.733  0.00  0.00    +0.000 OA
ATOM     22  O   UNL     1     112.931 131.328 141.909  0.00  0.00    +0.000 OA
ATOM     23  O   UNL     1     111.691 130.518 142.635  0.00  0.00    +0.000 OA
ATOM     24  O   UNL     1     114.078 130.494 141.065  0.00  0.00    +0.000 OA
ATOM     25  C   UNL     1     112.884 130.506 141.850  0.00  0.00    +0.000 C 
ATOM     26  C   UNL     1     112.264 130.101 142.213  0.00  0.00    +0.000 C 
ATOM     27  C   UNL     1     113.458 130.089 141.428  0.00  0.00    +0.000 C 
ATOM     28  C   UNL     1     112.217 129.279 142.155  0.00  0.00    +0.000 C 
ATOM     29  C   UNL     1     113.411 129.267 141.369  0.00  0.00    +0.000 C 
BRANCH  28  31
ATOM     30  O   UNL     1     111.756 128.241 143.021  0.00  0.00    +0.000 OA
ATOM     31  C   UNL     1     111.597 128.875 142.518  0.00  0.00    +0.000 C 
ENDBRANCH  28  31
ENDBRANCH  20  29
ENDBRANCH   1  20
TORSDOF 4
ENDMDL
MODEL 4
REMARK VINA RESULT:      -9.2      0.733      5.605
REMARK  Name = 42607907
REMARK  4 active torsions:
REMARK  status: ('A' for Active; 'I' for Inactive)
REMARK    1  A    between atoms: O_2  and  C_15
REMARK    2  A    between atoms: O_2  and  C_18
REMARK    3  A    between atoms: C_14  and  C_16
REMARK    4  A    between atoms: C_17  and  C_19
REMARK                            x       y       z     vdW  Elec       q    Type
REMARK                         _______ _______ _______ _____ _____    ______ ____
ROOT
ATOM      1  C   UNL     1     110.932 125.533 135.842  0.00  0.00    +0.000 A 
ATOM      2  C   UNL     1     110.188 127.006 135.886  0.00  0.00    +0.000 A 
ATOM      3  C   UNL     1     110.554 125.785 136.532  0.00  0.00    +0.000 A 
ATOM      4  C   UNL     1     110.936 126.019 135.175  0.00  0.00    +0.000 A 
ATOM      5  C   UNL     1     110.182 126.521 136.554  0.00  0.00    +0.000 A 
ATOM      6  C   UNL     1     110.565 126.755 135.197  0.00  0.00    +0.000 A 
ENDROOT
BRANCH   2  11
ATOM      7  O   UNL     1     110.261 128.426 136.033  0.00  0.00    +0.000 OA
ATOM      8  O   UNL     1     107.810 128.583 135.725  0.00  0.00    +0.000 OA
ATOM      9  O   UNL     1     107.856 130.019 135.870  0.00  0.00    +0.000 OA
ATOM     10  O   UNL     1     110.430 131.317 136.336  0.00  0.00    +0.000 OA
ATOM     11  C   UNL     1     109.816 127.742 135.908  0.00  0.00    +0.000 C 
ATOM     12  C   UNL     1     108.999 127.795 135.805  0.00  0.00    +0.000 C 
ATOM     13  C   UNL     1     108.628 128.531 135.828  0.00  0.00    +0.000 C 
ATOM     14  C   UNL     1     109.072 129.214 135.952  0.00  0.00    +0.000 A 
ATOM     15  C   UNL     1     109.890 129.162 136.055  0.00  0.00    +0.000 A 
ATOM     16  C   UNL     1     108.673 129.976 135.974  0.00  0.00    +0.000 A 
ATOM     17  C   UNL     1     110.364 129.866 136.186  0.00  0.00    +0.000 A 
ATOM     18  C   UNL     1     109.982 130.635 136.210  0.00  0.00    +0.000 A 
ATOM     19  C   UNL     1     109.132 130.691 136.103  0.00  0.00    +0.000 A 
ENDBRANCH   2  11
BRANCH   1  20
ATOM     20  O   UNL     1     111.303 124.797 135.819  0.00  0.00    +0.000 OA
BRANCH  20  29
ATOM     21  O   UNL     1     112.608 125.286 136.138  0.00  0.00    +0.000 OA
ATOM     22  O   UNL     1     113.086 123.199 137.380  0.00  0.00    +0.000 OA
ATOM     23  O   UNL     1     114.230 124.382 137.285  0.00  0.00    +0.000 OA
ATOM     24  O   UNL     1     111.622 123.406 136.647  0.00  0.00    +0.000 OA
ATOM     25  C   UNL     1     112.926 123.894 136.966  0.00  0.00    +0.000 C 
ATOM     26  C   UNL     1     113.498 124.487 136.918  0.00  0.00    +0.000 C 
ATOM     27  C   UNL     1     112.194 123.998 136.599  0.00  0.00    +0.000 C 
ATOM     28  C   UNL     1     113.339 125.182 136.504  0.00  0.00    +0.000 C 
ATOM     29  C   UNL     1     112.035 124.694 136.185  0.00  0.00    +0.000 C 
BRANCH  28  31
ATOM     30  O   UNL     1     113.797 126.492 136.845  0.00  0.00    +0.000 OA
ATOM     31  C   UNL     1     113.912 125.774 136.457  0.00  0.00    +0.000 C 
ENDBRANCH  28  31
ENDBRANCH  20  29
ENDBRANCH   1  20
TORSDOF 4
ENDMDL
MODEL 5
REMARK VINA RESULT:      -9.2      4.087      5.066
REMARK  Name = 42607907
REMARK  4 active torsions:
REMARK  status: ('A' for Active; 'I' for Inactive)
REMARK    1  A    between atoms: O_2  and  C_15
REMARK    2  A    between atoms: O_2  and  C_18
REMARK    3  A    between atoms: C_14  and  C_16
REMARK    4  A    between atoms: C_17  and  C_19
REMARK                            x       y       z     vdW  Elec       q    Type
REMARK                         _______ _______ _______ _____ _____    ______ ____
ROOT
ATOM      1  C   UNL     1     112.984 127.873 140.789  0.00  0.00    +0.000 A 
ATOM      2  C   UNL     1     112.992 126.849 139.496  0.00  0.00    +0.000 A 
ATOM      3  C   UNL     1     112.482 128.012 140.149  0.00  0.00    +0.000 A 
ATOM      4  C   UNL     1     113.490 127.222 140.781  0.00  0.00    +0.000 A 
ATOM      5  C   UNL     1     112.485 127.500 139.502  0.00  0.00    +0.000 A 
ATOM      6  C   UNL     1     113.494 126.709 140.134  0.00  0.00    +0.000 A 
ENDROOT
BRANCH   2  11
ATOM      7  O   UNL     1     113.684 126.239 138.403  0.00  0.00    +0.000 OA
ATOM      8  O   UNL     1     111.631 124.995 137.799  0.00  0.00    +0.000 OA
ATOM      9  O   UNL     1     112.306 124.365 136.689  0.00  0.00    +0.000 OA
ATOM     10  O   UNL     1     115.109 125.006 136.183  0.00  0.00    +0.000 OA
ATOM     11  C   UNL     1     112.996 126.336 138.849  0.00  0.00    +0.000 C 
ATOM     12  C   UNL     1     112.312 125.922 138.647  0.00  0.00    +0.000 C 
ATOM     13  C   UNL     1     112.316 125.409 138.000  0.00  0.00    +0.000 C 
ATOM     14  C   UNL     1     113.003 125.312 137.555  0.00  0.00    +0.000 A 
ATOM     15  C   UNL     1     113.688 125.727 137.757  0.00  0.00    +0.000 A 
ATOM     16  C   UNL     1     112.994 124.775 136.884  0.00  0.00    +0.000 A 
ATOM     17  C   UNL     1     114.411 125.634 137.301  0.00  0.00    +0.000 A 
ATOM     18  C   UNL     1     114.420 125.102 136.627  0.00  0.00    +0.000 A 
ATOM     19  C   UNL     1     113.708 124.669 136.416  0.00  0.00    +0.000 A 
ENDBRANCH   2  11
BRANCH   1  20
ATOM     20  O   UNL     1     112.981 128.386 141.436  0.00  0.00    +0.000 OA
BRANCH  20  29
ATOM     21  O   UNL     1     113.975 129.278 140.929  0.00  0.00    +0.000 OA
ATOM     22  O   UNL     1     112.803 131.184 141.986  0.00  0.00    +0.000 OA
ATOM     23  O   UNL     1     114.188 131.440 141.127  0.00  0.00    +0.000 OA
ATOM     24  O   UNL     1     112.200 129.656 142.141  0.00  0.00    +0.000 OA
ATOM     25  C   UNL     1     113.194 130.549 141.634  0.00  0.00    +0.000 C 
ATOM     26  C   UNL     1     113.886 130.677 141.204  0.00  0.00    +0.000 C 
ATOM     27  C   UNL     1     112.892 129.784 141.711  0.00  0.00    +0.000 C 
ATOM     28  C   UNL     1     114.277 130.041 140.852  0.00  0.00    +0.000 C 
ATOM     29  C   UNL     1     113.282 129.149 141.358  0.00  0.00    +0.000 C 
BRANCH  28  31
ATOM     30  O   UNL     1     115.659 129.762 140.619  0.00  0.00    +0.000 OA
ATOM     31  C   UNL     1     114.969 130.170 140.422  0.00  0.00    +0.000 C 
ENDBRANCH  28  31
ENDBRANCH  20  29
ENDBRANCH   1  20
TORSDOF 4
ENDMDL
MODEL 6
REMARK VINA RESULT:      -9.1      1.593      2.593
REMARK  Name = 42607907
REMARK  4 active torsions:
REMARK  status: ('A' for Active; 'I' for Inactive)
REMARK    1  A    between atoms: O_2  and  C_15
REMARK    2  A    between atoms: O_2  and  C_18
REMARK    3  A    between atoms: C_14  and  C_16
REMARK    4  A    between atoms: C_17  and  C_19
REMARK                            x       y       z     vdW  Elec       q    Type
REMARK                         _______ _______ _______ _____ _____    ______ ____
ROOT
ATOM      1  C   UNL     1     112.605 129.598 136.569  0.00  0.00    +0.000 A 
ATOM      2  C   UNL     1     112.711 127.951 136.579  0.00  0.00    +0.000 A 
ATOM      3  C   UNL     1     112.760 129.190 135.868  0.00  0.00    +0.000 A 
ATOM      4  C   UNL     1     112.503 129.182 137.274  0.00  0.00    +0.000 A 
ATOM      5  C   UNL     1     112.813 128.366 135.873  0.00  0.00    +0.000 A 
ATOM      6  C   UNL     1     112.556 128.358 137.279  0.00  0.00    +0.000 A 
ENDROOT
BRANCH   2  11
ATOM      7  O   UNL     1     113.447 126.760 136.867  0.00  0.00    +0.000 OA
ATOM      8  O   UNL     1     111.560 125.393 136.033  0.00  0.00    +0.000 OA
ATOM      9  O   UNL     1     112.281 124.175 136.314  0.00  0.00    +0.000 OA
ATOM     10  O   UNL     1     114.961 124.344 137.461  0.00  0.00    +0.000 OA
ATOM     11  C   UNL     1     112.765 127.128 136.584  0.00  0.00    +0.000 C 
ATOM     12  C   UNL     1     112.136 126.672 136.306  0.00  0.00    +0.000 C 
ATOM     13  C   UNL     1     112.189 125.848 136.311  0.00  0.00    +0.000 C 
ATOM     14  C   UNL     1     112.871 125.481 136.594  0.00  0.00    +0.000 A 
ATOM     15  C   UNL     1     113.501 125.937 136.872  0.00  0.00    +0.000 A 
ATOM     16  C   UNL     1     112.915 124.622 136.594  0.00  0.00    +0.000 A 
ATOM     17  C   UNL     1     114.217 125.566 137.170  0.00  0.00    +0.000 A 
ATOM     18  C   UNL     1     114.278 124.709 137.178  0.00  0.00    +0.000 A 
ATOM     19  C   UNL     1     113.623 124.234 136.888  0.00  0.00    +0.000 A 
ENDBRANCH   2  11
BRANCH   1  20
ATOM     20  O   UNL     1     112.551 130.421 136.564  0.00  0.00    +0.000 OA
BRANCH  20  29
ATOM     21  O   UNL     1     111.173 130.536 136.207  0.00  0.00    +0.000 OA
ATOM     22  O   UNL     1     110.907 132.390 137.824  0.00  0.00    +0.000 OA
ATOM     23  O   UNL     1     109.618 131.886 136.928  0.00  0.00    +0.000 OA
ATOM     24  O   UNL     1     112.375 131.657 137.642  0.00  0.00    +0.000 OA
ATOM     25  C   UNL     1     110.996 131.772 137.285  0.00  0.00    +0.000 C 
ATOM     26  C   UNL     1     110.351 131.520 136.836  0.00  0.00    +0.000 C 
ATOM     27  C   UNL     1     111.730 131.405 137.194  0.00  0.00    +0.000 C 
ATOM     28  C   UNL     1     110.440 130.902 136.297  0.00  0.00    +0.000 C 
ATOM     29  C   UNL     1     111.818 130.787 136.655  0.00  0.00    +0.000 C 
BRANCH  28  31
ATOM     30  O   UNL     1     109.862 130.582 135.030  0.00  0.00    +0.000 OA
ATOM     31  C   UNL     1     109.795 130.650 135.849  0.00  0.00    +0.000 C 
ENDBRANCH  28  31
ENDBRANCH  20  29
ENDBRANCH   1  20
TORSDOF 4
ENDMDL
MODEL 7
REMARK VINA RESULT:      -9.0      1.204      1.935
REMARK  Name = 42607907
REMARK  4 active torsions:
REMARK  status: ('A' for Active; 'I' for Inactive)
REMARK    1  A    between atoms: O_2  and  C_15
REMARK    2  A    between atoms: O_2  and  C_18
REMARK    3  A    between atoms: C_14  and  C_16
REMARK    4  A    between atoms: C_17  and  C_19
REMARK                            x       y       z     vdW  Elec       q    Type
REMARK                         _______ _______ _______ _____ _____    ______ ____
ROOT
ATOM      1  C   UNL     1     109.152 129.272 135.376  0.00  0.00    +0.000 A 
ATOM      2  C   UNL     1     110.013 127.883 135.601  0.00  0.00    +0.000 A 
ATOM      3  C   UNL     1     109.832 129.131 134.930  0.00  0.00    +0.000 A 
ATOM      4  C   UNL     1     108.903 128.718 135.934  0.00  0.00    +0.000 A 
ATOM      5  C   UNL     1     110.263 128.436 135.043  0.00  0.00    +0.000 A 
ATOM      6  C   UNL     1     109.334 128.023 136.047  0.00  0.00    +0.000 A 
ENDROOT
BRANCH   2  11
ATOM      7  O   UNL     1     111.170 127.211 136.105  0.00  0.00    +0.000 OA
ATOM      8  O   UNL     1     110.283 125.057 135.269  0.00  0.00    +0.000 OA
ATOM      9  O   UNL     1     111.441 124.354 135.768  0.00  0.00    +0.000 OA
ATOM     10  O   UNL     1     113.535 125.860 137.137  0.00  0.00    +0.000 OA
ATOM     11  C   UNL     1     110.444 127.188 135.714  0.00  0.00    +0.000 C 
ATOM     12  C   UNL     1     110.149 126.470 135.436  0.00  0.00    +0.000 C 
ATOM     13  C   UNL     1     110.579 125.775 135.548  0.00  0.00    +0.000 C 
ATOM     14  C   UNL     1     111.305 125.798 135.939  0.00  0.00    +0.000 A 
ATOM     15  C   UNL     1     111.601 126.516 136.217  0.00  0.00    +0.000 A 
ATOM     16  C   UNL     1     111.744 125.068 136.050  0.00  0.00    +0.000 A 
ATOM     17  C   UNL     1     112.356 126.554 136.626  0.00  0.00    +0.000 A 
ATOM     18  C   UNL     1     112.809 125.834 136.746  0.00  0.00    +0.000 A 
ATOM     19  C   UNL     1     112.501 125.086 136.456  0.00  0.00    +0.000 A 
ENDBRANCH   2  11
BRANCH   1  20
ATOM     20  O   UNL     1     108.721 129.967 135.264  0.00  0.00    +0.000 OA
BRANCH  20  29
ATOM     21  O   UNL     1     109.467 130.803 136.151  0.00  0.00    +0.000 OA
ATOM     22  O   UNL     1     107.368 131.873 136.908  0.00  0.00    +0.000 OA
ATOM     23  O   UNL     1     108.813 132.351 137.542  0.00  0.00    +0.000 OA
ATOM     24  O   UNL     1     107.322 130.680 135.768  0.00  0.00    +0.000 OA
ATOM     25  C   UNL     1     108.068 131.516 136.656  0.00  0.00    +0.000 C 
ATOM     26  C   UNL     1     108.791 131.755 136.973  0.00  0.00    +0.000 C 
ATOM     27  C   UNL     1     108.045 130.919 136.085  0.00  0.00    +0.000 C 
ATOM     28  C   UNL     1     109.490 131.398 136.720  0.00  0.00    +0.000 C 
ATOM     29  C   UNL     1     108.745 130.563 135.833  0.00  0.00    +0.000 C 
BRANCH  28  31
ATOM     30  O   UNL     1     110.832 131.856 136.538  0.00  0.00    +0.000 OA
ATOM     31  C   UNL     1     110.213 131.638 137.038  0.00  0.00    +0.000 C 
ENDBRANCH  28  31
ENDBRANCH  20  29
ENDBRANCH   1  20
TORSDOF 4
ENDMDL
MODEL 8
REMARK VINA RESULT:      -8.9      1.238      5.983
REMARK  Name = 42607907
REMARK  4 active torsions:
REMARK  status: ('A' for Active; 'I' for Inactive)
REMARK    1  A    between atoms: O_2  and  C_15
REMARK    2  A    between atoms: O_2  and  C_18
REMARK    3  A    between atoms: C_14  and  C_16
REMARK    4  A    between atoms: C_17  and  C_19
REMARK                            x       y       z     vdW  Elec       q    Type
REMARK                         _______ _______ _______ _____ _____    ______ ____
ROOT
ATOM      1  C   UNL     1     112.087 127.745 136.076  0.00  0.00    +0.000 A 
ATOM      2  C   UNL     1     110.803 128.780 136.009  0.00  0.00    +0.000 A 
ATOM      3  C   UNL     1     111.764 128.048 136.773  0.00  0.00    +0.000 A 
ATOM      4  C   UNL     1     111.766 127.960 135.347  0.00  0.00    +0.000 A 
ATOM      5  C   UNL     1     111.123 128.566 136.740  0.00  0.00    +0.000 A 
ATOM      6  C   UNL     1     111.125 128.477 135.313  0.00  0.00    +0.000 A 
ENDROOT
BRANCH   2  11
ATOM      7  O   UNL     1     110.289 130.113 135.959  0.00  0.00    +0.000 OA
ATOM      8  O   UNL     1     107.981 129.220 135.913  0.00  0.00    +0.000 OA
ATOM      9  O   UNL     1     107.436 130.556 135.861  0.00  0.00    +0.000 OA
ATOM     10  O   UNL     1     109.260 132.835 135.855  0.00  0.00    +0.000 OA
ATOM     11  C   UNL     1     110.162 129.298 135.976  0.00  0.00    +0.000 C 
ATOM     12  C   UNL     1     109.392 129.001 135.961  0.00  0.00    +0.000 C 
ATOM     13  C   UNL     1     108.751 129.518 135.928  0.00  0.00    +0.000 C 
ATOM     14  C   UNL     1     108.878 130.333 135.910  0.00  0.00    +0.000 A 
ATOM     15  C   UNL     1     109.648 130.631 135.925  0.00  0.00    +0.000 A 
ATOM     16  C   UNL     1     108.201 130.862 135.876  0.00  0.00    +0.000 A 
ATOM     17  C   UNL     1     109.794 131.477 135.907  0.00  0.00    +0.000 A 
ATOM     18  C   UNL     1     109.130 132.021 135.873  0.00  0.00    +0.000 A 
ATOM     19  C   UNL     1     108.328 131.712 135.857  0.00  0.00    +0.000 A 
ENDBRANCH   2  11
BRANCH   1  20
ATOM     20  O   UNL     1     112.728 127.227 136.109  0.00  0.00    +0.000 OA
BRANCH  20  29
ATOM     21  O   UNL     1     111.943 126.034 136.138  0.00  0.00    +0.000 OA
ATOM     22  O   UNL     1     113.641 124.951 137.576  0.00  0.00    +0.000 OA
ATOM     23  O   UNL     1     112.290 124.120 137.126  0.00  0.00    +0.000 OA
ATOM     24  O   UNL     1     113.860 126.506 137.068  0.00  0.00    +0.000 OA
ATOM     25  C   UNL     1     113.075 125.312 137.097  0.00  0.00    +0.000 C 
ATOM     26  C   UNL     1     112.399 124.897 136.871  0.00  0.00    +0.000 C 
ATOM     27  C   UNL     1     113.185 126.090 136.842  0.00  0.00    +0.000 C 
ATOM     28  C   UNL     1     111.833 125.257 136.392  0.00  0.00    +0.000 C 
ATOM     29  C   UNL     1     112.619 126.451 136.363  0.00  0.00    +0.000 C 
BRANCH  28  31
ATOM     30  O   UNL     1     110.850 124.934 135.407  0.00  0.00    +0.000 OA
ATOM     31  C   UNL     1     111.158 124.841 136.167  0.00  0.00    +0.000 C 
ENDBRANCH  28  31
ENDBRANCH  20  29
ENDBRANCH   1  20
TORSDOF 4
ENDMDL
MODEL 9
REMARK VINA RESULT:      -8.8      7.714     10.767
REMARK  Name = 42607907
REMARK  4 active torsions:
REMARK  status: ('A' for Active; 'I' for Inactive)
REMARK    1  A    between atoms: O_2  and  C_15
REMARK    2  A    between atoms: O_2  and  C_18
REMARK    3  A    between atoms: C_14  and  C_16
REMARK    4  A    between atoms: C_17  and  C_19
REMARK                            x       y       z     vdW  Elec       q    Type
REMARK                         _______ _______ _______ _____ _____    ______ ____
ROOT
ATOM      1  C   UNL     1     104.431 128.336 142.160  0.00  0.00    +0.000 A 
ATOM      2  C   UNL     1     103.651 129.775 141.947  0.00  0.00    +0.000 A 
ATOM      3  C   UNL     1     104.328 128.849 142.799  0.00  0.00    +0.000 A 
ATOM      4  C   UNL     1     104.143 128.544 141.415  0.00  0.00    +0.000 A 
ATOM      5  C   UNL     1     103.938 129.569 142.692  0.00  0.00    +0.000 A 
ATOM      6  C   UNL     1     103.753 129.263 141.309  0.00  0.00    +0.000 A 
ENDROOT
BRANCH   2  11
ATOM      7  O   UNL     1     103.687 131.166 141.619  0.00  0.00    +0.000 OA
ATOM      8  O   UNL     1     101.240 131.308 141.962  0.00  0.00    +0.000 OA
ATOM      9  O   UNL     1     101.247 132.714 141.635  0.00  0.00    +0.000 OA
ATOM     10  O   UNL     1     103.779 133.998 140.948  0.00  0.00    +0.000 OA
ATOM     11  C   UNL     1     103.261 130.494 141.840  0.00  0.00    +0.000 C 
ATOM     12  C   UNL     1     102.445 130.542 141.954  0.00  0.00    +0.000 C 
ATOM     13  C   UNL     1     102.055 131.261 141.847  0.00  0.00    +0.000 C 
ATOM     14  C   UNL     1     102.481 131.932 141.626  0.00  0.00    +0.000 A 
ATOM     15  C   UNL     1     103.297 131.885 141.512  0.00  0.00    +0.000 A 
ATOM     16  C   UNL     1     102.063 132.676 141.518  0.00  0.00    +0.000 A 
ATOM     17  C   UNL     1     103.751 132.577 141.282  0.00  0.00    +0.000 A 
ATOM     18  C   UNL     1     103.351 133.328 141.169  0.00  0.00    +0.000 A 
ATOM     19  C   UNL     1     102.501 133.378 141.288  0.00  0.00    +0.000 A 
ENDBRANCH   2  11
BRANCH   1  20
ATOM     20  O   UNL     1     104.821 127.617 142.267  0.00  0.00    +0.000 OA
BRANCH  20  29
ATOM     21  O   UNL     1     106.130 128.140 142.032  0.00  0.00    +0.000 OA
ATOM     22  O   UNL     1     107.069 126.508 143.639  0.00  0.00    +0.000 OA
ATOM     23  O   UNL     1     108.064 127.573 142.869  0.00  0.00    +0.000 OA
ATOM     24  O   UNL     1     105.447 126.529 143.338  0.00  0.00    +0.000 OA
ATOM     25  C   UNL     1     106.756 127.052 143.104  0.00  0.00    +0.000 C 
ATOM     26  C   UNL     1     107.254 127.585 142.718  0.00  0.00    +0.000 C 
ATOM     27  C   UNL     1     105.944 127.063 142.953  0.00  0.00    +0.000 C 
ATOM     28  C   UNL     1     106.941 128.129 142.183  0.00  0.00    +0.000 C 
ATOM     29  C   UNL     1     105.631 127.607 142.417  0.00  0.00    +0.000 C 
BRANCH  28  31
ATOM     30  O   UNL     1     107.397 128.748 140.979  0.00  0.00    +0.000 OA
ATOM     31  C   UNL     1     107.439 128.661 141.798  0.00  0.00    +0.000 C 
ENDBRANCH  28  31
ENDBRANCH  20  29
ENDBRANCH   1  20
TORSDOF 4
ENDMDL
