MODEL 1
REMARK VINA RESULT:      -8.4      0.000      0.000
REMARK  Name = 15413154
REMARK  2 active torsions:
REMARK  status: ('A' for Active; 'I' for Inactive)
REMARK    1  A    between atoms: O_2  and  C_12
REMARK    2  A    between atoms: C_5  and  C_11
REMARK                            x       y       z     vdW  Elec       q    Type
REMARK                         _______ _______ _______ _____ _____    ______ ____
ROOT
ATOM      1  O   UNL     1     112.663 126.576 136.290  0.00  0.00    +0.000 OA
ATOM      2  O   UNL     1     110.730 124.985 135.906  0.00  0.00    +0.000 OA
ATOM      3  O   UNL     1     111.064 128.716 135.212  0.00  0.00    +0.000 OA
ATOM      4  C   UNL     1     112.749 125.749 136.505  0.00  0.00    +0.000 C 
ATOM      5  C   UNL     1     112.096 125.206 136.376  0.00  0.00    +0.000 C 
ATOM      6  C   UNL     1     111.295 126.330 135.825  0.00  0.00    +0.000 A 
ATOM      7  C   UNL     1     111.923 126.850 135.949  0.00  0.00    +0.000 A 
ATOM      8  C   UNL     1     111.364 125.498 136.034  0.00  0.00    +0.000 C 
ATOM      9  C   UNL     1     111.846 127.646 135.744  0.00  0.00    +0.000 A 
ATOM     10  C   UNL     1     110.591 126.604 135.497  0.00  0.00    +0.000 A 
ATOM     11  C   UNL     1     110.513 127.399 135.292  0.00  0.00    +0.000 A 
ATOM     12  C   UNL     1     111.141 127.920 135.416  0.00  0.00    +0.000 A 
ATOM     13  C   UNL     1     112.474 128.166 135.868  0.00  0.00    +0.000 C 
ATOM     14  C   UNL     1     109.808 127.675 134.964  0.00  0.00    +0.000 C 
ENDROOT
BRANCH   4  15
ATOM     15  C   UNL     1     113.456 125.477 136.833  0.00  0.00    +0.000 A 
ATOM     16  C   UNL     1     114.015 125.100 136.357  0.00  0.00    +0.000 A 
ATOM     17  C   UNL     1     113.604 125.583 137.637  0.00  0.00    +0.000 A 
ATOM     18  C   UNL     1     114.721 124.829 136.685  0.00  0.00    +0.000 A 
ATOM     19  C   UNL     1     114.311 125.312 137.966  0.00  0.00    +0.000 A 
ATOM     20  C   UNL     1     114.869 124.935 137.490  0.00  0.00    +0.000 A 
ENDBRANCH   4  15
BRANCH  10  21
ATOM     21  O   UNL     1     109.963 126.084 135.373  0.00  0.00    +0.000 OA
ATOM     22  C   UNL     1     109.796 125.811 134.612  0.00  0.00    +0.000 C 
ENDBRANCH  10  21
TORSDOF 2
ENDMDL
MODEL 2
REMARK VINA RESULT:      -8.4      0.663      1.939
REMARK  Name = 15413154
REMARK  2 active torsions:
REMARK  status: ('A' for Active; 'I' for Inactive)
REMARK    1  A    between atoms: O_2  and  C_12
REMARK    2  A    between atoms: C_5  and  C_11
REMARK                            x       y       z     vdW  Elec       q    Type
REMARK                         _______ _______ _______ _____ _____    ______ ____
ROOT
ATOM      1  O   UNL     1     112.241 125.819 136.199  0.00  0.00    +0.000 OA
ATOM      2  O   UNL     1     112.392 128.328 135.896  0.00  0.00    +0.000 OA
ATOM      3  O   UNL     1     109.671 125.856 134.899  0.00  0.00    +0.000 OA
ATOM      4  C   UNL     1     112.935 126.236 136.486  0.00  0.00    +0.000 C 
ATOM      5  C   UNL     1     112.989 127.087 136.384  0.00  0.00    +0.000 C 
ATOM      6  C   UNL     1     111.662 127.076 135.718  0.00  0.00    +0.000 A 
ATOM      7  C   UNL     1     111.610 126.258 135.815  0.00  0.00    +0.000 A 
ATOM      8  C   UNL     1     112.349 127.510 135.998  0.00  0.00    +0.000 C 
ATOM      9  C   UNL     1     110.947 125.851 135.542  0.00  0.00    +0.000 A 
ATOM     10  C   UNL     1     111.051 127.486 135.347  0.00  0.00    +0.000 A 
ATOM     11  C   UNL     1     110.387 127.080 135.075  0.00  0.00    +0.000 A 
ATOM     12  C   UNL     1     110.335 126.263 135.172  0.00  0.00    +0.000 A 
ATOM     13  C   UNL     1     110.894 125.034 135.640  0.00  0.00    +0.000 C 
ATOM     14  C   UNL     1     109.775 127.491 134.704  0.00  0.00    +0.000 C 
ENDROOT
BRANCH   4  15
ATOM     15  C   UNL     1     113.545 125.822 136.856  0.00  0.00    +0.000 A 
ATOM     16  C   UNL     1     113.590 125.799 137.679  0.00  0.00    +0.000 A 
ATOM     17  C   UNL     1     114.112 125.429 136.401  0.00  0.00    +0.000 A 
ATOM     18  C   UNL     1     114.200 125.385 138.048  0.00  0.00    +0.000 A 
ATOM     19  C   UNL     1     114.722 125.015 136.770  0.00  0.00    +0.000 A 
ATOM     20  C   UNL     1     114.766 124.992 137.594  0.00  0.00    +0.000 A 
ENDBRANCH   4  15
BRANCH  10  21
ATOM     21  O   UNL     1     111.103 128.304 135.250  0.00  0.00    +0.000 OA
ATOM     22  C   UNL     1     110.695 128.807 135.760  0.00  0.00    +0.000 C 
ENDBRANCH  10  21
TORSDOF 2
ENDMDL
MODEL 3
REMARK VINA RESULT:      -8.4      1.166      4.253
REMARK  Name = 15413154
REMARK  2 active torsions:
REMARK  status: ('A' for Active; 'I' for Inactive)
REMARK    1  A    between atoms: O_2  and  C_12
REMARK    2  A    between atoms: C_5  and  C_11
REMARK                            x       y       z     vdW  Elec       q    Type
REMARK                         _______ _______ _______ _____ _____    ______ ____
ROOT
ATOM      1  O   UNL     1     111.572 125.165 136.220  0.00  0.00    +0.000 OA
ATOM      2  O   UNL     1     113.227 127.080 136.278  0.00  0.00    +0.000 OA
ATOM      3  O   UNL     1     113.601 123.430 137.303  0.00  0.00    +0.000 OA
ATOM      4  C   UNL     1     111.326 125.942 135.948  0.00  0.00    +0.000 C 
ATOM      5  C   UNL     1     111.885 126.594 135.967  0.00  0.00    +0.000 C 
ATOM      6  C   UNL     1     112.911 125.676 136.524  0.00  0.00    +0.000 A 
ATOM      7  C   UNL     1     112.374 125.050 136.507  0.00  0.00    +0.000 A 
ATOM      8  C   UNL     1     112.683 126.460 136.256  0.00  0.00    +0.000 C 
ATOM      9  C   UNL     1     112.604 124.301 136.766  0.00  0.00    +0.000 A 
ATOM     10  C   UNL     1     113.678 125.553 136.801  0.00  0.00    +0.000 A 
ATOM     11  C   UNL     1     113.908 124.805 137.061  0.00  0.00    +0.000 A 
ATOM     12  C   UNL     1     113.371 124.179 137.043  0.00  0.00    +0.000 A 
ATOM     13  C   UNL     1     112.067 123.675 136.748  0.00  0.00    +0.000 C 
ATOM     14  C   UNL     1     114.675 124.682 137.338  0.00  0.00    +0.000 C 
ENDROOT
BRANCH   4  15
ATOM     15  C   UNL     1     110.558 126.061 135.671  0.00  0.00    +0.000 A 
ATOM     16  C   UNL     1     109.992 126.411 136.159  0.00  0.00    +0.000 A 
ATOM     17  C   UNL     1     110.355 125.828 134.906  0.00  0.00    +0.000 A 
ATOM     18  C   UNL     1     109.224 126.529 135.882  0.00  0.00    +0.000 A 
ATOM     19  C   UNL     1     109.587 125.947 134.628  0.00  0.00    +0.000 A 
ATOM     20  C   UNL     1     109.022 126.297 135.116  0.00  0.00    +0.000 A 
ENDBRANCH   4  15
BRANCH  10  21
ATOM     21  O   UNL     1     114.215 126.179 136.819  0.00  0.00    +0.000 OA
ATOM     22  C   UNL     1     114.785 126.251 136.228  0.00  0.00    +0.000 C 
ENDBRANCH  10  21
TORSDOF 2
ENDMDL
MODEL 4
REMARK VINA RESULT:      -8.3      1.328      3.274
REMARK  Name = 15413154
REMARK  2 active torsions:
REMARK  status: ('A' for Active; 'I' for Inactive)
REMARK    1  A    between atoms: O_2  and  C_12
REMARK    2  A    between atoms: C_5  and  C_11
REMARK                            x       y       z     vdW  Elec       q    Type
REMARK                         _______ _______ _______ _____ _____    ______ ____
ROOT
ATOM      1  O   UNL     1     113.597 126.872 136.485  0.00  0.00    +0.000 OA
ATOM      2  O   UNL     1     111.102 126.630 136.129  0.00  0.00    +0.000 OA
ATOM      3  O   UNL     1     113.758 124.043 137.004  0.00  0.00    +0.000 OA
ATOM      4  C   UNL     1     113.130 127.566 136.290  0.00  0.00    +0.000 C 
ATOM      5  C   UNL     1     112.284 127.487 136.168  0.00  0.00    +0.000 C 
ATOM      6  C   UNL     1     112.398 126.032 136.440  0.00  0.00    +0.000 A 
ATOM      7  C   UNL     1     113.211 126.108 136.557  0.00  0.00    +0.000 A 
ATOM      8  C   UNL     1     111.915 126.715 136.244  0.00  0.00    +0.000 C 
ATOM      9  C   UNL     1     113.665 125.445 136.745  0.00  0.00    +0.000 A 
ATOM     10  C   UNL     1     112.038 125.293 136.511  0.00  0.00    +0.000 A 
ATOM     11  C   UNL     1     112.491 124.631 136.699  0.00  0.00    +0.000 A 
ATOM     12  C   UNL     1     113.304 124.706 136.816  0.00  0.00    +0.000 A 
ATOM     13  C   UNL     1     114.478 125.521 136.861  0.00  0.00    +0.000 C 
ATOM     14  C   UNL     1     112.132 123.891 136.770  0.00  0.00    +0.000 C 
ENDROOT
BRANCH   4  15
ATOM     15  C   UNL     1     113.494 128.304 136.220  0.00  0.00    +0.000 A 
ATOM     16  C   UNL     1     113.902 128.500 135.530  0.00  0.00    +0.000 A 
ATOM     17  C   UNL     1     113.448 128.847 136.840  0.00  0.00    +0.000 A 
ATOM     18  C   UNL     1     114.265 129.237 135.460  0.00  0.00    +0.000 A 
ATOM     19  C   UNL     1     113.811 129.584 136.770  0.00  0.00    +0.000 A 
ATOM     20  C   UNL     1     114.219 129.780 136.080  0.00  0.00    +0.000 A 
ENDBRANCH   4  15
BRANCH  10  21
ATOM     21  O   UNL     1     111.225 125.217 136.394  0.00  0.00    +0.000 OA
ATOM     22  C   UNL     1     110.931 125.022 135.649  0.00  0.00    +0.000 C 
ENDBRANCH  10  21
TORSDOF 2
ENDMDL
MODEL 5
REMARK VINA RESULT:      -8.3      2.215      3.589
REMARK  Name = 15413154
REMARK  2 active torsions:
REMARK  status: ('A' for Active; 'I' for Inactive)
REMARK    1  A    between atoms: O_2  and  C_12
REMARK    2  A    between atoms: C_5  and  C_11
REMARK                            x       y       z     vdW  Elec       q    Type
REMARK                         _______ _______ _______ _____ _____    ______ ____
ROOT
ATOM      1  O   UNL     1     113.657 126.103 138.579  0.00  0.00    +0.000 OA
ATOM      2  O   UNL     1     111.139 125.838 138.568  0.00  0.00    +0.000 OA
ATOM      3  O   UNL     1     113.824 124.233 136.394  0.00  0.00    +0.000 OA
ATOM      4  C   UNL     1     113.185 126.544 139.145  0.00  0.00    +0.000 C 
ATOM      5  C   UNL     1     112.330 126.456 139.144  0.00  0.00    +0.000 C 
ATOM      6  C   UNL     1     112.448 125.496 138.018  0.00  0.00    +0.000 A 
ATOM      7  C   UNL     1     113.268 125.580 138.019  0.00  0.00    +0.000 A 
ATOM      8  C   UNL     1     111.959 125.929 138.577  0.00  0.00    +0.000 C 
ATOM      9  C   UNL     1     113.727 125.159 137.478  0.00  0.00    +0.000 A 
ATOM     10  C   UNL     1     112.086 124.991 137.475  0.00  0.00    +0.000 A 
ATOM     11  C   UNL     1     112.544 124.570 136.935  0.00  0.00    +0.000 A 
ATOM     12  C   UNL     1     113.365 124.654 136.936  0.00  0.00    +0.000 A 
ATOM     13  C   UNL     1     114.548 125.244 137.479  0.00  0.00    +0.000 C 
ATOM     14  C   UNL     1     112.183 124.064 136.392  0.00  0.00    +0.000 C 
ENDROOT
BRANCH   4  15
ATOM     15  C   UNL     1     113.550 127.049 139.686  0.00  0.00    +0.000 A 
ATOM     16  C   UNL     1     113.971 126.737 140.323  0.00  0.00    +0.000 A 
ATOM     17  C   UNL     1     113.495 127.867 139.590  0.00  0.00    +0.000 A 
ATOM     18  C   UNL     1     114.336 127.242 140.864  0.00  0.00    +0.000 A 
ATOM     19  C   UNL     1     113.860 128.372 140.130  0.00  0.00    +0.000 A 
ATOM     20  C   UNL     1     114.280 128.059 140.767  0.00  0.00    +0.000 A 
ENDBRANCH   4  15
BRANCH  10  21
ATOM     21  O   UNL     1     111.265 124.906 137.474  0.00  0.00    +0.000 OA
ATOM     22  C   UNL     1     110.807 125.331 136.936  0.00  0.00    +0.000 C 
ENDBRANCH  10  21
TORSDOF 2
ENDMDL
MODEL 6
REMARK VINA RESULT:      -8.2     10.410     12.177
REMARK  Name = 15413154
REMARK  2 active torsions:
REMARK  status: ('A' for Active; 'I' for Inactive)
REMARK    1  A    between atoms: O_2  and  C_12
REMARK    2  A    between atoms: C_5  and  C_11
REMARK                            x       y       z     vdW  Elec       q    Type
REMARK                         _______ _______ _______ _____ _____    ______ ____
ROOT
ATOM      1  O   UNL     1     102.537 130.596 141.555  0.00  0.00    +0.000 OA
ATOM      2  O   UNL     1     103.923 130.192 143.634  0.00  0.00    +0.000 OA
ATOM      3  O   UNL     1     103.695 128.238 140.372  0.00  0.00    +0.000 OA
ATOM      4  C   UNL     1     102.472 131.140 142.216  0.00  0.00    +0.000 C 
ATOM      5  C   UNL     1     102.941 131.006 142.923  0.00  0.00    +0.000 C 
ATOM      6  C   UNL     1     103.521 129.795 142.288  0.00  0.00    +0.000 A 
ATOM      7  C   UNL     1     103.070 129.924 141.609  0.00  0.00    +0.000 A 
ATOM      8  C   UNL     1     103.469 130.329 142.960  0.00  0.00    +0.000 C 
ATOM      9  C   UNL     1     103.128 129.405 140.970  0.00  0.00    +0.000 A 
ATOM     10  C   UNL     1     104.029 129.147 142.328  0.00  0.00    +0.000 A 
ATOM     11  C   UNL     1     104.087 128.628 141.690  0.00  0.00    +0.000 A 
ATOM     12  C   UNL     1     103.637 128.757 141.011  0.00  0.00    +0.000 A 
ATOM     13  C   UNL     1     102.678 129.534 140.291  0.00  0.00    +0.000 C 
ATOM     14  C   UNL     1     104.596 127.980 141.730  0.00  0.00    +0.000 C 
ENDROOT
BRANCH   4  15
ATOM     15  C   UNL     1     101.962 131.788 142.172  0.00  0.00    +0.000 A 
ATOM     16  C   UNL     1     102.193 132.469 141.768  0.00  0.00    +0.000 A 
ATOM     17  C   UNL     1     101.221 131.754 142.533  0.00  0.00    +0.000 A 
ATOM     18  C   UNL     1     101.683 133.116 141.724  0.00  0.00    +0.000 A 
ATOM     19  C   UNL     1     100.710 132.400 142.489  0.00  0.00    +0.000 A 
ATOM     20  C   UNL     1     100.941 133.081 142.085  0.00  0.00    +0.000 A 
ENDBRANCH   4  15
BRANCH  10  21
ATOM     21  O   UNL     1     104.480 129.018 143.007  0.00  0.00    +0.000 OA
ATOM     22  C   UNL     1     105.260 129.282 143.041  0.00  0.00    +0.000 C 
ENDBRANCH  10  21
TORSDOF 2
ENDMDL
MODEL 7
REMARK VINA RESULT:      -8.2     12.969     13.804
REMARK  Name = 15413154
REMARK  2 active torsions:
REMARK  status: ('A' for Active; 'I' for Inactive)
REMARK    1  A    between atoms: O_2  and  C_12
REMARK    2  A    between atoms: C_5  and  C_11
REMARK                            x       y       z     vdW  Elec       q    Type
REMARK                         _______ _______ _______ _____ _____    ______ ____
ROOT
ATOM      1  O   UNL     1     104.392 124.501 146.465  0.00  0.00    +0.000 OA
ATOM      2  O   UNL     1     104.994 124.598 148.922  0.00  0.00    +0.000 OA
ATOM      3  O   UNL     1     107.057 125.385 145.817  0.00  0.00    +0.000 OA
ATOM      4  C   UNL     1     103.802 124.288 147.051  0.00  0.00    +0.000 C 
ATOM      5  C   UNL     1     104.003 124.320 147.886  0.00  0.00    +0.000 C 
ATOM      6  C   UNL     1     105.369 124.774 147.522  0.00  0.00    +0.000 A 
ATOM      7  C   UNL     1     105.176 124.744 146.720  0.00  0.00    +0.000 A 
ATOM      8  C   UNL     1     104.792 124.565 148.123  0.00  0.00    +0.000 C 
ATOM      9  C   UNL     1     105.738 124.947 146.152  0.00  0.00    +0.000 A 
ATOM     10  C   UNL     1     106.125 125.009 147.755  0.00  0.00    +0.000 A 
ATOM     11  C   UNL     1     106.687 125.212 147.187  0.00  0.00    +0.000 A 
ATOM     12  C   UNL     1     106.494 125.182 146.386  0.00  0.00    +0.000 A 
ATOM     13  C   UNL     1     105.545 124.917 145.350  0.00  0.00    +0.000 C 
ATOM     14  C   UNL     1     107.443 125.447 147.420  0.00  0.00    +0.000 C 
ENDROOT
BRANCH   4  15
ATOM     15  C   UNL     1     103.047 124.054 146.814  0.00  0.00    +0.000 A 
ATOM     16  C   UNL     1     102.934 123.316 146.464  0.00  0.00    +0.000 A 
ATOM     17  C   UNL     1     102.405 124.560 146.927  0.00  0.00    +0.000 A 
ATOM     18  C   UNL     1     102.179 123.083 146.228  0.00  0.00    +0.000 A 
ATOM     19  C   UNL     1     101.649 124.327 146.691  0.00  0.00    +0.000 A 
ATOM     20  C   UNL     1     101.537 123.588 146.341  0.00  0.00    +0.000 A 
ENDBRANCH   4  15
BRANCH  10  21
ATOM     21  O   UNL     1     106.318 125.039 148.556  0.00  0.00    +0.000 OA
ATOM     22  C   UNL     1     106.767 124.436 148.896  0.00  0.00    +0.000 C 
ENDBRANCH  10  21
TORSDOF 2
ENDMDL
MODEL 8
REMARK VINA RESULT:      -8.1     13.474     14.010
REMARK  Name = 15413154
REMARK  2 active torsions:
REMARK  status: ('A' for Active; 'I' for Inactive)
REMARK    1  A    between atoms: O_2  and  C_12
REMARK    2  A    between atoms: C_5  and  C_11
REMARK                            x       y       z     vdW  Elec       q    Type
REMARK                         _______ _______ _______ _____ _____    ______ ____
ROOT
ATOM      1  O   UNL     1     105.030 124.473 147.209  0.00  0.00    +0.000 OA
ATOM      2  O   UNL     1     103.510 125.523 148.941  0.00  0.00    +0.000 OA
ATOM      3  O   UNL     1     102.703 123.598 145.754  0.00  0.00    +0.000 OA
ATOM      4  C   UNL     1     105.376 124.879 147.882  0.00  0.00    +0.000 C 
ATOM      5  C   UNL     1     104.863 125.236 148.472  0.00  0.00    +0.000 C 
ATOM      6  C   UNL     1     103.682 124.773 147.700  0.00  0.00    +0.000 A 
ATOM      7  C   UNL     1     104.175 124.429 147.134  0.00  0.00    +0.000 A 
ATOM      8  C   UNL     1     104.011 125.183 148.380  0.00  0.00    +0.000 C 
ATOM      9  C   UNL     1     103.849 124.038 146.485  0.00  0.00    +0.000 A 
ATOM     10  C   UNL     1     102.864 124.724 147.617  0.00  0.00    +0.000 A 
ATOM     11  C   UNL     1     102.537 124.333 146.969  0.00  0.00    +0.000 A 
ATOM     12  C   UNL     1     103.030 123.990 146.403  0.00  0.00    +0.000 A 
ATOM     13  C   UNL     1     104.341 123.695 145.919  0.00  0.00    +0.000 C 
ATOM     14  C   UNL     1     101.717 124.285 146.886  0.00  0.00    +0.000 C 
ENDROOT
BRANCH   4  15
ATOM     15  C   UNL     1     106.197 124.926 147.962  0.00  0.00    +0.000 A 
ATOM     16  C   UNL     1     106.633 125.420 147.465  0.00  0.00    +0.000 A 
ATOM     17  C   UNL     1     106.581 124.478 148.539  0.00  0.00    +0.000 A 
ATOM     18  C   UNL     1     107.452 125.465 147.545  0.00  0.00    +0.000 A 
ATOM     19  C   UNL     1     107.400 124.523 148.619  0.00  0.00    +0.000 A 
ATOM     20  C   UNL     1     107.836 125.017 148.122  0.00  0.00    +0.000 A 
ENDBRANCH   4  15
BRANCH  10  21
ATOM     21  O   UNL     1     102.371 125.067 148.183  0.00  0.00    +0.000 OA
ATOM     22  C   UNL     1     102.001 124.595 148.749  0.00  0.00    +0.000 C 
ENDBRANCH  10  21
TORSDOF 2
ENDMDL
MODEL 9
REMARK VINA RESULT:      -8.1     13.421     14.270
REMARK  Name = 15413154
REMARK  2 active torsions:
REMARK  status: ('A' for Active; 'I' for Inactive)
REMARK    1  A    between atoms: O_2  and  C_12
REMARK    2  A    between atoms: C_5  and  C_11
REMARK                            x       y       z     vdW  Elec       q    Type
REMARK                         _______ _______ _______ _____ _____    ______ ____
ROOT
ATOM      1  O   UNL     1     103.698 124.285 147.701  0.00  0.00    +0.000 OA
ATOM      2  O   UNL     1     105.319 124.219 145.756  0.00  0.00    +0.000 OA
ATOM      3  O   UNL     1     105.830 125.226 149.395  0.00  0.00    +0.000 OA
ATOM      4  C   UNL     1     103.420 124.029 146.929  0.00  0.00    +0.000 C 
ATOM      5  C   UNL     1     103.968 124.006 146.268  0.00  0.00    +0.000 C 
ATOM      6  C   UNL     1     105.047 124.492 147.165  0.00  0.00    +0.000 A 
ATOM      7  C   UNL     1     104.521 124.514 147.800  0.00  0.00    +0.000 A 
ATOM      8  C   UNL     1     104.786 124.238 146.386  0.00  0.00    +0.000 C 
ATOM      9  C   UNL     1     104.782 124.759 148.544  0.00  0.00    +0.000 A 
ATOM     10  C   UNL     1     105.833 124.714 147.273  0.00  0.00    +0.000 A 
ATOM     11  C   UNL     1     106.095 124.958 148.015  0.00  0.00    +0.000 A 
ATOM     12  C   UNL     1     105.569 124.981 148.651  0.00  0.00    +0.000 A 
ATOM     13  C   UNL     1     104.256 124.782 149.179  0.00  0.00    +0.000 C 
ATOM     14  C   UNL     1     106.882 125.181 148.124  0.00  0.00    +0.000 C 
ENDROOT
BRANCH   4  15
ATOM     15  C   UNL     1     102.632 123.808 146.825  0.00  0.00    +0.000 A 
ATOM     16  C   UNL     1     102.045 124.384 146.767  0.00  0.00    +0.000 A 
ATOM     17  C   UNL     1     102.431 123.009 146.780  0.00  0.00    +0.000 A 
ATOM     18  C   UNL     1     101.257 124.162 146.662  0.00  0.00    +0.000 A 
ATOM     19  C   UNL     1     101.644 122.786 146.676  0.00  0.00    +0.000 A 
ATOM     20  C   UNL     1     101.057 123.363 146.617  0.00  0.00    +0.000 A 
ENDBRANCH   4  15
BRANCH  10  21
ATOM     21  O   UNL     1     106.359 124.691 146.637  0.00  0.00    +0.000 OA
ATOM     22  C   UNL     1     106.591 125.391 146.268  0.00  0.00    +0.000 C 
ENDBRANCH  10  21
TORSDOF 2
ENDMDL
MODEL 10
REMARK VINA RESULT:      -8.0      2.796      3.926
REMARK  Name = 15413154
REMARK  2 active torsions:
REMARK  status: ('A' for Active; 'I' for Inactive)
REMARK    1  A    between atoms: O_2  and  C_12
REMARK    2  A    between atoms: C_5  and  C_11
REMARK                            x       y       z     vdW  Elec       q    Type
REMARK                         _______ _______ _______ _____ _____    ______ ____
ROOT
ATOM      1  O   UNL     1     113.578 126.306 138.896  0.00  0.00    +0.000 OA
ATOM      2  O   UNL     1     111.125 125.709 138.702  0.00  0.00    +0.000 OA
ATOM      3  O   UNL     1     113.054 127.451 141.487  0.00  0.00    +0.000 OA
ATOM      4  C   UNL     1     113.296 125.907 138.189  0.00  0.00    +0.000 C 
ATOM      5  C   UNL     1     112.464 125.703 138.121  0.00  0.00    +0.000 C 
ATOM      6  C   UNL     1     112.225 126.300 139.459  0.00  0.00    +0.000 A 
ATOM      7  C   UNL     1     113.023 126.496 139.525  0.00  0.00    +0.000 A 
ATOM      8  C   UNL     1     111.925 125.900 138.759  0.00  0.00    +0.000 C 
ATOM      9  C   UNL     1     113.300 126.880 140.201  0.00  0.00    +0.000 A 
ATOM     10  C   UNL     1     111.703 126.488 140.069  0.00  0.00    +0.000 A 
ATOM     11  C   UNL     1     111.978 126.871 140.745  0.00  0.00    +0.000 A 
ATOM     12  C   UNL     1     112.777 127.067 140.811  0.00  0.00    +0.000 A 
ATOM     13  C   UNL     1     114.099 127.076 140.267  0.00  0.00    +0.000 C 
ATOM     14  C   UNL     1     111.456 127.059 141.355  0.00  0.00    +0.000 C 
ENDROOT
BRANCH   4  15
ATOM     15  C   UNL     1     113.822 125.720 137.581  0.00  0.00    +0.000 A 
ATOM     16  C   UNL     1     114.270 125.029 137.620  0.00  0.00    +0.000 A 
ATOM     17  C   UNL     1     113.898 126.226 136.933  0.00  0.00    +0.000 A 
ATOM     18  C   UNL     1     114.796 124.844 137.011  0.00  0.00    +0.000 A 
ATOM     19  C   UNL     1     114.423 126.041 136.325  0.00  0.00    +0.000 A 
ATOM     20  C   UNL     1     114.872 125.350 136.363  0.00  0.00    +0.000 A 
ENDBRANCH   4  15
BRANCH  10  21
ATOM     21  O   UNL     1     110.904 126.292 140.003  0.00  0.00    +0.000 OA
ATOM     22  C   UNL     1     110.353 126.869 139.794  0.00  0.00    +0.000 C 
ENDBRANCH  10  21
TORSDOF 2
ENDMDL
