MODEL 1
REMARK VINA RESULT:     -11.8      0.000      0.000
REMARK  Name = 44259002
REMARK  10 active torsions:
REMARK  status: ('A' for Active; 'I' for Inactive)
REMARK    1  A    between atoms: O_2  and  C_24
REMARK    2  A    between atoms: O_2  and  C_34
REMARK    3  A    between atoms: O_4  and  C_32
REMARK    4  A    between atoms: O_4  and  C_35
REMARK    5  A    between atoms: O_5  and  C_28
REMARK    6  A    between atoms: O_5  and  C_40
REMARK    7  A    between atoms: O_9  and  C_30
REMARK    8  A    between atoms: O_9  and  C_47
REMARK    9  A    between atoms: C_26  and  C_35
REMARK   10  A    between atoms: C_48  and  C_51
REMARK                            x       y       z     vdW  Elec       q    Type
REMARK                         _______ _______ _______ _____ _____    ______ ____
ROOT
ATOM      1  O   UNL     1     111.355 128.162 138.550  0.00  0.00    +0.000 OA
ATOM      2  O   UNL     1     110.838 125.794 139.051  0.00  0.00    +0.000 OA
ATOM      3  O   UNL     1     109.710 126.964 139.340  0.00  0.00    +0.000 OA
ATOM      4  C   UNL     1     111.747 126.787 138.573  0.00  0.00    +0.000 C 
ATOM      5  C   UNL     1     111.010 126.583 138.884  0.00  0.00    +0.000 C 
ATOM      6  C   UNL     1     110.619 127.957 138.862  0.00  0.00    +0.000 C 
ATOM      7  C   UNL     1     110.447 127.168 139.029  0.00  0.00    +0.000 C 
ATOM      8  C   UNL     1     111.919 127.576 138.406  0.00  0.00    +0.000 C 
ENDROOT
BRANCH   4   9
ATOM      9  O   UNL     1     112.310 126.203 138.429  0.00  0.00    +0.000 OA
BRANCH   9  14
ATOM     10  O   UNL     1     111.633 125.847 137.222  0.00  0.00    +0.000 OA
ATOM     11  O   UNL     1     113.413 125.004 138.163  0.00  0.00    +0.000 OA
ATOM     12  O   UNL     1     113.287 124.050 136.823  0.00  0.00    +0.000 OA
ATOM     13  O   UNL     1     112.058 124.294 135.749  0.00  0.00    +0.000 OA
ATOM     14  C   UNL     1     112.247 125.726 137.759  0.00  0.00    +0.000 C 
ATOM     15  C   UNL     1     112.799 125.126 137.626  0.00  0.00    +0.000 C 
ATOM     16  C   UNL     1     112.736 124.649 136.955  0.00  0.00    +0.000 C 
ATOM     17  C   UNL     1     112.121 124.771 136.419  0.00  0.00    +0.000 C 
ATOM     18  C   UNL     1     111.570 125.370 136.551  0.00  0.00    +0.000 C 
ATOM     19  C   UNL     1     110.955 125.493 136.015  0.00  0.00    +0.000 C 
ENDBRANCH   9  14
ENDBRANCH   4   9
BRANCH   8  20
ATOM     20  O   UNL     1     112.655 127.781 138.095  0.00  0.00    +0.000 OA
BRANCH  20  25
ATOM     21  O   UNL     1     113.641 129.728 138.085  0.00  0.00    +0.000 OA
ATOM     22  O   UNL     1     112.994 127.966 139.699  0.00  0.00    +0.000 OA
ATOM     23  O   UNL     1     113.547 128.726 140.794  0.00  0.00    +0.000 OA
ATOM     24  O   UNL     1     114.778 131.317 140.245  0.00  0.00    +0.000 OA
ATOM     25  C   UNL     1     113.040 128.461 138.359  0.00  0.00    +0.000 A 
ATOM     26  C   UNL     1     113.256 129.048 137.821  0.00  0.00    +0.000 A 
ATOM     27  C   UNL     1     113.210 128.554 139.161  0.00  0.00    +0.000 A 
ATOM     28  C   UNL     1     113.595 129.233 139.425  0.00  0.00    +0.000 A 
ATOM     29  C   UNL     1     113.811 129.821 138.888  0.00  0.00    +0.000 A 
ATOM     30  C   UNL     1     113.767 129.319 140.263  0.00  0.00    +0.000 A 
ATOM     31  C   UNL     1     114.213 130.533 139.151  0.00  0.00    +0.000 A 
ATOM     32  C   UNL     1     114.168 130.024 140.545  0.00  0.00    +0.000 A 
ATOM     33  C   UNL     1     114.392 130.635 139.985  0.00  0.00    +0.000 A 
BRANCH  26  35
ATOM     34  O   UNL     1     112.578 128.678 134.612  0.00  0.00    +0.000 OA
ATOM     35  C   UNL     1     113.086 128.956 137.019  0.00  0.00    +0.000 A 
ATOM     36  C   UNL     1     113.579 128.496 136.544  0.00  0.00    +0.000 A 
ATOM     37  C   UNL     1     112.425 129.324 136.693  0.00  0.00    +0.000 A 
ATOM     38  C   UNL     1     113.410 128.403 135.742  0.00  0.00    +0.000 A 
ATOM     39  C   UNL     1     112.255 129.231 135.890  0.00  0.00    +0.000 A 
ATOM     40  C   UNL     1     112.747 128.771 135.415  0.00  0.00    +0.000 A 
ENDBRANCH  26  35
ENDBRANCH  20  25
ENDBRANCH   8  20
BRANCH   6  41
ATOM     41  C   UNL     1     110.055 128.542 139.006  0.00  0.00    +0.000 C 
BRANCH  41  42
ATOM     42  O   UNL     1     109.719 128.955 138.375  0.00  0.00    +0.000 OA
BRANCH  42  49
ATOM     43  O   UNL     1     109.882 130.204 139.050  0.00  0.00    +0.000 OA
ATOM     44  O   UNL     1     108.601 129.641 137.375  0.00  0.00    +0.000 OA
ATOM     45  O   UNL     1     108.927 132.139 138.724  0.00  0.00    +0.000 OA
ATOM     46  C   UNL     1     108.764 130.891 138.050  0.00  0.00    +0.000 C 
ATOM     47  C   UNL     1     108.962 130.094 137.962  0.00  0.00    +0.000 C 
ATOM     48  C   UNL     1     109.125 131.344 138.637  0.00  0.00    +0.000 C 
ATOM     49  C   UNL     1     109.521 129.751 138.463  0.00  0.00    +0.000 C 
ATOM     50  C   UNL     1     109.684 131.000 139.137  0.00  0.00    +0.000 C 
ATOM     51  C   UNL     1     110.045 131.453 139.725  0.00  0.00    +0.000 C 
BRANCH  46  52
ATOM     52  O   UNL     1     108.204 131.233 137.549  0.00  0.00    +0.000 OA
BRANCH  52  57
ATOM     53  O   UNL     1     109.235 131.654 136.653  0.00  0.00    +0.000 OA
ATOM     54  O   UNL     1     107.068 131.579 136.404  0.00  0.00    +0.000 OA
ATOM     55  O   UNL     1     107.530 132.172 134.935  0.00  0.00    +0.000 OA
ATOM     56  O   UNL     1     109.129 132.420 134.612  0.00  0.00    +0.000 OA
ATOM     57  C   UNL     1     108.436 131.530 136.814  0.00  0.00    +0.000 C 
ATOM     58  C   UNL     1     107.867 131.702 136.242  0.00  0.00    +0.000 C 
ATOM     59  C   UNL     1     108.099 131.999 135.508  0.00  0.00    +0.000 C 
ATOM     60  C   UNL     1     108.899 132.123 135.347  0.00  0.00    +0.000 C 
ATOM     61  C   UNL     1     109.466 131.950 135.919  0.00  0.00    +0.000 C 
ENDBRANCH  52  57
ENDBRANCH  46  52
ENDBRANCH  42  49
ENDBRANCH  41  42
ENDBRANCH   6  41
TORSDOF 10
ENDMDL
MODEL 2
REMARK VINA RESULT:     -11.7      1.971      4.476
REMARK  Name = 44259002
REMARK  10 active torsions:
REMARK  status: ('A' for Active; 'I' for Inactive)
REMARK    1  A    between atoms: O_2  and  C_24
REMARK    2  A    between atoms: O_2  and  C_34
REMARK    3  A    between atoms: O_4  and  C_32
REMARK    4  A    between atoms: O_4  and  C_35
REMARK    5  A    between atoms: O_5  and  C_28
REMARK    6  A    between atoms: O_5  and  C_40
REMARK    7  A    between atoms: O_9  and  C_30
REMARK    8  A    between atoms: O_9  and  C_47
REMARK    9  A    between atoms: C_26  and  C_35
REMARK   10  A    between atoms: C_48  and  C_51
REMARK                            x       y       z     vdW  Elec       q    Type
REMARK                         _______ _______ _______ _____ _____    ______ ____
ROOT
ATOM      1  O   UNL     1     112.236 128.026 138.675  0.00  0.00    +0.000 OA
ATOM      2  O   UNL     1     111.860 125.647 139.244  0.00  0.00    +0.000 OA
ATOM      3  O   UNL     1     112.467 126.681 140.378  0.00  0.00    +0.000 OA
ATOM      4  C   UNL     1     111.807 126.716 138.297  0.00  0.00    +0.000 C 
ATOM      5  C   UNL     1     111.985 126.440 139.055  0.00  0.00    +0.000 C 
ATOM      6  C   UNL     1     112.414 127.750 139.431  0.00  0.00    +0.000 C 
ATOM      7  C   UNL     1     112.289 126.957 139.621  0.00  0.00    +0.000 C 
ATOM      8  C   UNL     1     111.933 127.509 138.108  0.00  0.00    +0.000 C 
ENDROOT
BRANCH   4   9
ATOM      9  O   UNL     1     111.504 126.200 137.731  0.00  0.00    +0.000 OA
BRANCH   9  14
ATOM     10  O   UNL     1     112.820 125.728 137.435  0.00  0.00    +0.000 OA
ATOM     11  O   UNL     1     110.863 124.971 136.835  0.00  0.00    +0.000 OA
ATOM     12  O   UNL     1     111.859 123.885 136.092  0.00  0.00    +0.000 OA
ATOM     13  O   UNL     1     113.496 124.028 136.245  0.00  0.00    +0.000 OA
ATOM     14  C   UNL     1     112.002 125.657 137.359  0.00  0.00    +0.000 C 
ATOM     15  C   UNL     1     111.682 125.042 136.911  0.00  0.00    +0.000 C 
ATOM     16  C   UNL     1     112.179 124.499 136.540  0.00  0.00    +0.000 C 
ATOM     17  C   UNL     1     112.998 124.571 136.617  0.00  0.00    +0.000 C 
ATOM     18  C   UNL     1     113.318 125.185 137.064  0.00  0.00    +0.000 C 
ATOM     19  C   UNL     1     114.137 125.256 137.141  0.00  0.00    +0.000 C 
ENDBRANCH   9  14
ENDBRANCH   4   9
BRANCH   8  20
ATOM     20  O   UNL     1     111.755 127.786 137.351  0.00  0.00    +0.000 OA
BRANCH  20  25
ATOM     21  O   UNL     1     111.368 129.833 136.700  0.00  0.00    +0.000 OA
ATOM     22  O   UNL     1     110.301 128.073 138.076  0.00  0.00    +0.000 OA
ATOM     23  O   UNL     1     109.180 128.935 138.361  0.00  0.00    +0.000 OA
ATOM     24  O   UNL     1     109.138 131.628 137.232  0.00  0.00    +0.000 OA
ATOM     25  C   UNL     1     111.384 128.516 137.255  0.00  0.00    +0.000 A 
ATOM     26  C   UNL     1     111.740 129.102 136.796  0.00  0.00    +0.000 A 
ATOM     27  C   UNL     1     110.657 128.659 137.617  0.00  0.00    +0.000 A 
ATOM     28  C   UNL     1     110.286 129.390 137.521  0.00  0.00    +0.000 A 
ATOM     29  C   UNL     1     110.641 129.977 137.063  0.00  0.00    +0.000 A 
ATOM     30  C   UNL     1     109.528 129.528 137.904  0.00  0.00    +0.000 A 
ATOM     31  C   UNL     1     110.264 130.741 136.956  0.00  0.00    +0.000 A 
ATOM     32  C   UNL     1     109.136 130.286 137.808  0.00  0.00    +0.000 A 
ATOM     33  C   UNL     1     109.506 130.897 137.331  0.00  0.00    +0.000 A 
BRANCH  26  35
ATOM     34  O   UNL     1     114.648 128.528 135.347  0.00  0.00    +0.000 OA
ATOM     35  C   UNL     1     112.466 128.959 136.434  0.00  0.00    +0.000 A 
ATOM     36  C   UNL     1     113.162 129.231 136.784  0.00  0.00    +0.000 A 
ATOM     37  C   UNL     1     112.498 128.543 135.723  0.00  0.00    +0.000 A 
ATOM     38  C   UNL     1     113.890 129.088 136.422  0.00  0.00    +0.000 A 
ATOM     39  C   UNL     1     113.225 128.400 135.360  0.00  0.00    +0.000 A 
ATOM     40  C   UNL     1     113.921 128.672 135.709  0.00  0.00    +0.000 A 
ENDBRANCH  26  35
ENDBRANCH  20  25
ENDBRANCH   8  20
BRANCH   6  41
ATOM     41  C   UNL     1     112.718 128.267 139.999  0.00  0.00    +0.000 C 
BRANCH  41  42
ATOM     42  O   UNL     1     112.334 128.981 140.152  0.00  0.00    +0.000 OA
BRANCH  42  49
ATOM     43  O   UNL     1     113.554 129.607 140.557  0.00  0.00    +0.000 OA
ATOM     44  O   UNL     1     111.474 130.133 140.961  0.00  0.00    +0.000 OA
ATOM     45  O   UNL     1     113.913 131.384 141.772  0.00  0.00    +0.000 OA
ATOM     46  C   UNL     1     112.694 130.759 141.367  0.00  0.00    +0.000 C 
ATOM     47  C   UNL     1     112.299 130.158 140.961  0.00  0.00    +0.000 C 
ATOM     48  C   UNL     1     113.519 130.784 141.367  0.00  0.00    +0.000 C 
ATOM     49  C   UNL     1     112.730 129.582 140.557  0.00  0.00    +0.000 C 
ATOM     50  C   UNL     1     113.948 130.207 140.962  0.00  0.00    +0.000 C 
ATOM     51  C   UNL     1     114.773 130.232 140.962  0.00  0.00    +0.000 C 
BRANCH  46  52
ATOM     52  O   UNL     1     112.264 131.335 141.771  0.00  0.00    +0.000 OA
BRANCH  52  57
ATOM     53  O   UNL     1     112.188 130.478 142.913  0.00  0.00    +0.000 OA
ATOM     54  O   UNL     1     111.500 132.528 142.617  0.00  0.00    +0.000 OA
ATOM     55  O   UNL     1     111.043 132.268 144.181  0.00  0.00    +0.000 OA
ATOM     56  O   UNL     1     111.349 130.814 144.899  0.00  0.00    +0.000 OA
ATOM     57  C   UNL     1     112.035 131.204 142.554  0.00  0.00    +0.000 C 
ATOM     58  C   UNL     1     111.653 131.801 142.976  0.00  0.00    +0.000 C 
ATOM     59  C   UNL     1     111.425 131.670 143.758  0.00  0.00    +0.000 C 
ATOM     60  C   UNL     1     111.578 130.944 144.117  0.00  0.00    +0.000 C 
ATOM     61  C   UNL     1     111.959 130.348 143.694  0.00  0.00    +0.000 C 
ENDBRANCH  52  57
ENDBRANCH  46  52
ENDBRANCH  42  49
ENDBRANCH  41  42
ENDBRANCH   6  41
TORSDOF 10
ENDMDL
MODEL 3
REMARK VINA RESULT:     -11.6      1.606      5.736
REMARK  Name = 44259002
REMARK  10 active torsions:
REMARK  status: ('A' for Active; 'I' for Inactive)
REMARK    1  A    between atoms: O_2  and  C_24
REMARK    2  A    between atoms: O_2  and  C_34
REMARK    3  A    between atoms: O_4  and  C_32
REMARK    4  A    between atoms: O_4  and  C_35
REMARK    5  A    between atoms: O_5  and  C_28
REMARK    6  A    between atoms: O_5  and  C_40
REMARK    7  A    between atoms: O_9  and  C_30
REMARK    8  A    between atoms: O_9  and  C_47
REMARK    9  A    between atoms: C_26  and  C_35
REMARK   10  A    between atoms: C_48  and  C_51
REMARK                            x       y       z     vdW  Elec       q    Type
REMARK                         _______ _______ _______ _____ _____    ______ ____
ROOT
ATOM      1  O   UNL     1     110.731 128.880 137.482  0.00  0.00    +0.000 OA
ATOM      2  O   UNL     1     108.704 130.280 137.727  0.00  0.00    +0.000 OA
ATOM      3  O   UNL     1     108.627 128.853 136.902  0.00  0.00    +0.000 OA
ATOM      4  C   UNL     1     110.094 130.061 137.976  0.00  0.00    +0.000 C 
ATOM      5  C   UNL     1     109.380 129.813 137.645  0.00  0.00    +0.000 C 
ATOM      6  C   UNL     1     110.016 128.634 137.151  0.00  0.00    +0.000 C 
ATOM      7  C   UNL     1     109.341 129.101 137.233  0.00  0.00    +0.000 C 
ATOM      8  C   UNL     1     110.770 129.594 137.895  0.00  0.00    +0.000 C 
ENDROOT
BRANCH   4   9
ATOM      9  O   UNL     1     110.133 130.774 138.389  0.00  0.00    +0.000 OA
BRANCH   9  14
ATOM     10  O   UNL     1     110.260 131.482 137.154  0.00  0.00    +0.000 OA
ATOM     11  O   UNL     1     110.130 132.206 139.209  0.00  0.00    +0.000 OA
ATOM     12  O   UNL     1     110.255 133.629 138.384  0.00  0.00    +0.000 OA
ATOM     13  O   UNL     1     110.384 133.621 136.739  0.00  0.00    +0.000 OA
ATOM     14  C   UNL     1     110.196 131.486 137.976  0.00  0.00    +0.000 C 
ATOM     15  C   UNL     1     110.194 132.202 138.386  0.00  0.00    +0.000 C 
ATOM     16  C   UNL     1     110.257 132.914 137.974  0.00  0.00    +0.000 C 
ATOM     17  C   UNL     1     110.321 132.909 137.151  0.00  0.00    +0.000 C 
ATOM     18  C   UNL     1     110.323 132.194 136.741  0.00  0.00    +0.000 C 
ATOM     19  C   UNL     1     110.387 132.189 135.919  0.00  0.00    +0.000 C 
ENDBRANCH   9  14
ENDBRANCH   4   9
BRANCH   8  20
ATOM     20  O   UNL     1     111.484 129.841 138.225  0.00  0.00    +0.000 OA
BRANCH  20  25
ATOM     21  O   UNL     1     113.214 128.637 138.791  0.00  0.00    +0.000 OA
ATOM     22  O   UNL     1     110.879 129.014 139.519  0.00  0.00    +0.000 OA
ATOM     23  O   UNL     1     111.027 128.057 140.588  0.00  0.00    +0.000 OA
ATOM     24  O   UNL     1     113.586 126.692 140.926  0.00  0.00    +0.000 OA
ATOM     25  C   UNL     1     111.960 129.302 138.629  0.00  0.00    +0.000 A 
ATOM     26  C   UNL     1     112.738 129.176 138.386  0.00  0.00    +0.000 A 
ATOM     27  C   UNL     1     111.657 128.889 139.276  0.00  0.00    +0.000 A 
ATOM     28  C   UNL     1     112.133 128.349 139.680  0.00  0.00    +0.000 A 
ATOM     29  C   UNL     1     112.912 128.223 139.438  0.00  0.00    +0.000 A 
ATOM     30  C   UNL     1     111.807 127.924 140.352  0.00  0.00    +0.000 A 
ATOM     31  C   UNL     1     113.417 127.664 139.851  0.00  0.00    +0.000 A 
ATOM     32  C   UNL     1     112.297 127.361 140.777  0.00  0.00    +0.000 A 
ATOM     33  C   UNL     1     113.107 127.231 140.525  0.00  0.00    +0.000 A 
BRANCH  26  35
ATOM     34  O   UNL     1     113.950 130.830 135.800  0.00  0.00    +0.000 OA
ATOM     35  C   UNL     1     113.041 129.589 137.740  0.00  0.00    +0.000 A 
ATOM     36  C   UNL     1     113.322 130.359 137.838  0.00  0.00    +0.000 A 
ATOM     37  C   UNL     1     113.063 129.233 136.997  0.00  0.00    +0.000 A 
ATOM     38  C   UNL     1     113.625 130.773 137.192  0.00  0.00    +0.000 A 
ATOM     39  C   UNL     1     113.366 129.646 136.350  0.00  0.00    +0.000 A 
ATOM     40  C   UNL     1     113.647 130.416 136.447  0.00  0.00    +0.000 A 
ENDBRANCH  26  35
ENDBRANCH  20  25
ENDBRANCH   8  20
BRANCH   6  41
ATOM     41  C   UNL     1     109.978 127.920 136.739  0.00  0.00    +0.000 C 
BRANCH  41  42
ATOM     42  O   UNL     1     110.209 127.219 137.107  0.00  0.00    +0.000 OA
BRANCH  42  49
ATOM     43  O   UNL     1     110.193 126.521 135.859  0.00  0.00    +0.000 OA
ATOM     44  O   UNL     1     111.096 125.999 137.777  0.00  0.00    +0.000 OA
ATOM     45  O   UNL     1     111.064 124.605 135.282  0.00  0.00    +0.000 OA
ATOM     46  C   UNL     1     111.080 125.302 136.529  0.00  0.00    +0.000 C 
ATOM     47  C   UNL     1     110.866 125.956 136.986  0.00  0.00    +0.000 C 
ATOM     48  C   UNL     1     110.850 125.258 135.738  0.00  0.00    +0.000 C 
ATOM     49  C   UNL     1     110.423 126.565 136.650  0.00  0.00    +0.000 C 
ATOM     50  C   UNL     1     110.406 125.868 135.403  0.00  0.00    +0.000 C 
ATOM     51  C   UNL     1     110.177 125.824 134.612  0.00  0.00    +0.000 C 
BRANCH  46  52
ATOM     52  O   UNL     1     111.523 124.692 136.865  0.00  0.00    +0.000 OA
BRANCH  52  57
ATOM     53  O   UNL     1     112.718 125.463 136.715  0.00  0.00    +0.000 OA
ATOM     54  O   UNL     1     112.426 123.369 137.259  0.00  0.00    +0.000 OA
ATOM     55  O   UNL     1     114.072 123.477 137.306  0.00  0.00    +0.000 OA
ATOM     56  O   UNL     1     114.815 124.909 136.959  0.00  0.00    +0.000 OA
ATOM     57  C   UNL     1     112.347 124.747 136.888  0.00  0.00    +0.000 C 
ATOM     58  C   UNL     1     112.797 124.085 137.085  0.00  0.00    +0.000 C 
ATOM     59  C   UNL     1     113.620 124.139 137.108  0.00  0.00    +0.000 C 
ATOM     60  C   UNL     1     113.992 124.855 136.935  0.00  0.00    +0.000 C 
ATOM     61  C   UNL     1     113.540 125.516 136.738  0.00  0.00    +0.000 C 
ENDBRANCH  52  57
ENDBRANCH  46  52
ENDBRANCH  42  49
ENDBRANCH  41  42
ENDBRANCH   6  41
TORSDOF 10
ENDMDL
MODEL 4
REMARK VINA RESULT:     -11.4      1.232      2.575
REMARK  Name = 44259002
REMARK  10 active torsions:
REMARK  status: ('A' for Active; 'I' for Inactive)
REMARK    1  A    between atoms: O_2  and  C_24
REMARK    2  A    between atoms: O_2  and  C_34
REMARK    3  A    between atoms: O_4  and  C_32
REMARK    4  A    between atoms: O_4  and  C_35
REMARK    5  A    between atoms: O_5  and  C_28
REMARK    6  A    between atoms: O_5  and  C_40
REMARK    7  A    between atoms: O_9  and  C_30
REMARK    8  A    between atoms: O_9  and  C_47
REMARK    9  A    between atoms: C_26  and  C_35
REMARK   10  A    between atoms: C_48  and  C_51
REMARK                            x       y       z     vdW  Elec       q    Type
REMARK                         _______ _______ _______ _____ _____    ______ ____
ROOT
ATOM      1  O   UNL     1     112.241 128.567 137.607  0.00  0.00    +0.000 OA
ATOM      2  O   UNL     1     113.809 127.345 136.132  0.00  0.00    +0.000 OA
ATOM      3  O   UNL     1     113.176 128.790 135.646  0.00  0.00    +0.000 OA
ATOM      4  C   UNL     1     113.081 127.437 137.358  0.00  0.00    +0.000 C 
ATOM      5  C   UNL     1     113.286 127.752 136.623  0.00  0.00    +0.000 C 
ATOM      6  C   UNL     1     112.448 128.881 136.872  0.00  0.00    +0.000 C 
ATOM      7  C   UNL     1     112.970 128.474 136.381  0.00  0.00    +0.000 C 
ATOM      8  C   UNL     1     112.558 127.844 137.849  0.00  0.00    +0.000 C 
ENDROOT
BRANCH   4   9
ATOM      9  O   UNL     1     113.397 126.715 137.600  0.00  0.00    +0.000 OA
BRANCH   9  14
ATOM     10  O   UNL     1     112.416 126.014 136.833  0.00  0.00    +0.000 OA
ATOM     11  O   UNL     1     114.202 125.300 137.864  0.00  0.00    +0.000 OA
ATOM     12  O   UNL     1     113.624 123.891 137.229  0.00  0.00    +0.000 OA
ATOM     13  O   UNL     1     112.241 123.897 136.330  0.00  0.00    +0.000 OA
ATOM     14  C   UNL     1     113.108 126.011 137.283  0.00  0.00    +0.000 C 
ATOM     15  C   UNL     1     113.511 125.302 137.415  0.00  0.00    +0.000 C 
ATOM     16  C   UNL     1     113.222 124.598 137.097  0.00  0.00    +0.000 C 
ATOM     17  C   UNL     1     112.530 124.602 136.648  0.00  0.00    +0.000 C 
ATOM     18  C   UNL     1     112.127 125.309 136.516  0.00  0.00    +0.000 C 
ATOM     19  C   UNL     1     111.435 125.313 136.066  0.00  0.00    +0.000 C 
ENDBRANCH   9  14
ENDBRANCH   4   9
BRANCH   8  20
ATOM     20  O   UNL     1     112.352 127.530 138.583  0.00  0.00    +0.000 OA
BRANCH  20  25
ATOM     21  O   UNL     1     111.540 128.524 140.349  0.00  0.00    +0.000 OA
ATOM     22  O   UNL     1     113.618 128.502 139.003  0.00  0.00    +0.000 OA
ATOM     23  O   UNL     1     114.220 129.490 139.865  0.00  0.00    +0.000 OA
ATOM     24  O   UNL     1     112.692 130.519 142.130  0.00  0.00    +0.000 OA
ATOM     25  C   UNL     1     112.292 128.023 139.242  0.00  0.00    +0.000 A 
ATOM     26  C   UNL     1     111.600 128.030 139.690  0.00  0.00    +0.000 A 
ATOM     27  C   UNL     1     112.925 128.509 139.452  0.00  0.00    +0.000 A 
ATOM     28  C   UNL     1     112.865 129.002 140.110  0.00  0.00    +0.000 A 
ATOM     29  C   UNL     1     112.173 129.010 140.559  0.00  0.00    +0.000 A 
ATOM     30  C   UNL     1     113.532 129.504 140.319  0.00  0.00    +0.000 A 
ATOM     31  C   UNL     1     112.099 129.519 141.247  0.00  0.00    +0.000 A 
ATOM     32  C   UNL     1     113.476 130.020 141.004  0.00  0.00    +0.000 A 
ATOM     33  C   UNL     1     112.755 130.027 141.470  0.00  0.00    +0.000 A 
BRANCH  26  35
ATOM     34  O   UNL     1     109.068 126.087 138.851  0.00  0.00    +0.000 OA
ATOM     35  C   UNL     1     110.967 127.545 139.480  0.00  0.00    +0.000 A 
ATOM     36  C   UNL     1     110.959 126.754 139.716  0.00  0.00    +0.000 A 
ATOM     37  C   UNL     1     110.343 127.849 139.036  0.00  0.00    +0.000 A 
ATOM     38  C   UNL     1     110.326 126.268 139.506  0.00  0.00    +0.000 A 
ATOM     39  C   UNL     1     109.710 127.364 138.826  0.00  0.00    +0.000 A 
ATOM     40  C   UNL     1     109.701 126.573 139.061  0.00  0.00    +0.000 A 
ENDBRANCH  26  35
ENDBRANCH  20  25
ENDBRANCH   8  20
BRANCH   6  41
ATOM     41  C   UNL     1     112.131 129.604 136.630  0.00  0.00    +0.000 C 
BRANCH  41  42
ATOM     42  O   UNL     1     111.313 129.701 136.587  0.00  0.00    +0.000 OA
BRANCH  42  49
ATOM     43  O   UNL     1     111.122 130.835 137.437  0.00  0.00    +0.000 OA
ATOM     44  O   UNL     1     110.356 130.401 135.439  0.00  0.00    +0.000 OA
ATOM     45  O   UNL     1     109.975 132.668 137.138  0.00  0.00    +0.000 OA
ATOM     46  C   UNL     1     110.166 131.535 136.289  0.00  0.00    +0.000 C 
ATOM     47  C   UNL     1     110.500 130.793 136.151  0.00  0.00    +0.000 C 
ATOM     48  C   UNL     1     110.309 131.927 137.001  0.00  0.00    +0.000 C 
ATOM     49  C   UNL     1     110.978 130.444 136.725  0.00  0.00    +0.000 C 
ATOM     50  C   UNL     1     110.788 131.576 137.574  0.00  0.00    +0.000 C 
ATOM     51  C   UNL     1     110.932 131.968 138.286  0.00  0.00    +0.000 C 
BRANCH  46  52
ATOM     52  O   UNL     1     109.688 131.885 135.714  0.00  0.00    +0.000 OA
BRANCH  52  57
ATOM     53  O   UNL     1     108.543 131.232 136.270  0.00  0.00    +0.000 OA
ATOM     54  O   UNL     1     108.721 132.641 134.612  0.00  0.00    +0.000 OA
ATOM     55  O   UNL     1     107.093 132.367 134.616  0.00  0.00    +0.000 OA
ATOM     56  O   UNL     1     106.433 131.337 135.723  0.00  0.00    +0.000 OA
ATOM     57  C   UNL     1     108.873 131.747 135.717  0.00  0.00    +0.000 C 
ATOM     58  C   UNL     1     108.391 132.126 135.165  0.00  0.00    +0.000 C 
ATOM     59  C   UNL     1     107.577 131.989 135.168  0.00  0.00    +0.000 C 
ATOM     60  C   UNL     1     107.247 131.473 135.722  0.00  0.00    +0.000 C 
ATOM     61  C   UNL     1     107.730 131.096 136.272  0.00  0.00    +0.000 C 
ENDBRANCH  52  57
ENDBRANCH  46  52
ENDBRANCH  42  49
ENDBRANCH  41  42
ENDBRANCH   6  41
TORSDOF 10
ENDMDL
MODEL 5
REMARK VINA RESULT:     -11.3      2.039      5.667
REMARK  Name = 44259002
REMARK  10 active torsions:
REMARK  status: ('A' for Active; 'I' for Inactive)
REMARK    1  A    between atoms: O_2  and  C_24
REMARK    2  A    between atoms: O_2  and  C_34
REMARK    3  A    between atoms: O_4  and  C_32
REMARK    4  A    between atoms: O_4  and  C_35
REMARK    5  A    between atoms: O_5  and  C_28
REMARK    6  A    between atoms: O_5  and  C_40
REMARK    7  A    between atoms: O_9  and  C_30
REMARK    8  A    between atoms: O_9  and  C_47
REMARK    9  A    between atoms: C_26  and  C_35
REMARK   10  A    between atoms: C_48  and  C_51
REMARK                            x       y       z     vdW  Elec       q    Type
REMARK                         _______ _______ _______ _____ _____    ______ ____
ROOT
ATOM      1  O   UNL     1     111.067 129.332 138.489  0.00  0.00    +0.000 OA
ATOM      2  O   UNL     1     109.145 130.413 139.613  0.00  0.00    +0.000 OA
ATOM      3  O   UNL     1     108.886 129.335 138.391  0.00  0.00    +0.000 OA
ATOM      4  C   UNL     1     110.555 130.232 139.475  0.00  0.00    +0.000 C 
ATOM      5  C   UNL     1     109.785 130.053 139.238  0.00  0.00    +0.000 C 
ATOM      6  C   UNL     1     110.297 129.154 138.253  0.00  0.00    +0.000 C 
ATOM      7  C   UNL     1     109.656 129.514 138.628  0.00  0.00    +0.000 C 
ATOM      8  C   UNL     1     111.196 129.872 139.100  0.00  0.00    +0.000 C 
ENDROOT
BRANCH   4   9
ATOM      9  O   UNL     1     110.685 130.771 140.085  0.00  0.00    +0.000 OA
BRANCH   9  14
ATOM     10  O   UNL     1     110.427 129.748 141.049  0.00  0.00    +0.000 OA
ATOM     11  O   UNL     1     110.779 131.887 141.297  0.00  0.00    +0.000 OA
ATOM     12  O   UNL     1     110.569 131.422 142.866  0.00  0.00    +0.000 OA
ATOM     13  O   UNL     1     110.263 129.840 143.223  0.00  0.00    +0.000 OA
ATOM     14  C   UNL     1     110.579 130.538 140.870  0.00  0.00    +0.000 C 
ATOM     15  C   UNL     1     110.627 131.096 141.476  0.00  0.00    +0.000 C 
ATOM     16  C   UNL     1     110.521 130.864 142.261  0.00  0.00    +0.000 C 
ATOM     17  C   UNL     1     110.369 130.073 142.439  0.00  0.00    +0.000 C 
ATOM     18  C   UNL     1     110.321 129.515 141.834  0.00  0.00    +0.000 C 
ATOM     19  C   UNL     1     110.169 128.724 142.012  0.00  0.00    +0.000 C 
ENDBRANCH   9  14
ENDBRANCH   4   9
BRANCH   8  20
ATOM     20  O   UNL     1     111.966 130.050 139.336  0.00  0.00    +0.000 OA
BRANCH  20  25
ATOM     21  O   UNL     1     113.842 129.795 138.251  0.00  0.00    +0.000 OA
ATOM     22  O   UNL     1     111.771 131.144 138.116  0.00  0.00    +0.000 OA
ATOM     23  O   UNL     1     112.247 131.809 136.927  0.00  0.00    +0.000 OA
ATOM     24  O   UNL     1     114.869 131.097 135.856  0.00  0.00    +0.000 OA
ATOM     25  C   UNL     1     112.559 130.148 138.771  0.00  0.00    +0.000 A 
ATOM     26  C   UNL     1     113.249 129.698 138.816  0.00  0.00    +0.000 A 
ATOM     27  C   UNL     1     112.461 130.694 138.161  0.00  0.00    +0.000 A 
ATOM     28  C   UNL     1     113.054 130.791 137.596  0.00  0.00    +0.000 A 
ATOM     29  C   UNL     1     113.745 130.342 137.640  0.00  0.00    +0.000 A 
ATOM     30  C   UNL     1     112.941 131.364 136.964  0.00  0.00    +0.000 A 
ATOM     31  C   UNL     1     114.369 130.435 137.058  0.00  0.00    +0.000 A 
ATOM     32  C   UNL     1     113.555 131.470 136.373  0.00  0.00    +0.000 A 
ATOM     33  C   UNL     1     114.273 131.002 136.420  0.00  0.00    +0.000 A 
BRANCH  26  35
ATOM     34  O   UNL     1     113.640 127.511 141.256  0.00  0.00    +0.000 OA
ATOM     35  C   UNL     1     113.347 129.152 139.426  0.00  0.00    +0.000 A 
ATOM     36  C   UNL     1     113.192 128.352 139.292  0.00  0.00    +0.000 A 
ATOM     37  C   UNL     1     113.599 129.404 140.169  0.00  0.00    +0.000 A 
ATOM     38  C   UNL     1     113.289 127.805 139.902  0.00  0.00    +0.000 A 
ATOM     39  C   UNL     1     113.697 128.857 140.780  0.00  0.00    +0.000 A 
ATOM     40  C   UNL     1     113.542 128.058 140.646  0.00  0.00    +0.000 A 
ENDBRANCH  26  35
ENDBRANCH  20  25
ENDBRANCH   8  20
BRANCH   6  41
ATOM     41  C   UNL     1     110.167 128.614 137.641  0.00  0.00    +0.000 C 
BRANCH  41  42
ATOM     42  O   UNL     1     110.378 127.823 137.739  0.00  0.00    +0.000 OA
BRANCH  42  49
ATOM     43  O   UNL     1     110.261 127.617 136.329  0.00  0.00    +0.000 OA
ATOM     44  O   UNL     1     110.879 126.262 137.925  0.00  0.00    +0.000 OA
ATOM     45  O   UNL     1     110.645 125.851 135.106  0.00  0.00    +0.000 OA
ATOM     46  C   UNL     1     110.762 126.056 136.515  0.00  0.00    +0.000 C 
ATOM     47  C   UNL     1     110.695 126.549 137.174  0.00  0.00    +0.000 C 
ATOM     48  C   UNL     1     110.578 126.344 135.764  0.00  0.00    +0.000 C 
ATOM     49  C   UNL     1     110.445 127.330 137.080  0.00  0.00    +0.000 C 
ATOM     50  C   UNL     1     110.328 127.125 135.672  0.00  0.00    +0.000 C 
ATOM     51  C   UNL     1     110.144 127.412 134.921  0.00  0.00    +0.000 C 
BRANCH  46  52
ATOM     52  O   UNL     1     111.012 125.276 136.609  0.00  0.00    +0.000 OA
BRANCH  52  57
ATOM     53  O   UNL     1     112.371 125.686 136.434  0.00  0.00    +0.000 OA
ATOM     54  O   UNL     1     111.521 123.751 136.982  0.00  0.00    +0.000 OA
ATOM     55  O   UNL     1     113.133 123.399 136.994  0.00  0.00    +0.000 OA
ATOM     56  O   UNL     1     114.236 124.572 136.632  0.00  0.00    +0.000 OA
ATOM     57  C   UNL     1     111.819 125.100 136.614  0.00  0.00    +0.000 C 
ATOM     58  C   UNL     1     112.073 124.338 136.801  0.00  0.00    +0.000 C 
ATOM     59  C   UNL     1     112.879 124.162 136.807  0.00  0.00    +0.000 C 
ATOM     60  C   UNL     1     113.430 124.748 136.626  0.00  0.00    +0.000 C 
ATOM     61  C   UNL     1     113.176 125.510 136.440  0.00  0.00    +0.000 C 
ENDBRANCH  52  57
ENDBRANCH  46  52
ENDBRANCH  42  49
ENDBRANCH  41  42
ENDBRANCH   6  41
TORSDOF 10
ENDMDL
MODEL 6
REMARK VINA RESULT:     -11.3      2.042      4.479
REMARK  Name = 44259002
REMARK  10 active torsions:
REMARK  status: ('A' for Active; 'I' for Inactive)
REMARK    1  A    between atoms: O_2  and  C_24
REMARK    2  A    between atoms: O_2  and  C_34
REMARK    3  A    between atoms: O_4  and  C_32
REMARK    4  A    between atoms: O_4  and  C_35
REMARK    5  A    between atoms: O_5  and  C_28
REMARK    6  A    between atoms: O_5  and  C_40
REMARK    7  A    between atoms: O_9  and  C_30
REMARK    8  A    between atoms: O_9  and  C_47
REMARK    9  A    between atoms: C_26  and  C_35
REMARK   10  A    between atoms: C_48  and  C_51
REMARK                            x       y       z     vdW  Elec       q    Type
REMARK                         _______ _______ _______ _____ _____    ______ ____
ROOT
ATOM      1  O   UNL     1     111.276 127.890 138.242  0.00  0.00    +0.000 OA
ATOM      2  O   UNL     1     111.388 125.508 138.907  0.00  0.00    +0.000 OA
ATOM      3  O   UNL     1     111.058 126.665 140.036  0.00  0.00    +0.000 OA
ATOM      4  C   UNL     1     111.479 126.517 137.899  0.00  0.00    +0.000 C 
ATOM      5  C   UNL     1     111.351 126.302 138.685  0.00  0.00    +0.000 C 
ATOM      6  C   UNL     1     111.149 127.674 139.028  0.00  0.00    +0.000 C 
ATOM      7  C   UNL     1     111.186 126.880 139.249  0.00  0.00    +0.000 C 
ATOM      8  C   UNL     1     111.441 127.311 137.677  0.00  0.00    +0.000 C 
ENDROOT
BRANCH   4   9
ATOM      9  O   UNL     1     111.644 125.939 137.334  0.00  0.00    +0.000 OA
BRANCH   9  14
ATOM     10  O   UNL     1     113.002 125.888 137.776  0.00  0.00    +0.000 OA
ATOM     11  O   UNL     1     111.922 124.659 136.331  0.00  0.00    +0.000 OA
ATOM     12  O   UNL     1     113.420 123.969 136.271  0.00  0.00    +0.000 OA
ATOM     13  O   UNL     1     114.639 124.559 137.214  0.00  0.00    +0.000 OA
ATOM     14  C   UNL     1     112.392 125.594 137.304  0.00  0.00    +0.000 C 
ATOM     15  C   UNL     1     112.532 124.953 136.802  0.00  0.00    +0.000 C 
ATOM     16  C   UNL     1     113.281 124.608 136.772  0.00  0.00    +0.000 C 
ATOM     17  C   UNL     1     113.890 124.904 137.244  0.00  0.00    +0.000 C 
ATOM     18  C   UNL     1     113.751 125.543 137.745  0.00  0.00    +0.000 C 
ATOM     19  C   UNL     1     114.360 125.839 138.217  0.00  0.00    +0.000 C 
ENDBRANCH   9  14
ENDBRANCH   4   9
BRANCH   8  20
ATOM     20  O   UNL     1     111.569 127.526 136.891  0.00  0.00    +0.000 OA
BRANCH  20  25
ATOM     21  O   UNL     1     111.031 129.368 135.850  0.00  0.00    +0.000 OA
ATOM     22  O   UNL     1     109.922 127.428 136.915  0.00  0.00    +0.000 OA
ATOM     23  O   UNL     1     108.620 127.959 136.592  0.00  0.00    +0.000 OA
ATOM     24  O   UNL     1     108.437 130.500 135.166  0.00  0.00    +0.000 OA
ATOM     25  C   UNL     1     111.115 128.124 136.548  0.00  0.00    +0.000 A 
ATOM     26  C   UNL     1     111.485 128.770 136.193  0.00  0.00    +0.000 A 
ATOM     27  C   UNL     1     110.292 128.074 136.560  0.00  0.00    +0.000 A 
ATOM     28  C   UNL     1     109.838 128.672 136.217  0.00  0.00    +0.000 A 
ATOM     29  C   UNL     1     110.207 129.319 135.862  0.00  0.00    +0.000 A 
ATOM     30  C   UNL     1     108.981 128.610 136.235  0.00  0.00    +0.000 A 
ATOM     31  C   UNL     1     109.745 129.947 135.501  0.00  0.00    +0.000 A 
ATOM     32  C   UNL     1     108.502 129.228 135.880  0.00  0.00    +0.000 A 
ATOM     33  C   UNL     1     108.888 129.901 135.510  0.00  0.00    +0.000 A 
BRANCH  26  35
ATOM     34  O   UNL     1     114.779 128.967 136.146  0.00  0.00    +0.000 OA
ATOM     35  C   UNL     1     112.308 128.820 136.182  0.00  0.00    +0.000 A 
ATOM     36  C   UNL     1     112.737 128.415 135.605  0.00  0.00    +0.000 A 
ATOM     37  C   UNL     1     112.702 129.274 136.746  0.00  0.00    +0.000 A 
ATOM     38  C   UNL     1     113.560 128.464 135.593  0.00  0.00    +0.000 A 
ATOM     39  C   UNL     1     113.526 129.323 136.734  0.00  0.00    +0.000 A 
ATOM     40  C   UNL     1     113.955 128.918 136.158  0.00  0.00    +0.000 A 
ENDBRANCH  26  35
ENDBRANCH  20  25
ENDBRANCH   8  20
BRANCH   6  41
ATOM     41  C   UNL     1     110.983 128.253 139.593  0.00  0.00    +0.000 C 
BRANCH  41  42
ATOM     42  O   UNL     1     111.486 128.901 139.677  0.00  0.00    +0.000 OA
BRANCH  42  49
ATOM     43  O   UNL     1     110.472 129.906 139.753  0.00  0.00    +0.000 OA
ATOM     44  O   UNL     1     112.371 129.708 140.813  0.00  0.00    +0.000 OA
ATOM     45  O   UNL     1     110.344 131.717 140.965  0.00  0.00    +0.000 OA
ATOM     46  C   UNL     1     111.357 130.713 140.889  0.00  0.00    +0.000 C 
ATOM     47  C   UNL     1     111.643 130.008 140.567  0.00  0.00    +0.000 C 
ATOM     48  C   UNL     1     110.629 131.013 140.643  0.00  0.00    +0.000 C 
ATOM     49  C   UNL     1     111.200 129.606 139.999  0.00  0.00    +0.000 C 
ATOM     50  C   UNL     1     110.187 130.609 140.075  0.00  0.00    +0.000 C 
ATOM     51  C   UNL     1     109.459 130.910 139.829  0.00  0.00    +0.000 C 
BRANCH  46  52
ATOM     52  O   UNL     1     111.800 131.115 141.457  0.00  0.00    +0.000 OA
BRANCH  52  57
ATOM     53  O   UNL     1     111.212 130.320 142.489  0.00  0.00    +0.000 OA
ATOM     54  O   UNL     1     112.513 132.069 142.598  0.00  0.00    +0.000 OA
ATOM     55  O   UNL     1     112.282 131.751 144.201  0.00  0.00    +0.000 OA
ATOM     56  O   UNL     1     111.337 130.480 144.662  0.00  0.00    +0.000 OA
ATOM     57  C   UNL     1     111.684 130.956 142.259  0.00  0.00    +0.000 C 
ATOM     58  C   UNL     1     112.041 131.433 142.829  0.00  0.00    +0.000 C 
ATOM     59  C   UNL     1     111.925 131.274 143.630  0.00  0.00    +0.000 C 
ATOM     60  C   UNL     1     111.453 130.638 143.860  0.00  0.00    +0.000 C 
ATOM     61  C   UNL     1     111.096 130.161 143.290  0.00  0.00    +0.000 C 
ENDBRANCH  52  57
ENDBRANCH  46  52
ENDBRANCH  42  49
ENDBRANCH  41  42
ENDBRANCH   6  41
TORSDOF 10
ENDMDL
MODEL 7
REMARK VINA RESULT:     -11.1      1.505      5.650
REMARK  Name = 44259002
REMARK  10 active torsions:
REMARK  status: ('A' for Active; 'I' for Inactive)
REMARK    1  A    between atoms: O_2  and  C_24
REMARK    2  A    between atoms: O_2  and  C_34
REMARK    3  A    between atoms: O_4  and  C_32
REMARK    4  A    between atoms: O_4  and  C_35
REMARK    5  A    between atoms: O_5  and  C_28
REMARK    6  A    between atoms: O_5  and  C_40
REMARK    7  A    between atoms: O_9  and  C_30
REMARK    8  A    between atoms: O_9  and  C_47
REMARK    9  A    between atoms: C_26  and  C_35
REMARK   10  A    between atoms: C_48  and  C_51
REMARK                            x       y       z     vdW  Elec       q    Type
REMARK                         _______ _______ _______ _____ _____    ______ ____
ROOT
ATOM      1  O   UNL     1     110.126 129.697 138.635  0.00  0.00    +0.000 OA
ATOM      2  O   UNL     1     108.126 131.031 138.047  0.00  0.00    +0.000 OA
ATOM      3  O   UNL     1     108.594 130.898 139.623  0.00  0.00    +0.000 OA
ATOM      4  C   UNL     1     109.225 130.209 137.650  0.00  0.00    +0.000 C 
ATOM      5  C   UNL     1     108.793 130.587 138.243  0.00  0.00    +0.000 C 
ATOM      6  C   UNL     1     109.693 130.075 139.227  0.00  0.00    +0.000 C 
ATOM      7  C   UNL     1     109.027 130.520 139.031  0.00  0.00    +0.000 C 
ATOM      8  C   UNL     1     109.892 129.764 137.846  0.00  0.00    +0.000 C 
ENDROOT
BRANCH   4   9
ATOM      9  O   UNL     1     108.992 130.276 136.862  0.00  0.00    +0.000 OA
BRANCH   9  14
ATOM     10  O   UNL     1     109.619 131.556 136.763  0.00  0.00    +0.000 OA
ATOM     11  O   UNL     1     108.219 130.544 135.430  0.00  0.00    +0.000 OA
ATOM     12  O   UNL     1     108.459 131.959 134.615  0.00  0.00    +0.000 OA
ATOM     13  O   UNL     1     109.473 133.105 135.233  0.00  0.00    +0.000 OA
ATOM     14  C   UNL     1     109.112 130.983 136.455  0.00  0.00    +0.000 C 
ATOM     15  C   UNL     1     108.725 131.117 135.738  0.00  0.00    +0.000 C 
ATOM     16  C   UNL     1     108.846 131.825 135.331  0.00  0.00    +0.000 C 
ATOM     17  C   UNL     1     109.353 132.397 135.640  0.00  0.00    +0.000 C 
ATOM     18  C   UNL     1     109.739 132.263 136.356  0.00  0.00    +0.000 C 
ATOM     19  C   UNL     1     110.246 132.836 136.666  0.00  0.00    +0.000 C 
ENDBRANCH   9  14
ENDBRANCH   4   9
BRANCH   8  20
ATOM     20  O   UNL     1     110.325 129.386 137.255  0.00  0.00    +0.000 OA
BRANCH  20  25
ATOM     21  O   UNL     1     111.757 127.748 137.425  0.00  0.00    +0.000 OA
ATOM     22  O   UNL     1     109.331 128.150 137.711  0.00  0.00    +0.000 OA
ATOM     23  O   UNL     1     109.117 126.772 138.078  0.00  0.00    +0.000 OA
ATOM     24  O   UNL     1     111.399 124.953 138.159  0.00  0.00    +0.000 OA
ATOM     25  C   UNL     1     110.637 128.634 137.388  0.00  0.00    +0.000 A 
ATOM     26  C   UNL     1     111.445 128.500 137.292  0.00  0.00    +0.000 A 
ATOM     27  C   UNL     1     110.140 128.017 137.615  0.00  0.00    +0.000 A 
ATOM     28  C   UNL     1     110.452 127.264 137.748  0.00  0.00    +0.000 A 
ATOM     29  C   UNL     1     111.260 127.130 137.654  0.00  0.00    +0.000 A 
ATOM     30  C   UNL     1     109.924 126.628 137.986  0.00  0.00    +0.000 A 
ATOM     31  C   UNL     1     111.596 126.351 137.789  0.00  0.00    +0.000 A 
ATOM     32  C   UNL     1     110.242 125.843 138.126  0.00  0.00    +0.000 A 
ATOM     33  C   UNL     1     111.084 125.703 138.027  0.00  0.00    +0.000 A 
BRANCH  26  35
ATOM     34  O   UNL     1     113.433 130.972 136.380  0.00  0.00    +0.000 OA
ATOM     35  C   UNL     1     111.942 129.118 137.065  0.00  0.00    +0.000 A 
ATOM     36  C   UNL     1     112.008 129.321 136.268  0.00  0.00    +0.000 A 
ATOM     37  C   UNL     1     112.372 129.532 137.633  0.00  0.00    +0.000 A 
ATOM     38  C   UNL     1     112.504 129.939 136.039  0.00  0.00    +0.000 A 
ATOM     39  C   UNL     1     112.869 130.150 137.405  0.00  0.00    +0.000 A 
ATOM     40  C   UNL     1     112.936 130.353 136.608  0.00  0.00    +0.000 A 
ENDBRANCH  26  35
ENDBRANCH  20  25
ENDBRANCH   8  20
BRANCH   6  41
ATOM     41  C   UNL     1     109.927 130.009 140.016  0.00  0.00    +0.000 C 
BRANCH  41  42
ATOM     42  O   UNL     1     110.547 130.472 140.302  0.00  0.00    +0.000 OA
BRANCH  42  49
ATOM     43  O   UNL     1     110.755 129.551 141.375  0.00  0.00    +0.000 OA
ATOM     44  O   UNL     1     111.952 131.244 140.692  0.00  0.00    +0.000 OA
ATOM     45  O   UNL     1     112.368 129.403 142.838  0.00  0.00    +0.000 OA
ATOM     46  C   UNL     1     112.160 130.323 141.766  0.00  0.00    +0.000 C 
ATOM     47  C   UNL     1     111.705 130.591 141.131  0.00  0.00    +0.000 C 
ATOM     48  C   UNL     1     111.913 129.670 142.205  0.00  0.00    +0.000 C 
ATOM     49  C   UNL     1     111.003 130.204 140.937  0.00  0.00    +0.000 C 
ATOM     50  C   UNL     1     111.210 129.284 142.009  0.00  0.00    +0.000 C 
ATOM     51  C   UNL     1     110.963 128.631 142.448  0.00  0.00    +0.000 C 
BRANCH  46  52
ATOM     52  O   UNL     1     112.862 130.710 141.960  0.00  0.00    +0.000 OA
BRANCH  52  57
ATOM     53  O   UNL     1     113.623 129.835 141.123  0.00  0.00    +0.000 OA
ATOM     54  O   UNL     1     114.108 131.791 141.962  0.00  0.00    +0.000 OA
ATOM     55  O   UNL     1     115.491 131.458 141.125  0.00  0.00    +0.000 OA
ATOM     56  O   UNL     1     115.628 130.043 140.288  0.00  0.00    +0.000 OA
ATOM     57  C   UNL     1     113.554 130.543 141.542  0.00  0.00    +0.000 C 
ATOM     58  C   UNL     1     114.177 131.084 141.543  0.00  0.00    +0.000 C 
ATOM     59  C   UNL     1     114.868 130.917 141.125  0.00  0.00    +0.000 C 
ATOM     60  C   UNL     1     114.936 130.209 140.706  0.00  0.00    +0.000 C 
ATOM     61  C   UNL     1     114.314 129.669 140.705  0.00  0.00    +0.000 C 
ENDBRANCH  52  57
ENDBRANCH  46  52
ENDBRANCH  42  49
ENDBRANCH  41  42
ENDBRANCH   6  41
TORSDOF 10
ENDMDL
MODEL 8
REMARK VINA RESULT:     -11.1      1.638      3.088
REMARK  Name = 44259002
REMARK  10 active torsions:
REMARK  status: ('A' for Active; 'I' for Inactive)
REMARK    1  A    between atoms: O_2  and  C_24
REMARK    2  A    between atoms: O_2  and  C_34
REMARK    3  A    between atoms: O_4  and  C_32
REMARK    4  A    between atoms: O_4  and  C_35
REMARK    5  A    between atoms: O_5  and  C_28
REMARK    6  A    between atoms: O_5  and  C_40
REMARK    7  A    between atoms: O_9  and  C_30
REMARK    8  A    between atoms: O_9  and  C_47
REMARK    9  A    between atoms: C_26  and  C_35
REMARK   10  A    between atoms: C_48  and  C_51
REMARK                            x       y       z     vdW  Elec       q    Type
REMARK                         _______ _______ _______ _____ _____    ______ ____
ROOT
ATOM      1  O   UNL     1     111.469 127.787 138.318  0.00  0.00    +0.000 OA
ATOM      2  O   UNL     1     111.559 125.434 139.080  0.00  0.00    +0.000 OA
ATOM      3  O   UNL     1     111.303 126.645 140.171  0.00  0.00    +0.000 OA
ATOM      4  C   UNL     1     111.627 126.396 138.026  0.00  0.00    +0.000 C 
ATOM      5  C   UNL     1     111.529 126.218 138.826  0.00  0.00    +0.000 C 
ATOM      6  C   UNL     1     111.371 127.608 139.117  0.00  0.00    +0.000 C 
ATOM      7  C   UNL     1     111.401 126.823 139.371  0.00  0.00    +0.000 C 
ATOM      8  C   UNL     1     111.597 127.181 137.772  0.00  0.00    +0.000 C 
ENDROOT
BRANCH   4   9
ATOM      9  O   UNL     1     111.755 125.792 137.481  0.00  0.00    +0.000 OA
BRANCH   9  14
ATOM     10  O   UNL     1     113.141 125.767 137.831  0.00  0.00    +0.000 OA
ATOM     11  O   UNL     1     111.991 124.515 136.462  0.00  0.00    +0.000 OA
ATOM     12  O   UNL     1     113.493 123.853 136.303  0.00  0.00    +0.000 OA
ATOM     13  O   UNL     1     114.761 124.466 137.164  0.00  0.00    +0.000 OA
ATOM     14  C   UNL     1     112.507 125.460 137.402  0.00  0.00    +0.000 C 
ATOM     15  C   UNL     1     112.625 124.822 136.892  0.00  0.00    +0.000 C 
ATOM     16  C   UNL     1     113.376 124.490 136.812  0.00  0.00    +0.000 C 
ATOM     17  C   UNL     1     114.009 124.798 137.243  0.00  0.00    +0.000 C 
ATOM     18  C   UNL     1     113.892 125.435 137.752  0.00  0.00    +0.000 C 
ATOM     19  C   UNL     1     114.525 125.743 138.182  0.00  0.00    +0.000 C 
ENDBRANCH   9  14
ENDBRANCH   4   9
BRANCH   8  20
ATOM     20  O   UNL     1     111.695 127.360 136.973  0.00  0.00    +0.000 OA
BRANCH  20  25
ATOM     21  O   UNL     1     111.020 129.126 135.883  0.00  0.00    +0.000 OA
ATOM     22  O   UNL     1     110.062 127.119 136.969  0.00  0.00    +0.000 OA
ATOM     23  O   UNL     1     108.726 127.527 136.612  0.00  0.00    +0.000 OA
ATOM     24  O   UNL     1     108.351 130.014 135.128  0.00  0.00    +0.000 OA
ATOM     25  C   UNL     1     111.197 127.909 136.609  0.00  0.00    +0.000 A 
ATOM     26  C   UNL     1     111.517 128.578 136.247  0.00  0.00    +0.000 A 
ATOM     27  C   UNL     1     110.382 127.788 136.607  0.00  0.00    +0.000 A 
ATOM     28  C   UNL     1     109.885 128.336 136.243  0.00  0.00    +0.000 A 
ATOM     29  C   UNL     1     110.203 129.006 135.881  0.00  0.00    +0.000 A 
ATOM     30  C   UNL     1     109.036 128.200 136.248  0.00  0.00    +0.000 A 
ATOM     31  C   UNL     1     109.695 129.584 135.498  0.00  0.00    +0.000 A 
ATOM     32  C   UNL     1     108.512 128.767 135.870  0.00  0.00    +0.000 A 
ATOM     33  C   UNL     1     108.845 129.463 135.493  0.00  0.00    +0.000 A 
BRANCH  26  35
ATOM     34  O   UNL     1     114.781 129.062 136.254  0.00  0.00    +0.000 OA
ATOM     35  C   UNL     1     112.332 128.699 136.249  0.00  0.00    +0.000 A 
ATOM     36  C   UNL     1     112.673 129.207 136.802  0.00  0.00    +0.000 A 
ATOM     37  C   UNL     1     112.808 128.312 135.697  0.00  0.00    +0.000 A 
ATOM     38  C   UNL     1     113.489 129.328 136.805  0.00  0.00    +0.000 A 
ATOM     39  C   UNL     1     113.624 128.433 135.699  0.00  0.00    +0.000 A 
ATOM     40  C   UNL     1     113.965 128.941 136.252  0.00  0.00    +0.000 A 
ENDBRANCH  26  35
ENDBRANCH  20  25
ENDBRANCH   8  20
BRANCH   6  41
ATOM     41  C   UNL     1     111.242 128.214 139.663  0.00  0.00    +0.000 C 
BRANCH  41  42
ATOM     42  O   UNL     1     110.551 128.662 139.626  0.00  0.00    +0.000 OA
BRANCH  42  49
ATOM     43  O   UNL     1     111.082 129.658 140.503  0.00  0.00    +0.000 OA
ATOM     44  O   UNL     1     109.459 129.754 139.046  0.00  0.00    +0.000 OA
ATOM     45  O   UNL     1     110.520 131.746 140.800  0.00  0.00    +0.000 OA
ATOM     46  C   UNL     1     109.990 130.751 139.923  0.00  0.00    +0.000 C 
ATOM     47  C   UNL     1     109.997 129.979 139.629  0.00  0.00    +0.000 C 
ATOM     48  C   UNL     1     110.528 130.975 140.507  0.00  0.00    +0.000 C 
ATOM     49  C   UNL     1     110.543 129.433 139.920  0.00  0.00    +0.000 C 
ATOM     50  C   UNL     1     111.074 130.428 140.796  0.00  0.00    +0.000 C 
ATOM     51  C   UNL     1     111.612 130.653 141.380  0.00  0.00    +0.000 C 
BRANCH  46  52
ATOM     52  O   UNL     1     109.443 131.296 139.633  0.00  0.00    +0.000 OA
BRANCH  52  57
ATOM     53  O   UNL     1     110.368 131.866 138.704  0.00  0.00    +0.000 OA
ATOM     54  O   UNL     1     108.190 131.736 138.654  0.00  0.00    +0.000 OA
ATOM     55  O   UNL     1     108.488 132.525 137.236  0.00  0.00    +0.000 OA
ATOM     56  O   UNL     1     110.039 132.874 136.797  0.00  0.00    +0.000 OA
ATOM     57  C   UNL     1     109.593 131.691 138.923  0.00  0.00    +0.000 C 
ATOM     58  C   UNL     1     108.966 131.911 138.435  0.00  0.00    +0.000 C 
ATOM     59  C   UNL     1     109.115 132.305 137.726  0.00  0.00    +0.000 C 
ATOM     60  C   UNL     1     109.891 132.480 137.506  0.00  0.00    +0.000 C 
ATOM     61  C   UNL     1     110.517 132.260 137.995  0.00  0.00    +0.000 C 
ENDBRANCH  52  57
ENDBRANCH  46  52
ENDBRANCH  42  49
ENDBRANCH  41  42
ENDBRANCH   6  41
TORSDOF 10
ENDMDL
MODEL 9
REMARK VINA RESULT:     -11.1      2.372      5.769
REMARK  Name = 44259002
REMARK  10 active torsions:
REMARK  status: ('A' for Active; 'I' for Inactive)
REMARK    1  A    between atoms: O_2  and  C_24
REMARK    2  A    between atoms: O_2  and  C_34
REMARK    3  A    between atoms: O_4  and  C_32
REMARK    4  A    between atoms: O_4  and  C_35
REMARK    5  A    between atoms: O_5  and  C_28
REMARK    6  A    between atoms: O_5  and  C_40
REMARK    7  A    between atoms: O_9  and  C_30
REMARK    8  A    between atoms: O_9  and  C_47
REMARK    9  A    between atoms: C_26  and  C_35
REMARK   10  A    between atoms: C_48  and  C_51
REMARK                            x       y       z     vdW  Elec       q    Type
REMARK                         _______ _______ _______ _____ _____    ______ ____
ROOT
ATOM      1  O   UNL     1     110.973 127.659 138.743  0.00  0.00    +0.000 OA
ATOM      2  O   UNL     1     110.753 129.935 137.795  0.00  0.00    +0.000 OA
ATOM      3  O   UNL     1     109.510 129.277 138.658  0.00  0.00    +0.000 OA
ATOM      4  C   UNL     1     111.522 128.747 137.996  0.00  0.00    +0.000 C 
ATOM      5  C   UNL     1     110.826 129.176 138.111  0.00  0.00    +0.000 C 
ATOM      6  C   UNL     1     110.278 128.089 138.858  0.00  0.00    +0.000 C 
ATOM      7  C   UNL     1     110.205 128.848 138.542  0.00  0.00    +0.000 C 
ATOM      8  C   UNL     1     111.595 127.988 138.311  0.00  0.00    +0.000 C 
ENDROOT
BRANCH   4   9
ATOM      9  O   UNL     1     112.143 129.076 137.565  0.00  0.00    +0.000 OA
BRANCH   9  14
ATOM     10  O   UNL     1     112.606 129.743 138.741  0.00  0.00    +0.000 OA
ATOM     11  O   UNL     1     113.360 129.769 136.693  0.00  0.00    +0.000 OA
ATOM     12  O   UNL     1     114.432 130.782 137.433  0.00  0.00    +0.000 OA
ATOM     13  O   UNL     1     114.286 131.102 139.045  0.00  0.00    +0.000 OA
ATOM     14  C   UNL     1     112.679 129.582 137.935  0.00  0.00    +0.000 C 
ATOM     15  C   UNL     1     113.288 129.929 137.499  0.00  0.00    +0.000 C 
ATOM     16  C   UNL     1     113.824 130.436 137.869  0.00  0.00    +0.000 C 
ATOM     17  C   UNL     1     113.750 130.595 138.675  0.00  0.00    +0.000 C 
ATOM     18  C   UNL     1     113.142 130.249 139.111  0.00  0.00    +0.000 C 
ATOM     19  C   UNL     1     113.069 130.409 139.917  0.00  0.00    +0.000 C 
ENDBRANCH   9  14
ENDBRANCH   4   9
BRANCH   8  20
ATOM     20  O   UNL     1     112.289 127.558 138.197  0.00  0.00    +0.000 OA
BRANCH  20  25
ATOM     21  O   UNL     1     112.609 125.400 138.244  0.00  0.00    +0.000 OA
ATOM     22  O   UNL     1     111.423 127.086 136.874  0.00  0.00    +0.000 OA
ATOM     23  O   UNL     1     110.934 126.061 135.984  0.00  0.00    +0.000 OA
ATOM     24  O   UNL     1     111.660 123.278 136.490  0.00  0.00    +0.000 OA
ATOM     25  C   UNL     1     112.251 126.760 137.992  0.00  0.00    +0.000 A 
ATOM     26  C   UNL     1     112.647 126.198 138.449  0.00  0.00    +0.000 A 
ATOM     27  C   UNL     1     111.819 126.524 137.331  0.00  0.00    +0.000 A 
ATOM     28  C   UNL     1     111.781 125.726 137.126  0.00  0.00    +0.000 A 
ATOM     29  C   UNL     1     112.176 125.164 137.582  0.00  0.00    +0.000 A 
ATOM     30  C   UNL     1     111.327 125.492 136.434  0.00  0.00    +0.000 A 
ATOM     31  C   UNL     1     112.144 124.329 137.379  0.00  0.00    +0.000 A 
ATOM     32  C   UNL     1     111.283 124.662 136.216  0.00  0.00    +0.000 A 
ATOM     33  C   UNL     1     111.695 124.077 136.691  0.00  0.00    +0.000 A 
BRANCH  26  35
ATOM     34  O   UNL     1     114.378 127.142 141.095  0.00  0.00    +0.000 OA
ATOM     35  C   UNL     1     113.080 126.434 139.110  0.00  0.00    +0.000 A 
ATOM     36  C   UNL     1     112.726 126.436 139.855  0.00  0.00    +0.000 A 
ATOM     37  C   UNL     1     113.866 126.668 139.026  0.00  0.00    +0.000 A 
ATOM     38  C   UNL     1     113.158 126.672 140.517  0.00  0.00    +0.000 A 
ATOM     39  C   UNL     1     114.299 126.905 139.687  0.00  0.00    +0.000 A 
ATOM     40  C   UNL     1     113.945 126.906 140.433  0.00  0.00    +0.000 A 
ENDBRANCH  26  35
ENDBRANCH  20  25
ENDBRANCH   8  20
BRANCH   6  41
ATOM     41  C   UNL     1     109.656 127.760 139.290  0.00  0.00    +0.000 C 
BRANCH  41  42
ATOM     42  O   UNL     1     109.778 127.072 139.728  0.00  0.00    +0.000 OA
BRANCH  42  49
ATOM     43  O   UNL     1     109.095 127.502 140.908  0.00  0.00    +0.000 OA
ATOM     44  O   UNL     1     109.206 125.541 139.955  0.00  0.00    +0.000 OA
ATOM     45  O   UNL     1     107.841 126.401 142.314  0.00  0.00    +0.000 OA
ATOM     46  C   UNL     1     108.523 125.971 141.135  0.00  0.00    +0.000 C 
ATOM     47  C   UNL     1     109.007 126.139 140.488  0.00  0.00    +0.000 C 
ATOM     48  C   UNL     1     108.325 126.569 141.668  0.00  0.00    +0.000 C 
ATOM     49  C   UNL     1     109.293 126.904 140.375  0.00  0.00    +0.000 C 
ATOM     50  C   UNL     1     108.611 127.334 141.554  0.00  0.00    +0.000 C 
ATOM     51  C   UNL     1     108.413 127.932 142.087  0.00  0.00    +0.000 C 
BRANCH  46  52
ATOM     52  O   UNL     1     108.237 125.205 141.248  0.00  0.00    +0.000 OA
BRANCH  52  57
ATOM     53  O   UNL     1     107.084 125.521 140.463  0.00  0.00    +0.000 OA
ATOM     54  O   UNL     1     107.668 123.672 141.466  0.00  0.00    +0.000 OA
ATOM     55  O   UNL     1     106.232 123.221 140.791  0.00  0.00    +0.000 OA
ATOM     56  O   UNL     1     105.364 124.303 139.898  0.00  0.00    +0.000 OA
ATOM     57  C   UNL     1     107.518 124.980 140.910  0.00  0.00    +0.000 C 
ATOM     58  C   UNL     1     107.234 124.213 141.019  0.00  0.00    +0.000 C 
ATOM     59  C   UNL     1     106.516 123.988 140.682  0.00  0.00    +0.000 C 
ATOM     60  C   UNL     1     106.082 124.529 140.235  0.00  0.00    +0.000 C 
ATOM     61  C   UNL     1     106.367 125.296 140.126  0.00  0.00    +0.000 C 
ENDBRANCH  52  57
ENDBRANCH  46  52
ENDBRANCH  42  49
ENDBRANCH  41  42
ENDBRANCH   6  41
TORSDOF 10
ENDMDL
MODEL 10
REMARK VINA RESULT:     -11.1      1.553      3.272
REMARK  Name = 44259002
REMARK  10 active torsions:
REMARK  status: ('A' for Active; 'I' for Inactive)
REMARK    1  A    between atoms: O_2  and  C_24
REMARK    2  A    between atoms: O_2  and  C_34
REMARK    3  A    between atoms: O_4  and  C_32
REMARK    4  A    between atoms: O_4  and  C_35
REMARK    5  A    between atoms: O_5  and  C_28
REMARK    6  A    between atoms: O_5  and  C_40
REMARK    7  A    between atoms: O_9  and  C_30
REMARK    8  A    between atoms: O_9  and  C_47
REMARK    9  A    between atoms: C_26  and  C_35
REMARK   10  A    between atoms: C_48  and  C_51
REMARK                            x       y       z     vdW  Elec       q    Type
REMARK                         _______ _______ _______ _____ _____    ______ ____
ROOT
ATOM      1  O   UNL     1     111.971 128.674 138.174  0.00  0.00    +0.000 OA
ATOM      2  O   UNL     1     112.538 127.513 136.063  0.00  0.00    +0.000 OA
ATOM      3  O   UNL     1     111.395 128.704 136.068  0.00  0.00    +0.000 OA
ATOM      4  C   UNL     1     112.731 127.692 137.467  0.00  0.00    +0.000 C 
ATOM      5  C   UNL     1     112.349 127.900 136.766  0.00  0.00    +0.000 C 
ATOM      6  C   UNL     1     111.589 128.882 137.473  0.00  0.00    +0.000 C 
ATOM      7  C   UNL     1     111.778 128.495 136.769  0.00  0.00    +0.000 C 
ATOM      8  C   UNL     1     112.542 128.079 138.171  0.00  0.00    +0.000 C 
ENDROOT
BRANCH   4   9
ATOM      9  O   UNL     1     113.302 127.097 137.464  0.00  0.00    +0.000 OA
BRANCH   9  14
ATOM     10  O   UNL     1     112.284 126.097 137.538  0.00  0.00    +0.000 OA
ATOM     11  O   UNL     1     114.422 125.931 137.135  0.00  0.00    +0.000 OA
ATOM     12  O   UNL     1     113.964 124.349 137.043  0.00  0.00    +0.000 OA
ATOM     13  O   UNL     1     112.385 123.932 137.282  0.00  0.00    +0.000 OA
ATOM     14  C   UNL     1     113.073 126.306 137.419  0.00  0.00    +0.000 C 
ATOM     15  C   UNL     1     113.633 125.722 137.254  0.00  0.00    +0.000 C 
ATOM     16  C   UNL     1     113.404 124.931 137.208  0.00  0.00    +0.000 C 
ATOM     17  C   UNL     1     112.615 124.723 137.327  0.00  0.00    +0.000 C 
ATOM     18  C   UNL     1     112.055 125.305 137.492  0.00  0.00    +0.000 C 
ATOM     19  C   UNL     1     111.265 125.098 137.611  0.00  0.00    +0.000 C 
ENDBRANCH   9  14
ENDBRANCH   4   9
BRANCH   8  20
ATOM     20  O   UNL     1     112.924 127.871 138.872  0.00  0.00    +0.000 OA
BRANCH  20  25
ATOM     21  O   UNL     1     113.206 129.004 140.716  0.00  0.00    +0.000 OA
ATOM     22  O   UNL     1     113.853 129.122 138.329  0.00  0.00    +0.000 OA
ATOM     23  O   UNL     1     114.581 130.346 138.557  0.00  0.00    +0.000 OA
ATOM     24  O   UNL     1     114.656 131.473 141.250  0.00  0.00    +0.000 OA
ATOM     25  C   UNL     1     113.173 128.457 139.396  0.00  0.00    +0.000 A 
ATOM     26  C   UNL     1     112.957 128.417 140.191  0.00  0.00    +0.000 A 
ATOM     27  C   UNL     1     113.637 129.082 139.125  0.00  0.00    +0.000 A 
ATOM     28  C   UNL     1     113.886 129.668 139.649  0.00  0.00    +0.000 A 
ATOM     29  C   UNL     1     113.671 129.630 140.444  0.00  0.00    +0.000 A 
ATOM     30  C   UNL     1     114.370 130.315 139.355  0.00  0.00    +0.000 A 
ATOM     31  C   UNL     1     113.924 130.234 141.000  0.00  0.00    +0.000 A 
ATOM     32  C   UNL     1     114.633 130.929 139.895  0.00  0.00    +0.000 A 
ATOM     33  C   UNL     1     114.408 130.888 140.723  0.00  0.00    +0.000 A 
BRANCH  26  35
ATOM     34  O   UNL     1     111.099 125.915 141.277  0.00  0.00    +0.000 OA
ATOM     35  C   UNL     1     112.493 127.792 140.463  0.00  0.00    +0.000 A 
ATOM     36  C   UNL     1     112.844 127.070 140.651  0.00  0.00    +0.000 A 
ATOM     37  C   UNL     1     111.679 127.889 140.546  0.00  0.00    +0.000 A 
ATOM     38  C   UNL     1     112.380 126.444 140.922  0.00  0.00    +0.000 A 
ATOM     39  C   UNL     1     111.213 127.264 140.817  0.00  0.00    +0.000 A 
ATOM     40  C   UNL     1     111.564 126.541 141.005  0.00  0.00    +0.000 A 
ENDBRANCH  26  35
ENDBRANCH  20  25
ENDBRANCH   8  20
BRANCH   6  41
ATOM     41  C   UNL     1     111.017 129.478 137.475  0.00  0.00    +0.000 C 
BRANCH  41  42
ATOM     42  O   UNL     1     110.314 129.371 137.892  0.00  0.00    +0.000 OA
BRANCH  42  49
ATOM     43  O   UNL     1     109.996 130.759 137.765  0.00  0.00    +0.000 OA
ATOM     44  O   UNL     1     109.163 129.216 139.065  0.00  0.00    +0.000 OA
ATOM     45  O   UNL     1     108.529 131.991 138.811  0.00  0.00    +0.000 OA
ATOM     46  C   UNL     1     108.846 130.604 138.938  0.00  0.00    +0.000 C 
ATOM     47  C   UNL     1     109.292 129.949 138.708  0.00  0.00    +0.000 C 
ATOM     48  C   UNL     1     108.975 131.337 138.581  0.00  0.00    +0.000 C 
ATOM     49  C   UNL     1     109.867 130.027 138.122  0.00  0.00    +0.000 C 
ATOM     50  C   UNL     1     109.550 131.414 137.995  0.00  0.00    +0.000 C 
ATOM     51  C   UNL     1     109.679 132.146 137.638  0.00  0.00    +0.000 C 
BRANCH  46  52
ATOM     52  O   UNL     1     108.271 130.526 139.524  0.00  0.00    +0.000 OA
BRANCH  52  57
ATOM     53  O   UNL     1     109.251 130.815 140.524  0.00  0.00    +0.000 OA
ATOM     54  O   UNL     1     107.144 130.272 140.702  0.00  0.00    +0.000 OA
ATOM     55  O   UNL     1     107.560 130.435 142.291  0.00  0.00    +0.000 OA
ATOM     56  O   UNL     1     109.103 130.851 142.701  0.00  0.00    +0.000 OA
ATOM     57  C   UNL     1     108.479 130.607 140.319  0.00  0.00    +0.000 C 
ATOM     58  C   UNL     1     107.915 130.480 140.908  0.00  0.00    +0.000 C 
ATOM     59  C   UNL     1     108.124 130.562 141.701  0.00  0.00    +0.000 C 
ATOM     60  C   UNL     1     108.895 130.770 141.907  0.00  0.00    +0.000 C 
ATOM     61  C   UNL     1     109.458 130.897 141.318  0.00  0.00    +0.000 C 
ENDBRANCH  52  57
ENDBRANCH  46  52
ENDBRANCH  42  49
ENDBRANCH  41  42
ENDBRANCH   6  41
TORSDOF 10
ENDMDL
