MODEL 1
REMARK VINA RESULT:      -9.9      0.000      0.000
REMARK  Name = 14334894
REMARK  7 active torsions:
REMARK  status: ('A' for Active; 'I' for Inactive)
REMARK    1  A    between atoms: O_3  and  C_22
REMARK    2  A    between atoms: O_3  and  C_28
REMARK    3  A    between atoms: O_6  and  C_25
REMARK    4  A    between atoms: O_6  and  C_29
REMARK    5  A    between atoms: O_15  and  C_42
REMARK    6  A    between atoms: C_19  and  C_26
REMARK    7  A    between atoms: C_32  and  C_37
REMARK                            x       y       z     vdW  Elec       q    Type
REMARK                         _______ _______ _______ _____ _____    ______ ____
ROOT
ATOM      1  O   UNL     1     113.077 128.336 138.195  0.00  0.00    +0.000 OA
ATOM      2  O   UNL     1     112.491 126.109 139.101  0.00  0.00    +0.000 OA
ATOM      3  O   UNL     1     113.185 126.396 140.333  0.00  0.00    +0.000 OA
ATOM      4  C   UNL     1     112.437 127.067 138.042  0.00  0.00    +0.000 A 
ATOM      5  C   UNL     1     114.052 128.458 140.202  0.00  0.00    +0.000 A 
ATOM      6  C   UNL     1     113.131 127.377 139.253  0.00  0.00    +0.000 A 
ATOM      7  C   UNL     1     112.687 126.851 138.799  0.00  0.00    +0.000 A 
ATOM      8  C   UNL     1     112.632 127.810 137.741  0.00  0.00    +0.000 A 
ATOM      9  C   UNL     1     113.326 128.120 138.950  0.00  0.00    +0.000 A 
ATOM     10  C   UNL     1     113.788 128.677 139.413  0.00  0.00    +0.000 A 
ATOM     11  C   UNL     1     113.848 127.684 140.516  0.00  0.00    +0.000 A 
ATOM     12  C   UNL     1     113.385 127.141 140.038  0.00  0.00    +0.000 A 
ENDROOT
BRANCH   8  13
ATOM     13  C   UNL     1     112.382 128.026 136.984  0.00  0.00    +0.000 A 
ATOM     14  C   UNL     1     111.587 128.195 136.845  0.00  0.00    +0.000 A 
ATOM     15  C   UNL     1     112.929 128.072 136.368  0.00  0.00    +0.000 A 
ATOM     16  C   UNL     1     111.338 128.411 136.089  0.00  0.00    +0.000 A 
ATOM     17  C   UNL     1     112.679 128.288 135.611  0.00  0.00    +0.000 A 
ATOM     18  C   UNL     1     111.884 128.458 135.472  0.00  0.00    +0.000 A 
BRANCH  18  19
ATOM     19  O   UNL     1     111.634 128.673 134.716  0.00  0.00    +0.000 OA
ATOM     20  C   UNL     1     111.050 129.248 134.623  0.00  0.00    +0.000 C 
ENDBRANCH  18  19
ENDBRANCH   8  13
BRANCH   4  21
ATOM     21  O   UNL     1     111.992 126.541 137.589  0.00  0.00    +0.000 OA
BRANCH  21  30
ATOM     22  O   UNL     1     113.103 125.700 137.273  0.00  0.00    +0.000 OA
ATOM     23  O   UNL     1     111.587 123.749 137.133  0.00  0.00    +0.000 OA
ATOM     24  O   UNL     1     113.203 123.558 136.864  0.00  0.00    +0.000 OA
ATOM     25  O   UNL     1     110.981 125.240 137.496  0.00  0.00    +0.000 OA
ATOM     26  C   UNL     1     112.092 124.399 137.180  0.00  0.00    +0.000 C 
ATOM     27  C   UNL     1     112.901 124.304 137.045  0.00  0.00    +0.000 C 
ATOM     28  C   UNL     1     111.790 125.145 137.361  0.00  0.00    +0.000 C 
ATOM     29  C   UNL     1     113.407 124.954 137.091  0.00  0.00    +0.000 C 
ATOM     30  C   UNL     1     112.296 125.795 137.407  0.00  0.00    +0.000 C 
BRANCH  29  32
ATOM     31  O   UNL     1     114.569 125.218 136.305  0.00  0.00    +0.000 OA
ATOM     32  C   UNL     1     114.215 124.858 136.957  0.00  0.00    +0.000 C 
ENDBRANCH  29  32
ENDBRANCH  21  30
ENDBRANCH   4  21
BRANCH   5  33
ATOM     33  O   UNL     1     114.496 128.987 140.652  0.00  0.00    +0.000 OA
BRANCH  33  42
ATOM     34  O   UNL     1     113.393 129.530 141.380  0.00  0.00    +0.000 OA
ATOM     35  O   UNL     1     114.487 131.750 141.381  0.00  0.00    +0.000 OA
ATOM     36  O   UNL     1     113.019 131.554 142.109  0.00  0.00    +0.000 OA
ATOM     37  O   UNL     1     115.226 130.467 140.653  0.00  0.00    +0.000 OA
ATOM     38  C   UNL     1     114.122 131.010 141.381  0.00  0.00    +0.000 C 
ATOM     39  C   UNL     1     113.388 130.912 141.745  0.00  0.00    +0.000 C 
ATOM     40  C   UNL     1     114.491 130.369 141.017  0.00  0.00    +0.000 C 
ATOM     41  C   UNL     1     113.024 130.173 141.744  0.00  0.00    +0.000 C 
ATOM     42  C   UNL     1     114.127 129.629 141.017  0.00  0.00    +0.000 C 
ATOM     43  C   UNL     1     112.290 130.075 142.108  0.00  0.00    +0.000 C 
ENDBRANCH  33  42
ENDBRANCH   5  33
TORSDOF 7
ENDMDL
MODEL 2
REMARK VINA RESULT:      -9.9      1.355      2.920
REMARK  Name = 14334894
REMARK  7 active torsions:
REMARK  status: ('A' for Active; 'I' for Inactive)
REMARK    1  A    between atoms: O_3  and  C_22
REMARK    2  A    between atoms: O_3  and  C_28
REMARK    3  A    between atoms: O_6  and  C_25
REMARK    4  A    between atoms: O_6  and  C_29
REMARK    5  A    between atoms: O_15  and  C_42
REMARK    6  A    between atoms: C_19  and  C_26
REMARK    7  A    between atoms: C_32  and  C_37
REMARK                            x       y       z     vdW  Elec       q    Type
REMARK                         _______ _______ _______ _____ _____    ______ ____
ROOT
ATOM      1  O   UNL     1     113.439 126.232 138.742  0.00  0.00    +0.000 OA
ATOM      2  O   UNL     1     111.047 125.806 138.274  0.00  0.00    +0.000 OA
ATOM      3  O   UNL     1     110.666 126.394 139.535  0.00  0.00    +0.000 OA
ATOM      4  C   UNL     1     112.418 125.726 137.880  0.00  0.00    +0.000 A 
ATOM      5  C   UNL     1     112.519 127.068 140.598  0.00  0.00    +0.000 A 
ATOM      6  C   UNL     1     112.068 126.313 139.135  0.00  0.00    +0.000 A 
ATOM      7  C   UNL     1     111.844 125.949 138.430  0.00  0.00    +0.000 A 
ATOM      8  C   UNL     1     113.215 125.868 138.036  0.00  0.00    +0.000 A 
ATOM      9  C   UNL     1     112.866 126.455 139.291  0.00  0.00    +0.000 A 
ATOM     10  C   UNL     1     113.112 126.834 140.021  0.00  0.00    +0.000 A 
ATOM     11  C   UNL     1     111.688 126.920 140.436  0.00  0.00    +0.000 A 
ATOM     12  C   UNL     1     111.462 126.540 139.699  0.00  0.00    +0.000 A 
ENDROOT
BRANCH   8  13
ATOM     13  C   UNL     1     113.789 125.645 137.486  0.00  0.00    +0.000 A 
ATOM     14  C   UNL     1     114.012 124.853 137.420  0.00  0.00    +0.000 A 
ATOM     15  C   UNL     1     114.139 126.214 137.003  0.00  0.00    +0.000 A 
ATOM     16  C   UNL     1     114.586 124.631 136.871  0.00  0.00    +0.000 A 
ATOM     17  C   UNL     1     114.713 125.991 136.452  0.00  0.00    +0.000 A 
ATOM     18  C   UNL     1     114.936 125.200 136.387  0.00  0.00    +0.000 A 
BRANCH  18  19
ATOM     19  O   UNL     1     115.509 124.978 135.837  0.00  0.00    +0.000 OA
ATOM     20  C   UNL     1     115.645 125.445 135.171  0.00  0.00    +0.000 C 
ENDBRANCH  18  19
ENDBRANCH   8  13
BRANCH   4  21
ATOM     21  O   UNL     1     112.194 125.361 137.174  0.00  0.00    +0.000 OA
BRANCH  21  30
ATOM     22  O   UNL     1     111.708 126.572 136.592  0.00  0.00    +0.000 OA
ATOM     23  O   UNL     1     110.123 125.270 135.207  0.00  0.00    +0.000 OA
ATOM     24  O   UNL     1     110.165 126.915 135.086  0.00  0.00    +0.000 OA
ATOM     25  O   UNL     1     111.137 124.493 136.251  0.00  0.00    +0.000 OA
ATOM     26  C   UNL     1     110.651 125.704 135.669  0.00  0.00    +0.000 C 
ATOM     27  C   UNL     1     110.673 126.527 135.608  0.00  0.00    +0.000 C 
ATOM     28  C   UNL     1     111.159 125.316 136.191  0.00  0.00    +0.000 C 
ATOM     29  C   UNL     1     111.201 126.961 136.070  0.00  0.00    +0.000 C 
ATOM     30  C   UNL     1     111.687 125.750 136.652  0.00  0.00    +0.000 C 
BRANCH  29  32
ATOM     31  O   UNL     1     111.893 128.158 135.711  0.00  0.00    +0.000 OA
ATOM     32  C   UNL     1     111.222 127.783 136.009  0.00  0.00    +0.000 C 
ENDBRANCH  29  32
ENDBRANCH  21  30
ENDBRANCH   4  21
BRANCH   5  33
ATOM     33  O   UNL     1     112.747 127.433 141.303  0.00  0.00    +0.000 OA
BRANCH  33  42
ATOM     34  O   UNL     1     113.143 128.696 140.765  0.00  0.00    +0.000 OA
ATOM     35  O   UNL     1     112.072 129.845 142.677  0.00  0.00    +0.000 OA
ATOM     36  O   UNL     1     112.824 130.726 141.503  0.00  0.00    +0.000 OA
ATOM     37  O   UNL     1     112.033 128.199 142.578  0.00  0.00    +0.000 OA
ATOM     38  C   UNL     1     112.429 129.462 142.040  0.00  0.00    +0.000 C 
ATOM     39  C   UNL     1     112.805 129.902 141.452  0.00  0.00    +0.000 C 
ATOM     40  C   UNL     1     112.409 128.639 141.990  0.00  0.00    +0.000 C 
ATOM     41  C   UNL     1     113.162 129.520 140.815  0.00  0.00    +0.000 C 
ATOM     42  C   UNL     1     112.766 128.256 141.352  0.00  0.00    +0.000 C 
ATOM     43  C   UNL     1     113.538 129.960 140.228  0.00  0.00    +0.000 C 
ENDBRANCH  33  42
ENDBRANCH   5  33
TORSDOF 7
ENDMDL
MODEL 3
REMARK VINA RESULT:      -9.8      1.538      5.713
REMARK  Name = 14334894
REMARK  7 active torsions:
REMARK  status: ('A' for Active; 'I' for Inactive)
REMARK    1  A    between atoms: O_3  and  C_22
REMARK    2  A    between atoms: O_3  and  C_28
REMARK    3  A    between atoms: O_6  and  C_25
REMARK    4  A    between atoms: O_6  and  C_29
REMARK    5  A    between atoms: O_15  and  C_42
REMARK    6  A    between atoms: C_19  and  C_26
REMARK    7  A    between atoms: C_32  and  C_37
REMARK                            x       y       z     vdW  Elec       q    Type
REMARK                         _______ _______ _______ _____ _____    ______ ____
ROOT
ATOM      1  O   UNL     1     112.430 128.542 138.352  0.00  0.00    +0.000 OA
ATOM      2  O   UNL     1     114.049 128.663 140.221  0.00  0.00    +0.000 OA
ATOM      3  O   UNL     1     113.973 127.236 140.417  0.00  0.00    +0.000 OA
ATOM      4  C   UNL     1     113.286 129.311 139.200  0.00  0.00    +0.000 A 
ATOM      5  C   UNL     1     112.544 126.383 138.916  0.00  0.00    +0.000 A 
ATOM      6  C   UNL     1     113.193 127.895 139.373  0.00  0.00    +0.000 A 
ATOM      7  C   UNL     1     113.509 128.623 139.598  0.00  0.00    +0.000 A 
ATOM      8  C   UNL     1     112.747 129.270 138.578  0.00  0.00    +0.000 A 
ATOM      9  C   UNL     1     112.653 127.855 138.750  0.00  0.00    +0.000 A 
ATOM     10  C   UNL     1     112.316 127.103 138.506  0.00  0.00    +0.000 A 
ATOM     11  C   UNL     1     113.106 126.425 139.565  0.00  0.00    +0.000 A 
ATOM     12  C   UNL     1     113.432 127.186 139.795  0.00  0.00    +0.000 A 
ENDROOT
BRANCH   8  13
ATOM     13  C   UNL     1     112.524 129.958 138.180  0.00  0.00    +0.000 A 
ATOM     14  C   UNL     1     113.050 130.322 137.658  0.00  0.00    +0.000 A 
ATOM     15  C   UNL     1     111.775 130.282 138.304  0.00  0.00    +0.000 A 
ATOM     16  C   UNL     1     112.827 131.009 137.261  0.00  0.00    +0.000 A 
ATOM     17  C   UNL     1     111.552 130.970 137.906  0.00  0.00    +0.000 A 
ATOM     18  C   UNL     1     112.078 131.334 137.384  0.00  0.00    +0.000 A 
BRANCH  18  19
ATOM     19  O   UNL     1     111.855 132.021 136.987  0.00  0.00    +0.000 OA
ATOM     20  C   UNL     1     111.081 132.300 137.049  0.00  0.00    +0.000 C 
ENDBRANCH  18  19
ENDBRANCH   8  13
BRANCH   4  21
ATOM     21  O   UNL     1     113.603 130.039 139.425  0.00  0.00    +0.000 OA
BRANCH  21  30
ATOM     22  O   UNL     1     112.817 130.129 140.615  0.00  0.00    +0.000 OA
ATOM     23  O   UNL     1     114.590 131.483 141.685  0.00  0.00    +0.000 OA
ATOM     24  O   UNL     1     113.213 131.121 142.518  0.00  0.00    +0.000 OA
ATOM     25  O   UNL     1     114.785 130.942 140.139  0.00  0.00    +0.000 OA
ATOM     26  C   UNL     1     113.999 131.032 141.328  0.00  0.00    +0.000 C 
ATOM     27  C   UNL     1     113.310 130.851 141.745  0.00  0.00    +0.000 C 
ATOM     28  C   UNL     1     114.096 130.761 140.555  0.00  0.00    +0.000 C 
ATOM     29  C   UNL     1     112.718 130.399 141.389  0.00  0.00    +0.000 C 
ATOM     30  C   UNL     1     113.505 130.309 140.199  0.00  0.00    +0.000 C 
BRANCH  29  32
ATOM     31  O   UNL     1     111.303 130.503 141.542  0.00  0.00    +0.000 OA
ATOM     32  C   UNL     1     112.030 130.218 141.805  0.00  0.00    +0.000 C 
ENDBRANCH  29  32
ENDBRANCH  21  30
ENDBRANCH   4  21
BRANCH   5  33
ATOM     33  O   UNL     1     112.226 125.657 138.688  0.00  0.00    +0.000 OA
BRANCH  33  42
ATOM     34  O   UNL     1     113.352 125.248 137.911  0.00  0.00    +0.000 OA
ATOM     35  O   UNL     1     111.841 124.075 136.339  0.00  0.00    +0.000 OA
ATOM     36  O   UNL     1     113.471 124.056 136.085  0.00  0.00    +0.000 OA
ATOM     37  O   UNL     1     111.218 124.876 137.641  0.00  0.00    +0.000 OA
ATOM     38  C   UNL     1     112.345 124.466 136.863  0.00  0.00    +0.000 C 
ATOM     39  C   UNL     1     113.160 124.457 136.736  0.00  0.00    +0.000 C 
ATOM     40  C   UNL     1     112.034 124.866 137.514  0.00  0.00    +0.000 C 
ATOM     41  C   UNL     1     113.663 124.847 137.259  0.00  0.00    +0.000 C 
ATOM     42  C   UNL     1     112.537 125.257 138.038  0.00  0.00    +0.000 C 
ATOM     43  C   UNL     1     114.479 124.838 137.132  0.00  0.00    +0.000 C 
ENDBRANCH  33  42
ENDBRANCH   5  33
TORSDOF 7
ENDMDL
MODEL 4
REMARK VINA RESULT:      -9.8      2.569      6.356
REMARK  Name = 14334894
REMARK  7 active torsions:
REMARK  status: ('A' for Active; 'I' for Inactive)
REMARK    1  A    between atoms: O_3  and  C_22
REMARK    2  A    between atoms: O_3  and  C_28
REMARK    3  A    between atoms: O_6  and  C_25
REMARK    4  A    between atoms: O_6  and  C_29
REMARK    5  A    between atoms: O_15  and  C_42
REMARK    6  A    between atoms: C_19  and  C_26
REMARK    7  A    between atoms: C_32  and  C_37
REMARK                            x       y       z     vdW  Elec       q    Type
REMARK                         _______ _______ _______ _____ _____    ______ ____
ROOT
ATOM      1  O   UNL     1     111.971 128.705 138.451  0.00  0.00    +0.000 OA
ATOM      2  O   UNL     1     110.542 130.033 136.928  0.00  0.00    +0.000 OA
ATOM      3  O   UNL     1     109.700 128.889 136.675  0.00  0.00    +0.000 OA
ATOM      4  C   UNL     1     111.666 129.944 137.806  0.00  0.00    +0.000 A 
ATOM      5  C   UNL     1     110.484 127.150 137.849  0.00  0.00    +0.000 A 
ATOM      6  C   UNL     1     110.847 128.795 137.573  0.00  0.00    +0.000 A 
ATOM      7  C   UNL     1     111.018 129.590 137.435  0.00  0.00    +0.000 A 
ATOM      8  C   UNL     1     112.142 129.501 138.313  0.00  0.00    +0.000 A 
ATOM      9  C   UNL     1     111.325 128.353 138.081  0.00  0.00    +0.000 A 
ATOM     10  C   UNL     1     111.157 127.524 138.232  0.00  0.00    +0.000 A 
ATOM     11  C   UNL     1     109.988 127.611 137.320  0.00  0.00    +0.000 A 
ATOM     12  C   UNL     1     110.171 128.439 137.182  0.00  0.00    +0.000 A 
ENDROOT
BRANCH   8  13
ATOM     13  C   UNL     1     112.790 129.854 138.684  0.00  0.00    +0.000 A 
ATOM     14  C   UNL     1     113.458 130.055 138.243  0.00  0.00    +0.000 A 
ATOM     15  C   UNL     1     112.768 130.006 139.494  0.00  0.00    +0.000 A 
ATOM     16  C   UNL     1     114.105 130.408 138.613  0.00  0.00    +0.000 A 
ATOM     17  C   UNL     1     113.416 130.359 139.864  0.00  0.00    +0.000 A 
ATOM     18  C   UNL     1     114.084 130.560 139.424  0.00  0.00    +0.000 A 
BRANCH  18  19
ATOM     19  O   UNL     1     114.731 130.913 139.794  0.00  0.00    +0.000 OA
ATOM     20  C   UNL     1     115.143 130.505 140.381  0.00  0.00    +0.000 C 
ENDBRANCH  18  19
ENDBRANCH   8  13
BRANCH   4  21
ATOM     21  O   UNL     1     111.837 130.739 137.668  0.00  0.00    +0.000 OA
BRANCH  21  30
ATOM     22  O   UNL     1     110.779 131.235 138.491  0.00  0.00    +0.000 OA
ATOM     23  O   UNL     1     110.563 133.214 137.020  0.00  0.00    +0.000 OA
ATOM     24  O   UNL     1     109.577 133.050 138.333  0.00  0.00    +0.000 OA
ATOM     25  O   UNL     1     111.693 132.058 136.688  0.00  0.00    +0.000 OA
ATOM     26  C   UNL     1     110.635 132.554 137.510  0.00  0.00    +0.000 C 
ATOM     27  C   UNL     1     110.141 132.472 138.167  0.00  0.00    +0.000 C 
ATOM     28  C   UNL     1     111.199 131.976 137.345  0.00  0.00    +0.000 C 
ATOM     29  C   UNL     1     110.214 131.813 138.658  0.00  0.00    +0.000 C 
ATOM     30  C   UNL     1     111.271 131.317 137.835  0.00  0.00    +0.000 C 
BRANCH  29  32
ATOM     31  O   UNL     1     110.031 131.801 140.074  0.00  0.00    +0.000 OA
ATOM     32  C   UNL     1     109.721 131.731 139.314  0.00  0.00    +0.000 C 
ENDBRANCH  29  32
ENDBRANCH  21  30
ENDBRANCH   4  21
BRANCH   5  33
ATOM     33  O   UNL     1     110.316 126.355 137.989  0.00  0.00    +0.000 OA
BRANCH  33  42
ATOM     34  O   UNL     1     110.665 125.809 136.715  0.00  0.00    +0.000 OA
ATOM     35  O   UNL     1     111.840 123.942 137.836  0.00  0.00    +0.000 OA
ATOM     36  O   UNL     1     111.797 124.018 136.189  0.00  0.00    +0.000 OA
ATOM     37  O   UNL     1     111.100 125.109 138.736  0.00  0.00    +0.000 OA
ATOM     38  C   UNL     1     111.448 124.564 137.462  0.00  0.00    +0.000 C 
ATOM     39  C   UNL     1     111.427 124.603 136.638  0.00  0.00    +0.000 C 
ATOM     40  C   UNL     1     111.078 125.148 137.913  0.00  0.00    +0.000 C 
ATOM     41  C   UNL     1     111.035 125.225 136.265  0.00  0.00    +0.000 C 
ATOM     42  C   UNL     1     110.686 125.771 137.539  0.00  0.00    +0.000 C 
ATOM     43  C   UNL     1     111.014 125.263 135.441  0.00  0.00    +0.000 C 
ENDBRANCH  33  42
ENDBRANCH   5  33
TORSDOF 7
ENDMDL
MODEL 5
REMARK VINA RESULT:      -9.7      2.066      4.851
REMARK  Name = 14334894
REMARK  7 active torsions:
REMARK  status: ('A' for Active; 'I' for Inactive)
REMARK    1  A    between atoms: O_3  and  C_22
REMARK    2  A    between atoms: O_3  and  C_28
REMARK    3  A    between atoms: O_6  and  C_25
REMARK    4  A    between atoms: O_6  and  C_29
REMARK    5  A    between atoms: O_15  and  C_42
REMARK    6  A    between atoms: C_19  and  C_26
REMARK    7  A    between atoms: C_32  and  C_37
REMARK                            x       y       z     vdW  Elec       q    Type
REMARK                         _______ _______ _______ _____ _____    ______ ____
ROOT
ATOM      1  O   UNL     1     111.313 128.068 138.261  0.00  0.00    +0.000 OA
ATOM      2  O   UNL     1     112.106 127.120 136.117  0.00  0.00    +0.000 OA
ATOM      3  O   UNL     1     110.963 127.662 135.422  0.00  0.00    +0.000 OA
ATOM      4  C   UNL     1     112.280 127.320 137.521  0.00  0.00    +0.000 A 
ATOM      5  C   UNL     1     109.683 128.759 136.898  0.00  0.00    +0.000 A 
ATOM      6  C   UNL     1     111.139 127.868 136.857  0.00  0.00    +0.000 A 
ATOM      7  C   UNL     1     111.841 127.436 136.831  0.00  0.00    +0.000 A 
ATOM      8  C   UNL     1     112.016 127.636 138.235  0.00  0.00    +0.000 A 
ATOM      9  C   UNL     1     110.875 128.183 137.572  0.00  0.00    +0.000 A 
ATOM     10  C   UNL     1     110.145 128.635 137.612  0.00  0.00    +0.000 A 
ATOM     11  C   UNL     1     109.959 128.430 136.153  0.00  0.00    +0.000 A 
ATOM     12  C   UNL     1     110.691 127.981 136.133  0.00  0.00    +0.000 A 
ENDROOT
BRANCH   8  13
ATOM     13  C   UNL     1     112.455 127.520 138.925  0.00  0.00    +0.000 A 
ATOM     14  C   UNL     1     112.198 126.978 139.491  0.00  0.00    +0.000 A 
ATOM     15  C   UNL     1     113.151 127.946 139.046  0.00  0.00    +0.000 A 
ATOM     16  C   UNL     1     112.637 126.863 140.180  0.00  0.00    +0.000 A 
ATOM     17  C   UNL     1     113.590 127.830 139.736  0.00  0.00    +0.000 A 
ATOM     18  C   UNL     1     113.333 127.289 140.303  0.00  0.00    +0.000 A 
BRANCH  18  19
ATOM     19  O   UNL     1     113.771 127.173 140.991  0.00  0.00    +0.000 OA
ATOM     20  C   UNL     1     114.588 127.065 140.946  0.00  0.00    +0.000 C 
ENDBRANCH  18  19
ENDBRANCH   8  13
BRANCH   4  21
ATOM     21  O   UNL     1     112.983 126.888 137.495  0.00  0.00    +0.000 OA
BRANCH  21  30
ATOM     22  O   UNL     1     112.325 125.626 137.369  0.00  0.00    +0.000 OA
ATOM     23  O   UNL     1     114.270 124.736 136.125  0.00  0.00    +0.000 OA
ATOM     24  O   UNL     1     112.964 123.770 136.414  0.00  0.00    +0.000 OA
ATOM     25  O   UNL     1     114.280 126.295 136.665  0.00  0.00    +0.000 OA
ATOM     26  C   UNL     1     113.622 125.032 136.540  0.00  0.00    +0.000 C 
ATOM     27  C   UNL     1     112.968 124.549 136.685  0.00  0.00    +0.000 C 
ATOM     28  C   UNL     1     113.626 125.812 136.810  0.00  0.00    +0.000 C 
ATOM     29  C   UNL     1     112.320 124.846 137.099  0.00  0.00    +0.000 C 
ATOM     30  C   UNL     1     112.977 126.108 137.225  0.00  0.00    +0.000 C 
BRANCH  29  32
ATOM     31  O   UNL     1     111.437 124.201 138.019  0.00  0.00    +0.000 OA
ATOM     32  C   UNL     1     111.667 124.364 137.244  0.00  0.00    +0.000 C 
ENDBRANCH  29  32
ENDBRANCH  21  30
ENDBRANCH   4  21
BRANCH   5  33
ATOM     33  O   UNL     1     108.981 129.191 136.928  0.00  0.00    +0.000 OA
BRANCH  33  42
ATOM     34  O   UNL     1     109.570 130.492 136.854  0.00  0.00    +0.000 OA
ATOM     35  O   UNL     1     107.704 131.254 135.418  0.00  0.00    +0.000 OA
ATOM     36  O   UNL     1     108.914 132.301 135.823  0.00  0.00    +0.000 OA
ATOM     37  O   UNL     1     107.738 129.700 135.970  0.00  0.00    +0.000 OA
ATOM     38  C   UNL     1     108.326 131.000 135.897  0.00  0.00    +0.000 C 
ATOM     39  C   UNL     1     108.931 131.523 136.099  0.00  0.00    +0.000 C 
ATOM     40  C   UNL     1     108.343 130.223 136.173  0.00  0.00    +0.000 C 
ATOM     41  C   UNL     1     109.552 131.269 136.578  0.00  0.00    +0.000 C 
ATOM     42  C   UNL     1     108.965 129.969 136.652  0.00  0.00    +0.000 C 
ATOM     43  C   UNL     1     110.157 131.792 136.781  0.00  0.00    +0.000 C 
ENDBRANCH  33  42
ENDBRANCH   5  33
TORSDOF 7
ENDMDL
MODEL 6
REMARK VINA RESULT:      -9.7      2.441      5.529
REMARK  Name = 14334894
REMARK  7 active torsions:
REMARK  status: ('A' for Active; 'I' for Inactive)
REMARK    1  A    between atoms: O_3  and  C_22
REMARK    2  A    between atoms: O_3  and  C_28
REMARK    3  A    between atoms: O_6  and  C_25
REMARK    4  A    between atoms: O_6  and  C_29
REMARK    5  A    between atoms: O_15  and  C_42
REMARK    6  A    between atoms: C_19  and  C_26
REMARK    7  A    between atoms: C_32  and  C_37
REMARK                            x       y       z     vdW  Elec       q    Type
REMARK                         _______ _______ _______ _____ _____    ______ ____
ROOT
ATOM      1  O   UNL     1     110.198 127.665 136.861  0.00  0.00    +0.000 OA
ATOM      2  O   UNL     1     109.617 128.235 139.198  0.00  0.00    +0.000 OA
ATOM      3  O   UNL     1     110.101 126.957 139.661  0.00  0.00    +0.000 OA
ATOM      4  C   UNL     1     109.664 128.587 137.814  0.00  0.00    +0.000 A 
ATOM      5  C   UNL     1     110.853 125.797 137.898  0.00  0.00    +0.000 A 
ATOM      6  C   UNL     1     110.150 127.313 138.246  0.00  0.00    +0.000 A 
ATOM      7  C   UNL     1     109.811 128.045 138.420  0.00  0.00    +0.000 A 
ATOM      8  C   UNL     1     109.858 128.396 137.035  0.00  0.00    +0.000 A 
ATOM      9  C   UNL     1     110.344 127.124 137.466  0.00  0.00    +0.000 A 
ATOM     10  C   UNL     1     110.698 126.366 137.272  0.00  0.00    +0.000 A 
ATOM     11  C   UNL     1     110.651 125.995 138.710  0.00  0.00    +0.000 A 
ATOM     12  C   UNL     1     110.298 126.758 138.884  0.00  0.00    +0.000 A 
ENDROOT
BRANCH   8  13
ATOM     13  C   UNL     1     109.712 128.938 136.430  0.00  0.00    +0.000 A 
ATOM     14  C   UNL     1     108.938 129.079 136.181  0.00  0.00    +0.000 A 
ATOM     15  C   UNL     1     110.339 129.338 136.074  0.00  0.00    +0.000 A 
ATOM     16  C   UNL     1     108.792 129.620 135.576  0.00  0.00    +0.000 A 
ATOM     17  C   UNL     1     110.193 129.880 135.469  0.00  0.00    +0.000 A 
ATOM     18  C   UNL     1     109.419 130.021 135.220  0.00  0.00    +0.000 A 
BRANCH  18  19
ATOM     19  O   UNL     1     109.274 130.562 134.615  0.00  0.00    +0.000 OA
ATOM     20  C   UNL     1     108.934 131.294 134.789  0.00  0.00    +0.000 C 
ENDBRANCH  18  19
ENDBRANCH   8  13
BRANCH   4  21
ATOM     21  O   UNL     1     109.324 129.318 137.988  0.00  0.00    +0.000 OA
BRANCH  21  30
ATOM     22  O   UNL     1     110.516 129.870 138.550  0.00  0.00    +0.000 OA
ATOM     23  O   UNL     1     109.151 131.268 140.070  0.00  0.00    +0.000 OA
ATOM     24  O   UNL     1     110.798 131.355 140.126  0.00  0.00    +0.000 OA
ATOM     25  O   UNL     1     108.414 130.250 139.001  0.00  0.00    +0.000 OA
ATOM     26  C   UNL     1     109.606 130.802 139.563  0.00  0.00    +0.000 C 
ATOM     27  C   UNL     1     110.430 130.846 139.591  0.00  0.00    +0.000 C 
ATOM     28  C   UNL     1     109.239 130.293 139.029  0.00  0.00    +0.000 C 
ATOM     29  C   UNL     1     110.885 130.380 139.085  0.00  0.00    +0.000 C 
ATOM     30  C   UNL     1     109.694 129.827 138.522  0.00  0.00    +0.000 C 
BRANCH  29  32
ATOM     31  O   UNL     1     112.126 130.751 138.482  0.00  0.00    +0.000 OA
ATOM     32  C   UNL     1     111.708 130.423 139.113  0.00  0.00    +0.000 C 
ENDBRANCH  29  32
ENDBRANCH  21  30
ENDBRANCH   4  21
BRANCH   5  33
ATOM     33  O   UNL     1     111.193 125.067 137.720  0.00  0.00    +0.000 OA
BRANCH  33  42
ATOM     34  O   UNL     1     112.530 125.472 138.022  0.00  0.00    +0.000 OA
ATOM     35  O   UNL     1     113.388 123.937 136.281  0.00  0.00    +0.000 OA
ATOM     36  O   UNL     1     114.439 124.853 137.162  0.00  0.00    +0.000 OA
ATOM     37  O   UNL     1     111.765 124.043 136.559  0.00  0.00    +0.000 OA
ATOM     38  C   UNL     1     113.102 124.448 136.861  0.00  0.00    +0.000 C 
ATOM     39  C   UNL     1     113.627 124.907 137.302  0.00  0.00    +0.000 C 
ATOM     40  C   UNL     1     112.290 124.502 137.000  0.00  0.00    +0.000 C 
ATOM     41  C   UNL     1     113.341 125.418 137.882  0.00  0.00    +0.000 C 
ATOM     42  C   UNL     1     112.004 125.013 137.581  0.00  0.00    +0.000 C 
ATOM     43  C   UNL     1     113.867 125.876 138.324  0.00  0.00    +0.000 C 
ENDBRANCH  33  42
ENDBRANCH   5  33
TORSDOF 7
ENDMDL
MODEL 7
REMARK VINA RESULT:      -9.7      2.458      5.606
REMARK  Name = 14334894
REMARK  7 active torsions:
REMARK  status: ('A' for Active; 'I' for Inactive)
REMARK    1  A    between atoms: O_3  and  C_22
REMARK    2  A    between atoms: O_3  and  C_28
REMARK    3  A    between atoms: O_6  and  C_25
REMARK    4  A    between atoms: O_6  and  C_29
REMARK    5  A    between atoms: O_15  and  C_42
REMARK    6  A    between atoms: C_19  and  C_26
REMARK    7  A    between atoms: C_32  and  C_37
REMARK                            x       y       z     vdW  Elec       q    Type
REMARK                         _______ _______ _______ _____ _____    ______ ____
ROOT
ATOM      1  O   UNL     1     113.453 128.347 136.892  0.00  0.00    +0.000 OA
ATOM      2  O   UNL     1     111.741 129.618 138.149  0.00  0.00    +0.000 OA
ATOM      3  O   UNL     1     111.312 128.420 138.830  0.00  0.00    +0.000 OA
ATOM      4  C   UNL     1     112.800 129.583 137.190  0.00  0.00    +0.000 A 
ATOM      5  C   UNL     1     112.554 126.702 138.108  0.00  0.00    +0.000 A 
ATOM      6  C   UNL     1     112.394 128.382 137.851  0.00  0.00    +0.000 A 
ATOM      7  C   UNL     1     112.312 129.194 137.730  0.00  0.00    +0.000 A 
ATOM      8  C   UNL     1     113.370 129.159 136.771  0.00  0.00    +0.000 A 
ATOM      9  C   UNL     1     112.965 127.959 137.431  0.00  0.00    +0.000 A 
ATOM     10  C   UNL     1     113.060 127.113 137.547  0.00  0.00    +0.000 A 
ATOM     11  C   UNL     1     111.960 127.143 138.545  0.00  0.00    +0.000 A 
ATOM     12  C   UNL     1     111.880 127.989 138.415  0.00  0.00    +0.000 A 
ENDROOT
BRANCH   8  13
ATOM     13  C   UNL     1     113.859 129.548 136.231  0.00  0.00    +0.000 A 
ATOM     14  C   UNL     1     114.447 130.059 136.501  0.00  0.00    +0.000 A 
ATOM     15  C   UNL     1     113.758 129.425 135.422  0.00  0.00    +0.000 A 
ATOM     16  C   UNL     1     114.935 130.448 135.962  0.00  0.00    +0.000 A 
ATOM     17  C   UNL     1     114.247 129.814 134.882  0.00  0.00    +0.000 A 
ATOM     18  C   UNL     1     114.835 130.325 135.152  0.00  0.00    +0.000 A 
BRANCH  18  19
ATOM     19  O   UNL     1     115.323 130.713 134.612  0.00  0.00    +0.000 OA
ATOM     20  C   UNL     1     115.640 131.452 134.800  0.00  0.00    +0.000 C 
ENDBRANCH  18  19
ENDBRANCH   8  13
BRANCH   4  21
ATOM     21  O   UNL     1     112.718 130.395 137.070  0.00  0.00    +0.000 OA
BRANCH  21  30
ATOM     22  O   UNL     1     111.504 130.299 136.322  0.00  0.00    +0.000 OA
ATOM     23  O   UNL     1     110.754 132.463 137.261  0.00  0.00    +0.000 OA
ATOM     24  O   UNL     1     109.791 131.646 136.200  0.00  0.00    +0.000 OA
ATOM     25  O   UNL     1     112.218 131.837 137.696  0.00  0.00    +0.000 OA
ATOM     26  C   UNL     1     111.004 131.741 136.948  0.00  0.00    +0.000 C 
ATOM     27  C   UNL     1     110.522 131.332 136.417  0.00  0.00    +0.000 C 
ATOM     28  C   UNL     1     111.736 131.428 137.165  0.00  0.00    +0.000 C 
ATOM     29  C   UNL     1     110.772 130.611 136.104  0.00  0.00    +0.000 C 
ATOM     30  C   UNL     1     111.986 130.707 136.852  0.00  0.00    +0.000 C 
BRANCH  29  32
ATOM     31  O   UNL     1     110.565 130.030 134.816  0.00  0.00    +0.000 OA
ATOM     32  C   UNL     1     110.291 130.203 135.574  0.00  0.00    +0.000 C 
ENDBRANCH  29  32
ENDBRANCH  21  30
ENDBRANCH   4  21
BRANCH   5  33
ATOM     33  O   UNL     1     112.639 125.890 138.226  0.00  0.00    +0.000 OA
BRANCH  33  42
ATOM     34  O   UNL     1     111.664 125.482 137.264  0.00  0.00    +0.000 OA
ATOM     35  O   UNL     1     113.070 123.534 136.666  0.00  0.00    +0.000 OA
ATOM     36  O   UNL     1     111.627 123.774 135.903  0.00  0.00    +0.000 OA
ATOM     37  O   UNL     1     113.576 124.591 137.827  0.00  0.00    +0.000 OA
ATOM     38  C   UNL     1     112.602 124.183 136.865  0.00  0.00    +0.000 C 
ATOM     39  C   UNL     1     111.880 124.304 136.484  0.00  0.00    +0.000 C 
ATOM     40  C   UNL     1     112.855 124.712 137.446  0.00  0.00    +0.000 C 
ATOM     41  C   UNL     1     111.412 124.952 136.683  0.00  0.00    +0.000 C 
ATOM     42  C   UNL     1     112.386 125.361 137.645  0.00  0.00    +0.000 C 
ATOM     43  C   UNL     1     110.690 125.073 136.302  0.00  0.00    +0.000 C 
ENDBRANCH  33  42
ENDBRANCH   5  33
TORSDOF 7
ENDMDL
MODEL 8
REMARK VINA RESULT:      -9.6      2.499      4.896
REMARK  Name = 14334894
REMARK  7 active torsions:
REMARK  status: ('A' for Active; 'I' for Inactive)
REMARK    1  A    between atoms: O_3  and  C_22
REMARK    2  A    between atoms: O_3  and  C_28
REMARK    3  A    between atoms: O_6  and  C_25
REMARK    4  A    between atoms: O_6  and  C_29
REMARK    5  A    between atoms: O_15  and  C_42
REMARK    6  A    between atoms: C_19  and  C_26
REMARK    7  A    between atoms: C_32  and  C_37
REMARK                            x       y       z     vdW  Elec       q    Type
REMARK                         _______ _______ _______ _____ _____    ______ ____
ROOT
ATOM      1  O   UNL     1     111.958 129.337 135.558  0.00  0.00    +0.000 OA
ATOM      2  O   UNL     1     111.752 126.967 136.242  0.00  0.00    +0.000 OA
ATOM      3  O   UNL     1     110.314 127.038 136.158  0.00  0.00    +0.000 OA
ATOM      4  C   UNL     1     112.567 128.103 135.946  0.00  0.00    +0.000 A 
ATOM      5  C   UNL     1     109.735 129.108 135.527  0.00  0.00    +0.000 A 
ATOM      6  C   UNL     1     111.143 128.200 135.855  0.00  0.00    +0.000 A 
ATOM      7  C   UNL     1     111.820 127.757 136.014  0.00  0.00    +0.000 A 
ATOM      8  C   UNL     1     112.635 128.893 135.718  0.00  0.00    +0.000 A 
ATOM      9  C   UNL     1     111.213 128.991 135.627  0.00  0.00    +0.000 A 
ATOM     10  C   UNL     1     110.516 129.463 135.458  0.00  0.00    +0.000 A 
ATOM     11  C   UNL     1     109.664 128.286 135.765  0.00  0.00    +0.000 A 
ATOM     12  C   UNL     1     110.373 127.829 135.929  0.00  0.00    +0.000 A 
ENDROOT
BRANCH   8  13
ATOM     13  C   UNL     1     113.381 129.239 135.649  0.00  0.00    +0.000 A 
ATOM     14  C   UNL     1     113.869 129.047 135.012  0.00  0.00    +0.000 A 
ATOM     15  C   UNL     1     113.639 129.777 136.219  0.00  0.00    +0.000 A 
ATOM     16  C   UNL     1     114.614 129.392 134.944  0.00  0.00    +0.000 A 
ATOM     17  C   UNL     1     114.386 130.123 136.150  0.00  0.00    +0.000 A 
ATOM     18  C   UNL     1     114.873 129.931 135.513  0.00  0.00    +0.000 A 
BRANCH  18  19
ATOM     19  O   UNL     1     115.618 130.277 135.445  0.00  0.00    +0.000 OA
ATOM     20  C   UNL     1     115.710 130.979 135.021  0.00  0.00    +0.000 C 
ENDBRANCH  18  19
ENDBRANCH   8  13
BRANCH   4  21
ATOM     21  O   UNL     1     113.244 127.659 136.105  0.00  0.00    +0.000 OA
BRANCH  21  30
ATOM     22  O   UNL     1     113.066 127.670 137.523  0.00  0.00    +0.000 OA
ATOM     23  O   UNL     1     114.141 125.447 137.676  0.00  0.00    +0.000 OA
ATOM     24  O   UNL     1     113.605 126.199 139.043  0.00  0.00    +0.000 OA
ATOM     25  O   UNL     1     113.961 126.177 136.207  0.00  0.00    +0.000 OA
ATOM     26  C   UNL     1     113.783 126.188 137.625  0.00  0.00    +0.000 C 
ATOM     27  C   UNL     1     113.514 126.564 138.309  0.00  0.00    +0.000 C 
ATOM     28  C   UNL     1     113.692 126.553 136.891  0.00  0.00    +0.000 C 
ATOM     29  C   UNL     1     113.156 127.306 138.258  0.00  0.00    +0.000 C 
ATOM     30  C   UNL     1     113.334 127.295 136.840  0.00  0.00    +0.000 C 
BRANCH  29  32
ATOM     31  O   UNL     1     113.220 128.399 139.175  0.00  0.00    +0.000 OA
ATOM     32  C   UNL     1     112.887 127.681 138.941  0.00  0.00    +0.000 C 
ENDBRANCH  29  32
ENDBRANCH  21  30
ENDBRANCH   4  21
BRANCH   5  33
ATOM     33  O   UNL     1     109.061 129.555 135.367  0.00  0.00    +0.000 OA
BRANCH  33  42
ATOM     34  O   UNL     1     108.963 130.074 136.695  0.00  0.00    +0.000 OA
ATOM     35  O   UNL     1     107.885 132.121 135.816  0.00  0.00    +0.000 OA
ATOM     36  O   UNL     1     108.147 131.958 137.437  0.00  0.00    +0.000 OA
ATOM     37  O   UNL     1     108.342 130.920 134.781  0.00  0.00    +0.000 OA
ATOM     38  C   UNL     1     108.245 131.439 136.109  0.00  0.00    +0.000 C 
ATOM     39  C   UNL     1     108.376 131.357 136.920  0.00  0.00    +0.000 C 
ATOM     40  C   UNL     1     108.473 130.838 135.592  0.00  0.00    +0.000 C 
ATOM     41  C   UNL     1     108.734 130.675 137.212  0.00  0.00    +0.000 C 
ATOM     42  C   UNL     1     108.832 130.156 135.885  0.00  0.00    +0.000 C 
ATOM     43  C   UNL     1     108.865 130.593 138.023  0.00  0.00    +0.000 C 
ENDBRANCH  33  42
ENDBRANCH   5  33
TORSDOF 7
ENDMDL
MODEL 9
REMARK VINA RESULT:      -9.6      2.103      4.828
REMARK  Name = 14334894
REMARK  7 active torsions:
REMARK  status: ('A' for Active; 'I' for Inactive)
REMARK    1  A    between atoms: O_3  and  C_22
REMARK    2  A    between atoms: O_3  and  C_28
REMARK    3  A    between atoms: O_6  and  C_25
REMARK    4  A    between atoms: O_6  and  C_29
REMARK    5  A    between atoms: O_15  and  C_42
REMARK    6  A    between atoms: C_19  and  C_26
REMARK    7  A    between atoms: C_32  and  C_37
REMARK                            x       y       z     vdW  Elec       q    Type
REMARK                         _______ _______ _______ _____ _____    ______ ____
ROOT
ATOM      1  O   UNL     1     112.250 128.053 136.752  0.00  0.00    +0.000 OA
ATOM      2  O   UNL     1     112.590 128.775 139.094  0.00  0.00    +0.000 OA
ATOM      3  O   UNL     1     111.924 130.029 138.834  0.00  0.00    +0.000 OA
ATOM      4  C   UNL     1     112.752 127.797 138.065  0.00  0.00    +0.000 A 
ATOM      5  C   UNL     1     111.284 130.066 136.688  0.00  0.00    +0.000 A 
ATOM      6  C   UNL     1     112.088 129.031 137.781  0.00  0.00    +0.000 A 
ATOM      7  C   UNL     1     112.477 128.535 138.313  0.00  0.00    +0.000 A 
ATOM      8  C   UNL     1     112.638 127.557 137.284  0.00  0.00    +0.000 A 
ATOM      9  C   UNL     1     111.975 128.789 137.000  0.00  0.00    +0.000 A 
ATOM     10  C   UNL     1     111.573 129.297 136.436  0.00  0.00    +0.000 A 
ATOM     11  C   UNL     1     111.402 130.317 137.501  0.00  0.00    +0.000 A 
ATOM     12  C   UNL     1     111.807 129.796 138.051  0.00  0.00    +0.000 A 
ENDROOT
BRANCH   8  13
ATOM     13  C   UNL     1     112.914 126.819 137.036  0.00  0.00    +0.000 A 
ATOM     14  C   UNL     1     112.380 126.209 136.885  0.00  0.00    +0.000 A 
ATOM     15  C   UNL     1     113.723 126.693 136.940  0.00  0.00    +0.000 A 
ATOM     16  C   UNL     1     112.655 125.472 136.637  0.00  0.00    +0.000 A 
ATOM     17  C   UNL     1     113.998 125.955 136.691  0.00  0.00    +0.000 A 
ATOM     18  C   UNL     1     113.464 125.345 136.540  0.00  0.00    +0.000 A 
BRANCH  18  19
ATOM     19  O   UNL     1     113.739 124.608 136.292  0.00  0.00    +0.000 OA
ATOM     20  C   UNL     1     113.467 123.921 136.659  0.00  0.00    +0.000 C 
ENDBRANCH  18  19
ENDBRANCH   8  13
BRANCH   4  21
ATOM     21  O   UNL     1     113.140 127.301 138.598  0.00  0.00    +0.000 OA
BRANCH  21  30
ATOM     22  O   UNL     1     111.959 126.874 139.280  0.00  0.00    +0.000 OA
ATOM     23  O   UNL     1     113.232 126.735 141.398  0.00  0.00    +0.000 OA
ATOM     24  O   UNL     1     111.627 126.354 141.373  0.00  0.00    +0.000 OA
ATOM     25  O   UNL     1     113.989 127.209 140.010  0.00  0.00    +0.000 OA
ATOM     26  C   UNL     1     112.808 126.782 140.692  0.00  0.00    +0.000 C 
ATOM     27  C   UNL     1     112.004 126.591 140.679  0.00  0.00    +0.000 C 
ATOM     28  C   UNL     1     113.185 127.018 139.998  0.00  0.00    +0.000 C 
ATOM     29  C   UNL     1     111.580 126.637 139.973  0.00  0.00    +0.000 C 
ATOM     30  C   UNL     1     112.761 127.064 139.292  0.00  0.00    +0.000 C 
BRANCH  29  32
ATOM     31  O   UNL     1     110.519 125.780 139.551  0.00  0.00    +0.000 OA
ATOM     32  C   UNL     1     110.778 126.446 139.961  0.00  0.00    +0.000 C 
ENDBRANCH  29  32
ENDBRANCH  21  30
ENDBRANCH   4  21
BRANCH   5  33
ATOM     33  O   UNL     1     110.896 130.560 136.152  0.00  0.00    +0.000 OA
BRANCH  33  42
ATOM     34  O   UNL     1     109.691 129.804 136.015  0.00  0.00    +0.000 OA
ATOM     35  O   UNL     1     108.374 131.899 136.034  0.00  0.00    +0.000 OA
ATOM     36  O   UNL     1     107.608 130.445 135.890  0.00  0.00    +0.000 OA
ATOM     37  O   UNL     1     110.018 131.957 136.165  0.00  0.00    +0.000 OA
ATOM     38  C   UNL     1     108.813 131.201 136.028  0.00  0.00    +0.000 C 
ATOM     39  C   UNL     1     108.430 130.473 135.956  0.00  0.00    +0.000 C 
ATOM     40  C   UNL     1     109.635 131.229 136.093  0.00  0.00    +0.000 C 
ATOM     41  C   UNL     1     108.869 129.776 135.949  0.00  0.00    +0.000 C 
ATOM     42  C   UNL     1     110.074 130.531 136.087  0.00  0.00    +0.000 C 
ATOM     43  C   UNL     1     108.486 129.048 135.877  0.00  0.00    +0.000 C 
ENDBRANCH  33  42
ENDBRANCH   5  33
TORSDOF 7
ENDMDL
MODEL 10
REMARK VINA RESULT:      -9.6      2.004      5.958
REMARK  Name = 14334894
REMARK  7 active torsions:
REMARK  status: ('A' for Active; 'I' for Inactive)
REMARK    1  A    between atoms: O_3  and  C_22
REMARK    2  A    between atoms: O_3  and  C_28
REMARK    3  A    between atoms: O_6  and  C_25
REMARK    4  A    between atoms: O_6  and  C_29
REMARK    5  A    between atoms: O_15  and  C_42
REMARK    6  A    between atoms: C_19  and  C_26
REMARK    7  A    between atoms: C_32  and  C_37
REMARK                            x       y       z     vdW  Elec       q    Type
REMARK                         _______ _______ _______ _____ _____    ______ ____
ROOT
ATOM      1  O   UNL     1     113.085 128.142 138.568  0.00  0.00    +0.000 OA
ATOM      2  O   UNL     1     112.172 129.729 136.902  0.00  0.00    +0.000 OA
ATOM      3  O   UNL     1     112.459 128.811 135.828  0.00  0.00    +0.000 OA
ATOM      4  C   UNL     1     112.481 129.400 138.258  0.00  0.00    +0.000 A 
ATOM      5  C   UNL     1     113.392 126.967 136.692  0.00  0.00    +0.000 A 
ATOM      6  C   UNL     1     112.776 128.471 137.212  0.00  0.00    +0.000 A 
ATOM      7  C   UNL     1     112.476 129.200 137.457  0.00  0.00    +0.000 A 
ATOM      8  C   UNL     1     112.785 128.871 138.813  0.00  0.00    +0.000 A 
ATOM      9  C   UNL     1     113.080 127.943 137.768  0.00  0.00    +0.000 A 
ATOM     10  C   UNL     1     113.394 127.181 137.525  0.00  0.00    +0.000 A 
ATOM     11  C   UNL     1     113.076 127.518 136.114  0.00  0.00    +0.000 A 
ATOM     12  C   UNL     1     112.765 128.275 136.376  0.00  0.00    +0.000 A 
ENDROOT
BRANCH   8  13
ATOM     13  C   UNL     1     112.790 129.071 139.614  0.00  0.00    +0.000 A 
ATOM     14  C   UNL     1     112.257 128.712 140.132  0.00  0.00    +0.000 A 
ATOM     15  C   UNL     1     113.328 129.629 139.896  0.00  0.00    +0.000 A 
ATOM     16  C   UNL     1     112.262 128.912 140.932  0.00  0.00    +0.000 A 
ATOM     17  C   UNL     1     113.332 129.829 140.697  0.00  0.00    +0.000 A 
ATOM     18  C   UNL     1     112.799 129.470 141.215  0.00  0.00    +0.000 A 
BRANCH  18  19
ATOM     19  O   UNL     1     112.804 129.670 142.015  0.00  0.00    +0.000 OA
ATOM     20  C   UNL     1     112.423 130.355 142.271  0.00  0.00    +0.000 C 
ENDBRANCH  18  19
ENDBRANCH   8  13
BRANCH   4  21
ATOM     21  O   UNL     1     112.182 130.129 138.503  0.00  0.00    +0.000 OA
BRANCH  21  30
ATOM     22  O   UNL     1     110.813 129.757 138.329  0.00  0.00    +0.000 OA
ATOM     23  O   UNL     1     110.242 132.106 137.800  0.00  0.00    +0.000 OA
ATOM     24  O   UNL     1     109.064 130.951 137.802  0.00  0.00    +0.000 OA
ATOM     25  O   UNL     1     111.801 131.695 138.150  0.00  0.00    +0.000 OA
ATOM     26  C   UNL     1     110.433 131.323 137.976  0.00  0.00    +0.000 C 
ATOM     27  C   UNL     1     109.843 130.745 137.977  0.00  0.00    +0.000 C 
ATOM     28  C   UNL     1     111.212 131.117 138.152  0.00  0.00    +0.000 C 
ATOM     29  C   UNL     1     110.033 129.962 138.154  0.00  0.00    +0.000 C 
ATOM     30  C   UNL     1     111.402 130.334 138.328  0.00  0.00    +0.000 C 
BRANCH  29  32
ATOM     31  O   UNL     1     109.274 128.970 138.847  0.00  0.00    +0.000 OA
ATOM     32  C   UNL     1     109.444 129.385 138.155  0.00  0.00    +0.000 C 
ENDBRANCH  29  32
ENDBRANCH  21  30
ENDBRANCH   4  21
BRANCH   5  33
ATOM     33  O   UNL     1     113.693 126.237 136.451  0.00  0.00    +0.000 OA
BRANCH  33  42
ATOM     34  O   UNL     1     112.437 125.583 136.259  0.00  0.00    +0.000 OA
ATOM     35  O   UNL     1     113.391 123.487 137.165  0.00  0.00    +0.000 OA
ATOM     36  O   UNL     1     111.818 123.530 136.672  0.00  0.00    +0.000 OA
ATOM     37  O   UNL     1     114.329 124.840 137.055  0.00  0.00    +0.000 OA
ATOM     38  C   UNL     1     113.073 124.185 136.863  0.00  0.00    +0.000 C 
ATOM     39  C   UNL     1     112.286 124.208 136.617  0.00  0.00    +0.000 C 
ATOM     40  C   UNL     1     113.542 124.862 136.808  0.00  0.00    +0.000 C 
ATOM     41  C   UNL     1     111.968 124.905 136.315  0.00  0.00    +0.000 C 
ATOM     42  C   UNL     1     113.224 125.561 136.506  0.00  0.00    +0.000 C 
ATOM     43  C   UNL     1     111.181 124.928 136.068  0.00  0.00    +0.000 C 
ENDBRANCH  33  42
ENDBRANCH   5  33
TORSDOF 7
ENDMDL
