MODEL 1
REMARK VINA RESULT:     -10.7      0.000      0.000
REMARK  Name = 44257895
REMARK  15 active torsions:
REMARK  status: ('A' for Active; 'I' for Inactive)
REMARK    1  A    between atoms: O_2  and  C_26
REMARK    2  A    between atoms: O_2  and  C_31
REMARK    3  A    between atoms: O_3  and  C_28
REMARK    4  A    between atoms: O_3  and  C_32
REMARK    5  A    between atoms: O_7  and  C_33
REMARK    6  A    between atoms: O_7  and  C_42
REMARK    7  A    between atoms: O_8  and  C_30
REMARK    8  A    between atoms: O_8  and  C_49
REMARK    9  A    between atoms: O_19  and  C_47
REMARK   10  A    between atoms: O_19  and  C_56
REMARK   11  A    between atoms: O_25  and  C_66
REMARK   12  A    between atoms: C_29  and  C_33
REMARK   13  A    between atoms: C_40  and  C_47
REMARK   14  A    between atoms: C_46  and  C_50
REMARK   15  A    between atoms: C_59  and  C_61
REMARK                            x       y       z     vdW  Elec       q    Type
REMARK                         _______ _______ _______ _____ _____    ______ ____
ROOT
ATOM      1  O   UNL     1     111.172 127.847 137.118  0.00  0.00    +0.000 OA
ATOM      2  O   UNL     1     111.068 129.667 135.444  0.00  0.00    +0.000 OA
ATOM      3  C   UNL     1     111.789 128.610 136.080  0.00  0.00    +0.000 C 
ATOM      4  C   UNL     1     111.103 129.061 136.002  0.00  0.00    +0.000 C 
ATOM      5  C   UNL     1     110.450 128.904 136.483  0.00  0.00    +0.000 C 
ATOM      6  C   UNL     1     111.824 128.003 136.638  0.00  0.00    +0.000 C 
ATOM      7  C   UNL     1     110.485 128.297 137.041  0.00  0.00    +0.000 C 
ENDROOT
BRANCH   3   8
ATOM      8  O   UNL     1     112.442 128.766 135.599  0.00  0.00    +0.000 OA
BRANCH   8  13
ATOM      9  O   UNL     1     112.889 129.755 136.528  0.00  0.00    +0.000 OA
ATOM     10  O   UNL     1     113.717 129.115 134.612  0.00  0.00    +0.000 OA
ATOM     11  O   UNL     1     114.804 130.278 135.048  0.00  0.00    +0.000 OA
ATOM     12  O   UNL     1     114.614 131.093 136.470  0.00  0.00    +0.000 OA
ATOM     13  C   UNL     1     112.985 129.348 135.817  0.00  0.00    +0.000 C 
ATOM     14  C   UNL     1     113.622 129.522 135.324  0.00  0.00    +0.000 C 
ATOM     15  C   UNL     1     114.165 130.104 135.542  0.00  0.00    +0.000 C 
ATOM     16  C   UNL     1     114.071 130.511 136.252  0.00  0.00    +0.000 C 
ATOM     17  C   UNL     1     113.433 130.337 136.746  0.00  0.00    +0.000 C 
ATOM     18  C   UNL     1     113.338 130.744 137.457  0.00  0.00    +0.000 C 
ENDBRANCH   8  13
ENDBRANCH   3   8
BRANCH   5  19
ATOM     19  O   UNL     1     109.764 129.355 136.405  0.00  0.00    +0.000 OA
BRANCH  19  24
ATOM     20  O   UNL     1     109.495 130.703 136.794  0.00  0.00    +0.000 OA
ATOM     21  O   UNL     1     108.286 129.271 135.676  0.00  0.00    +0.000 OA
ATOM     22  O   UNL     1     107.278 130.577 135.700  0.00  0.00    +0.000 OA
ATOM     23  O   UNL     1     107.748 131.967 136.453  0.00  0.00    +0.000 OA
ATOM     24  C   UNL     1     109.260 130.008 136.417  0.00  0.00    +0.000 C 
ATOM     25  C   UNL     1     108.521 129.966 136.053  0.00  0.00    +0.000 C 
ATOM     26  C   UNL     1     108.017 130.618 136.064  0.00  0.00    +0.000 C 
ATOM     27  C   UNL     1     108.251 131.314 136.441  0.00  0.00    +0.000 C 
ATOM     28  C   UNL     1     108.991 131.356 136.806  0.00  0.00    +0.000 C 
BRANCH  28  29
ATOM     29  C   UNL     1     109.225 132.052 137.183  0.00  0.00    +0.000 C 
BRANCH  29  30
ATOM     30  O   UNL     1     110.019 132.175 137.367  0.00  0.00    +0.000 OA
BRANCH  30  32
ATOM     31  O   UNL     1     110.135 133.138 138.416  0.00  0.00    +0.000 OA
ATOM     32  C   UNL     1     110.271 132.915 137.634  0.00  0.00    +0.000 C 
ATOM     33  C   UNL     1     110.658 133.429 137.119  0.00  0.00    +0.000 C 
ENDBRANCH  30  32
ENDBRANCH  29  30
ENDBRANCH  28  29
ENDBRANCH  19  24
ENDBRANCH   5  19
BRANCH   7  34
ATOM     34  O   UNL     1     109.833 128.141 137.521  0.00  0.00    +0.000 OA
BRANCH  34  38
ATOM     35  O   UNL     1     110.617 128.131 140.327  0.00  0.00    +0.000 OA
ATOM     36  O   UNL     1     109.667 125.691 139.102  0.00  0.00    +0.000 OA
ATOM     37  O   UNL     1     110.064 125.724 140.488  0.00  0.00    +0.000 OA
ATOM     38  C   UNL     1     109.933 127.740 138.235  0.00  0.00    +0.000 A 
ATOM     39  C   UNL     1     110.230 128.153 138.927  0.00  0.00    +0.000 A 
ATOM     40  C   UNL     1     109.741 126.903 138.291  0.00  0.00    +0.000 A 
ATOM     41  C   UNL     1     110.331 127.727 139.665  0.00  0.00    +0.000 A 
ATOM     42  C   UNL     1     109.849 126.493 139.039  0.00  0.00    +0.000 A 
ATOM     43  C   UNL     1     110.147 126.925 139.720  0.00  0.00    +0.000 A 
ATOM     44  C   UNL     1     110.248 126.526 140.435  0.00  0.00    +0.000 A 
ATOM     45  C   UNL     1     110.718 127.731 141.042  0.00  0.00    +0.000 A 
ATOM     46  C   UNL     1     110.534 126.929 141.095  0.00  0.00    +0.000 A 
BRANCH  45  47
ATOM     47  C   UNL     1     111.003 128.135 141.702  0.00  0.00    +0.000 A 
ATOM     48  C   UNL     1     111.807 128.107 141.888  0.00  0.00    +0.000 A 
ATOM     49  C   UNL     1     110.485 128.567 142.176  0.00  0.00    +0.000 A 
ATOM     50  C   UNL     1     112.091 128.511 142.548  0.00  0.00    +0.000 A 
ATOM     51  C   UNL     1     110.770 128.971 142.837  0.00  0.00    +0.000 A 
ATOM     52  C   UNL     1     111.573 128.943 143.023  0.00  0.00    +0.000 A 
BRANCH  52  53
ATOM     53  O   UNL     1     111.857 129.347 143.683  0.00  0.00    +0.000 OA
ATOM     54  C   UNL     1     111.646 129.100 144.441  0.00  0.00    +0.000 C 
ENDBRANCH  52  53
ENDBRANCH  45  47
ENDBRANCH  34  38
ENDBRANCH   7  34
BRANCH   6  55
ATOM     55  C   UNL     1     112.511 127.553 136.715  0.00  0.00    +0.000 C 
BRANCH  55  56
ATOM     56  O   UNL     1     112.465 126.731 136.745  0.00  0.00    +0.000 OA
BRANCH  56  61
ATOM     57  O   UNL     1     113.338 126.474 137.847  0.00  0.00    +0.000 OA
ATOM     58  O   UNL     1     113.169 125.499 135.902  0.00  0.00    +0.000 OA
ATOM     59  O   UNL     1     114.393 124.627 136.583  0.00  0.00    +0.000 OA
ATOM     60  O   UNL     1     114.913 124.987 138.107  0.00  0.00    +0.000 OA
ATOM     61  C   UNL     1     113.077 126.294 137.085  0.00  0.00    +0.000 C 
ATOM     62  C   UNL     1     113.429 125.679 136.664  0.00  0.00    +0.000 C 
ATOM     63  C   UNL     1     114.041 125.243 137.004  0.00  0.00    +0.000 C 
ATOM     64  C   UNL     1     114.301 125.423 137.766  0.00  0.00    +0.000 C 
ATOM     65  C   UNL     1     113.949 126.039 138.188  0.00  0.00    +0.000 C 
BRANCH  65  67
ATOM     66  O   UNL     1     113.671 126.476 139.519  0.00  0.00    +0.000 OA
ATOM     67  C   UNL     1     114.210 126.219 138.950  0.00  0.00    +0.000 C 
ENDBRANCH  65  67
ENDBRANCH  56  61
ENDBRANCH  55  56
ENDBRANCH   6  55
TORSDOF 15
ENDMDL
MODEL 2
REMARK VINA RESULT:     -10.6      1.639      6.822
REMARK  Name = 44257895
REMARK  15 active torsions:
REMARK  status: ('A' for Active; 'I' for Inactive)
REMARK    1  A    between atoms: O_2  and  C_26
REMARK    2  A    between atoms: O_2  and  C_31
REMARK    3  A    between atoms: O_3  and  C_28
REMARK    4  A    between atoms: O_3  and  C_32
REMARK    5  A    between atoms: O_7  and  C_33
REMARK    6  A    between atoms: O_7  and  C_42
REMARK    7  A    between atoms: O_8  and  C_30
REMARK    8  A    between atoms: O_8  and  C_49
REMARK    9  A    between atoms: O_19  and  C_47
REMARK   10  A    between atoms: O_19  and  C_56
REMARK   11  A    between atoms: O_25  and  C_66
REMARK   12  A    between atoms: C_29  and  C_33
REMARK   13  A    between atoms: C_40  and  C_47
REMARK   14  A    between atoms: C_46  and  C_50
REMARK   15  A    between atoms: C_59  and  C_61
REMARK                            x       y       z     vdW  Elec       q    Type
REMARK                         _______ _______ _______ _____ _____    ______ ____
ROOT
ATOM      1  O   UNL     1     112.412 128.244 139.603  0.00  0.00    +0.000 OA
ATOM      2  O   UNL     1     112.144 125.785 139.676  0.00  0.00    +0.000 OA
ATOM      3  C   UNL     1     111.821 127.081 140.184  0.00  0.00    +0.000 C 
ATOM      4  C   UNL     1     112.233 126.605 139.652  0.00  0.00    +0.000 C 
ATOM      5  C   UNL     1     112.736 126.949 139.094  0.00  0.00    +0.000 C 
ATOM      6  C   UNL     1     111.910 127.901 140.159  0.00  0.00    +0.000 C 
ATOM      7  C   UNL     1     112.825 127.769 139.070  0.00  0.00    +0.000 C 
ENDROOT
BRANCH   3   8
ATOM      8  O   UNL     1     111.318 126.737 140.741  0.00  0.00    +0.000 OA
BRANCH   8  13
ATOM      9  O   UNL     1     110.284 126.656 139.759  0.00  0.00    +0.000 OA
ATOM     10  O   UNL     1     110.332 126.000 141.840  0.00  0.00    +0.000 OA
ATOM     11  O   UNL     1     108.805 125.551 141.408  0.00  0.00    +0.000 OA
ATOM     12  O   UNL     1     108.263 125.838 139.876  0.00  0.00    +0.000 OA
ATOM     13  C   UNL     1     110.554 126.512 140.525  0.00  0.00    +0.000 C 
ATOM     14  C   UNL     1     110.062 126.144 141.074  0.00  0.00    +0.000 C 
ATOM     15  C   UNL     1     109.298 125.919 140.858  0.00  0.00    +0.000 C 
ATOM     16  C   UNL     1     109.026 126.063 140.092  0.00  0.00    +0.000 C 
ATOM     17  C   UNL     1     109.520 126.432 139.542  0.00  0.00    +0.000 C 
ATOM     18  C   UNL     1     109.248 126.575 138.777  0.00  0.00    +0.000 C 
ENDBRANCH   8  13
ENDBRANCH   3   8
BRANCH   5  19
ATOM     19  O   UNL     1     113.148 126.473 138.562  0.00  0.00    +0.000 OA
BRANCH  19  24
ATOM     20  O   UNL     1     112.715 125.832 137.360  0.00  0.00    +0.000 OA
ATOM     21  O   UNL     1     114.592 125.681 138.462  0.00  0.00    +0.000 OA
ATOM     22  O   UNL     1     114.882 124.645 137.211  0.00  0.00    +0.000 OA
ATOM     23  O   UNL     1     113.726 124.401 136.059  0.00  0.00    +0.000 OA
ATOM     24  C   UNL     1     113.293 125.955 137.936  0.00  0.00    +0.000 C 
ATOM     25  C   UNL     1     114.015 125.559 137.886  0.00  0.00    +0.000 C 
ATOM     26  C   UNL     1     114.160 125.041 137.261  0.00  0.00    +0.000 C 
ATOM     27  C   UNL     1     113.582 124.919 136.684  0.00  0.00    +0.000 C 
ATOM     28  C   UNL     1     112.859 125.315 136.735  0.00  0.00    +0.000 C 
BRANCH  28  29
ATOM     29  C   UNL     1     112.282 125.192 136.158  0.00  0.00    +0.000 C 
BRANCH  29  30
ATOM     30  O   UNL     1     111.619 125.681 136.126  0.00  0.00    +0.000 OA
BRANCH  30  32
ATOM     31  O   UNL     1     110.678 124.797 135.515  0.00  0.00    +0.000 OA
ATOM     32  C   UNL     1     111.029 125.542 135.565  0.00  0.00    +0.000 C 
ATOM     33  C   UNL     1     110.792 126.146 135.057  0.00  0.00    +0.000 C 
ENDBRANCH  30  32
ENDBRANCH  29  30
ENDBRANCH  28  29
ENDBRANCH  19  24
ENDBRANCH   5  19
BRANCH   7  34
ATOM     34  O   UNL     1     113.327 128.112 138.513  0.00  0.00    +0.000 OA
BRANCH  34  38
ATOM     35  O   UNL     1     111.589 129.829 136.926  0.00  0.00    +0.000 OA
ATOM     36  O   UNL     1     113.954 130.942 138.159  0.00  0.00    +0.000 OA
ATOM     37  O   UNL     1     113.071 131.762 137.366  0.00  0.00    +0.000 OA
ATOM     38  C   UNL     1     113.147 128.853 138.198  0.00  0.00    +0.000 A 
ATOM     39  C   UNL     1     112.445 128.959 137.714  0.00  0.00    +0.000 A 
ATOM     40  C   UNL     1     113.662 129.525 138.350  0.00  0.00    +0.000 A 
ATOM     41  C   UNL     1     112.266 129.734 137.390  0.00  0.00    +0.000 A 
ATOM     42  C   UNL     1     113.466 130.293 138.018  0.00  0.00    +0.000 A 
ATOM     43  C   UNL     1     112.759 130.378 137.536  0.00  0.00    +0.000 A 
ATOM     44  C   UNL     1     112.577 131.118 137.219  0.00  0.00    +0.000 A 
ATOM     45  C   UNL     1     111.407 130.569 136.609  0.00  0.00    +0.000 A 
ATOM     46  C   UNL     1     111.901 131.213 136.756  0.00  0.00    +0.000 A 
BRANCH  45  47
ATOM     47  C   UNL     1     110.732 130.663 136.146  0.00  0.00    +0.000 A 
ATOM     48  C   UNL     1     110.149 131.202 136.370  0.00  0.00    +0.000 A 
ATOM     49  C   UNL     1     110.639 130.218 135.457  0.00  0.00    +0.000 A 
ATOM     50  C   UNL     1     109.473 131.296 135.906  0.00  0.00    +0.000 A 
ATOM     51  C   UNL     1     109.963 130.312 134.993  0.00  0.00    +0.000 A 
ATOM     52  C   UNL     1     109.380 130.851 135.218  0.00  0.00    +0.000 A 
BRANCH  52  53
ATOM     53  O   UNL     1     108.705 130.945 134.754  0.00  0.00    +0.000 OA
ATOM     54  C   UNL     1     108.394 131.698 134.626  0.00  0.00    +0.000 C 
ENDBRANCH  52  53
ENDBRANCH  45  47
ENDBRANCH  34  38
ENDBRANCH   7  34
BRANCH   6  55
ATOM     55  C   UNL     1     111.496 128.376 140.692  0.00  0.00    +0.000 C 
BRANCH  55  56
ATOM     56  O   UNL     1     111.892 128.962 141.116  0.00  0.00    +0.000 OA
BRANCH  56  61
ATOM     57  O   UNL     1     111.028 130.077 140.889  0.00  0.00    +0.000 OA
ATOM     58  O   UNL     1     111.964 129.345 142.720  0.00  0.00    +0.000 OA
ATOM     59  O   UNL     1     111.136 130.652 143.293  0.00  0.00    +0.000 OA
ATOM     60  O   UNL     1     110.236 131.575 142.264  0.00  0.00    +0.000 OA
ATOM     61  C   UNL     1     111.478 129.615 141.404  0.00  0.00    +0.000 C 
ATOM     62  C   UNL     1     111.514 129.807 142.205  0.00  0.00    +0.000 C 
ATOM     63  C   UNL     1     111.100 130.460 142.492  0.00  0.00    +0.000 C 
ATOM     64  C   UNL     1     110.650 130.921 141.977  0.00  0.00    +0.000 C 
ATOM     65  C   UNL     1     110.614 130.730 141.175  0.00  0.00    +0.000 C 
BRANCH  65  67
ATOM     66  O   UNL     1     110.506 131.496 139.974  0.00  0.00    +0.000 OA
ATOM     67  C   UNL     1     110.164 131.192 140.661  0.00  0.00    +0.000 C 
ENDBRANCH  65  67
ENDBRANCH  56  61
ENDBRANCH  55  56
ENDBRANCH   6  55
TORSDOF 15
ENDMDL
MODEL 3
REMARK VINA RESULT:     -10.3      6.221     10.459
REMARK  Name = 44257895
REMARK  15 active torsions:
REMARK  status: ('A' for Active; 'I' for Inactive)
REMARK    1  A    between atoms: O_2  and  C_26
REMARK    2  A    between atoms: O_2  and  C_31
REMARK    3  A    between atoms: O_3  and  C_28
REMARK    4  A    between atoms: O_3  and  C_32
REMARK    5  A    between atoms: O_7  and  C_33
REMARK    6  A    between atoms: O_7  and  C_42
REMARK    7  A    between atoms: O_8  and  C_30
REMARK    8  A    between atoms: O_8  and  C_49
REMARK    9  A    between atoms: O_19  and  C_47
REMARK   10  A    between atoms: O_19  and  C_56
REMARK   11  A    between atoms: O_25  and  C_66
REMARK   12  A    between atoms: C_29  and  C_33
REMARK   13  A    between atoms: C_40  and  C_47
REMARK   14  A    between atoms: C_46  and  C_50
REMARK   15  A    between atoms: C_59  and  C_61
REMARK                            x       y       z     vdW  Elec       q    Type
REMARK                         _______ _______ _______ _____ _____    ______ ____
ROOT
ATOM      1  O   UNL     1     105.615 127.361 143.986  0.00  0.00    +0.000 OA
ATOM      2  O   UNL     1     106.568 125.103 144.326  0.00  0.00    +0.000 OA
ATOM      3  C   UNL     1     106.286 126.414 144.818  0.00  0.00    +0.000 C 
ATOM      4  C   UNL     1     106.250 125.855 144.212  0.00  0.00    +0.000 C 
ATOM      5  C   UNL     1     105.895 126.050 143.493  0.00  0.00    +0.000 C 
ATOM      6  C   UNL     1     105.969 127.167 144.705  0.00  0.00    +0.000 C 
ATOM      7  C   UNL     1     105.578 126.803 143.379  0.00  0.00    +0.000 C 
ENDROOT
BRANCH   3   8
ATOM      8  O   UNL     1     106.641 126.220 145.538  0.00  0.00    +0.000 OA
BRANCH   8  13
ATOM      9  O   UNL     1     105.405 125.738 146.068  0.00  0.00    +0.000 OA
ATOM     10  O   UNL     1     107.467 125.376 146.690  0.00  0.00    +0.000 OA
ATOM     11  O   UNL     1     106.644 124.471 147.798  0.00  0.00    +0.000 OA
ATOM     12  O   UNL     1     104.996 124.410 147.753  0.00  0.00    +0.000 OA
ATOM     13  C   UNL     1     106.230 125.768 146.091  0.00  0.00    +0.000 C 
ATOM     14  C   UNL     1     106.642 125.346 146.667  0.00  0.00    +0.000 C 
ATOM     15  C   UNL     1     106.231 124.893 147.221  0.00  0.00    +0.000 C 
ATOM     16  C   UNL     1     105.407 124.863 147.199  0.00  0.00    +0.000 C 
ATOM     17  C   UNL     1     104.994 125.285 146.622  0.00  0.00    +0.000 C 
ATOM     18  C   UNL     1     104.170 125.254 146.600  0.00  0.00    +0.000 C 
ENDBRANCH   8  13
ENDBRANCH   3   8
BRANCH   5  19
ATOM     19  O   UNL     1     105.859 125.491 142.887  0.00  0.00    +0.000 OA
BRANCH  19  24
ATOM     20  O   UNL     1     106.837 125.123 141.912  0.00  0.00    +0.000 OA
ATOM     21  O   UNL     1     104.863 124.296 142.337  0.00  0.00    +0.000 OA
ATOM     22  O   UNL     1     105.342 123.331 141.087  0.00  0.00    +0.000 OA
ATOM     23  O   UNL     1     106.818 123.561 140.388  0.00  0.00    +0.000 OA
ATOM     24  C   UNL     1     106.099 125.008 142.262  0.00  0.00    +0.000 C 
ATOM     25  C   UNL     1     105.601 124.411 141.987  0.00  0.00    +0.000 C 
ATOM     26  C   UNL     1     105.840 123.929 141.363  0.00  0.00    +0.000 C 
ATOM     27  C   UNL     1     106.578 124.043 141.012  0.00  0.00    +0.000 C 
ATOM     28  C   UNL     1     107.077 124.641 141.288  0.00  0.00    +0.000 C 
BRANCH  28  29
ATOM     29  C   UNL     1     107.815 124.755 140.937  0.00  0.00    +0.000 C 
BRANCH  29  30
ATOM     30  O   UNL     1     108.291 125.387 141.171  0.00  0.00    +0.000 OA
BRANCH  30  32
ATOM     31  O   UNL     1     109.656 124.996 141.012  0.00  0.00    +0.000 OA
ATOM     32  C   UNL     1     109.030 125.499 140.821  0.00  0.00    +0.000 C 
ATOM     33  C   UNL     1     109.143 126.113 140.283  0.00  0.00    +0.000 C 
ENDBRANCH  30  32
ENDBRANCH  29  30
ENDBRANCH  28  29
ENDBRANCH  19  24
ENDBRANCH   5  19
BRANCH   7  34
ATOM     34  O   UNL     1     105.223 126.997 142.661  0.00  0.00    +0.000 OA
BRANCH  34  38
ATOM     35  O   UNL     1     103.722 129.469 142.312  0.00  0.00    +0.000 OA
ATOM     36  O   UNL     1     106.499 129.363 141.519  0.00  0.00    +0.000 OA
ATOM     37  O   UNL     1     105.724 130.570 141.361  0.00  0.00    +0.000 OA
ATOM     38  C   UNL     1     105.188 127.784 142.418  0.00  0.00    +0.000 A 
ATOM     39  C   UNL     1     104.456 128.228 142.493  0.00  0.00    +0.000 A 
ATOM     40  C   UNL     1     105.883 128.167 142.087  0.00  0.00    +0.000 A 
ATOM     41  C   UNL     1     104.429 129.048 142.237  0.00  0.00    +0.000 A 
ATOM     42  C   UNL     1     105.837 128.988 141.837  0.00  0.00    +0.000 A 
ATOM     43  C   UNL     1     105.095 129.415 141.920  0.00  0.00    +0.000 A 
ATOM     44  C   UNL     1     105.057 130.203 141.678  0.00  0.00    +0.000 A 
ATOM     45  C   UNL     1     103.684 130.256 142.070  0.00  0.00    +0.000 A 
ATOM     46  C   UNL     1     104.351 130.623 141.753  0.00  0.00    +0.000 A 
BRANCH  45  47
ATOM     47  C   UNL     1     102.978 130.676 142.145  0.00  0.00    +0.000 A 
ATOM     48  C   UNL     1     102.825 131.107 142.831  0.00  0.00    +0.000 A 
ATOM     49  C   UNL     1     102.425 130.664 141.533  0.00  0.00    +0.000 A 
ATOM     50  C   UNL     1     102.118 131.527 142.905  0.00  0.00    +0.000 A 
ATOM     51  C   UNL     1     101.718 131.084 141.607  0.00  0.00    +0.000 A 
ATOM     52  C   UNL     1     101.565 131.516 142.293  0.00  0.00    +0.000 A 
BRANCH  52  53
ATOM     53  O   UNL     1     100.859 131.935 142.368  0.00  0.00    +0.000 OA
ATOM     54  C   UNL     1     100.866 132.760 142.357  0.00  0.00    +0.000 C 
ENDBRANCH  52  53
ENDBRANCH  45  47
ENDBRANCH  34  38
ENDBRANCH   7  34
BRANCH   6  55
ATOM     55  C   UNL     1     106.006 127.726 145.311  0.00  0.00    +0.000 C 
BRANCH  55  56
ATOM     56  O   UNL     1     106.223 128.503 145.144  0.00  0.00    +0.000 OA
BRANCH  56  61
ATOM     57  O   UNL     1     105.666 128.957 146.379  0.00  0.00    +0.000 OA
ATOM     58  O   UNL     1     107.043 129.927 144.991  0.00  0.00    +0.000 OA
ATOM     59  O   UNL     1     106.895 131.093 146.149  0.00  0.00    +0.000 OA
ATOM     60  O   UNL     1     105.927 130.835 147.461  0.00  0.00    +0.000 OA
ATOM     61  C   UNL     1     106.150 129.086 145.723  0.00  0.00    +0.000 C 
ATOM     62  C   UNL     1     106.559 129.798 145.647  0.00  0.00    +0.000 C 
ATOM     63  C   UNL     1     106.485 130.380 146.225  0.00  0.00    +0.000 C 
ATOM     64  C   UNL     1     106.001 130.251 146.881  0.00  0.00    +0.000 C 
ATOM     65  C   UNL     1     105.591 129.540 146.958  0.00  0.00    +0.000 C 
BRANCH  65  67
ATOM     66  O   UNL     1     105.171 128.708 148.041  0.00  0.00    +0.000 OA
ATOM     67  C   UNL     1     105.108 129.411 147.614  0.00  0.00    +0.000 C 
ENDBRANCH  65  67
ENDBRANCH  56  61
ENDBRANCH  55  56
ENDBRANCH   6  55
TORSDOF 15
ENDMDL
MODEL 4
REMARK VINA RESULT:     -10.2      6.658     10.628
REMARK  Name = 44257895
REMARK  15 active torsions:
REMARK  status: ('A' for Active; 'I' for Inactive)
REMARK    1  A    between atoms: O_2  and  C_26
REMARK    2  A    between atoms: O_2  and  C_31
REMARK    3  A    between atoms: O_3  and  C_28
REMARK    4  A    between atoms: O_3  and  C_32
REMARK    5  A    between atoms: O_7  and  C_33
REMARK    6  A    between atoms: O_7  and  C_42
REMARK    7  A    between atoms: O_8  and  C_30
REMARK    8  A    between atoms: O_8  and  C_49
REMARK    9  A    between atoms: O_19  and  C_47
REMARK   10  A    between atoms: O_19  and  C_56
REMARK   11  A    between atoms: O_25  and  C_66
REMARK   12  A    between atoms: C_29  and  C_33
REMARK   13  A    between atoms: C_40  and  C_47
REMARK   14  A    between atoms: C_46  and  C_50
REMARK   15  A    between atoms: C_59  and  C_61
REMARK                            x       y       z     vdW  Elec       q    Type
REMARK                         _______ _______ _______ _____ _____    ______ ____
ROOT
ATOM      1  O   UNL     1     105.344 127.292 143.502  0.00  0.00    +0.000 OA
ATOM      2  O   UNL     1     105.651 127.945 145.869  0.00  0.00    +0.000 OA
ATOM      3  C   UNL     1     105.254 128.273 144.536  0.00  0.00    +0.000 C 
ATOM      4  C   UNL     1     105.549 127.727 145.080  0.00  0.00    +0.000 C 
ATOM      5  C   UNL     1     105.742 126.963 144.834  0.00  0.00    +0.000 C 
ATOM      6  C   UNL     1     105.152 128.055 143.747  0.00  0.00    +0.000 C 
ATOM      7  C   UNL     1     105.639 126.745 144.045  0.00  0.00    +0.000 C 
ENDROOT
BRANCH   3   8
ATOM      8  O   UNL     1     105.062 129.037 144.782  0.00  0.00    +0.000 OA
BRANCH   8  13
ATOM      9  O   UNL     1     106.403 129.472 144.553  0.00  0.00    +0.000 OA
ATOM     10  O   UNL     1     104.755 130.422 145.624  0.00  0.00    +0.000 OA
ATOM     11  O   UNL     1     105.943 131.551 145.817  0.00  0.00    +0.000 OA
ATOM     12  O   UNL     1     107.438 131.294 145.168  0.00  0.00    +0.000 OA
ATOM     13  C   UNL     1     105.656 129.601 144.878  0.00  0.00    +0.000 C 
ATOM     14  C   UNL     1     105.502 130.293 145.299  0.00  0.00    +0.000 C 
ATOM     15  C   UNL     1     106.096 130.857 145.396  0.00  0.00    +0.000 C 
ATOM     16  C   UNL     1     106.844 130.730 145.072  0.00  0.00    +0.000 C 
ATOM     17  C   UNL     1     106.997 130.037 144.650  0.00  0.00    +0.000 C 
ATOM     18  C   UNL     1     107.745 129.909 144.326  0.00  0.00    +0.000 C 
ENDBRANCH   8  13
ENDBRANCH   3   8
BRANCH   5  19
ATOM     19  O   UNL     1     106.036 126.417 145.378  0.00  0.00    +0.000 OA
BRANCH  19  24
ATOM     20  O   UNL     1     105.366 125.445 146.183  0.00  0.00    +0.000 OA
ATOM     21  O   UNL     1     107.436 126.134 146.204  0.00  0.00    +0.000 OA
ATOM     22  O   UNL     1     107.467 125.020 147.421  0.00  0.00    +0.000 OA
ATOM     23  O   UNL     1     106.096 124.190 147.813  0.00  0.00    +0.000 OA
ATOM     24  C   UNL     1     106.051 125.860 145.987  0.00  0.00    +0.000 C 
ATOM     25  C   UNL     1     106.751 125.719 146.400  0.00  0.00    +0.000 C 
ATOM     26  C   UNL     1     106.767 125.162 147.008  0.00  0.00    +0.000 C 
ATOM     27  C   UNL     1     106.081 124.747 147.205  0.00  0.00    +0.000 C 
ATOM     28  C   UNL     1     105.380 124.889 146.791  0.00  0.00    +0.000 C 
BRANCH  28  29
ATOM     29  C   UNL     1     104.696 124.473 146.988  0.00  0.00    +0.000 C 
BRANCH  29  30
ATOM     30  O   UNL     1     104.042 124.491 146.486  0.00  0.00    +0.000 OA
BRANCH  30  32
ATOM     31  O   UNL     1     102.902 124.300 147.326  0.00  0.00    +0.000 OA
ATOM     32  C   UNL     1     103.360 124.068 146.680  0.00  0.00    +0.000 C 
ATOM     33  C   UNL     1     103.137 123.415 146.229  0.00  0.00    +0.000 C 
ENDBRANCH  30  32
ENDBRANCH  29  30
ENDBRANCH  28  29
ENDBRANCH  19  24
ENDBRANCH   5  19
BRANCH   7  34
ATOM     34  O   UNL     1     105.832 125.982 143.800  0.00  0.00    +0.000 OA
BRANCH  34  38
ATOM     35  O   UNL     1     105.427 125.003 141.086  0.00  0.00    +0.000 OA
ATOM     36  O   UNL     1     107.969 126.166 141.819  0.00  0.00    +0.000 OA
ATOM     37  O   UNL     1     107.733 125.672 140.485  0.00  0.00    +0.000 OA
ATOM     38  C   UNL     1     106.115 125.853 143.036  0.00  0.00    +0.000 A 
ATOM     39  C   UNL     1     105.612 125.486 142.444  0.00  0.00    +0.000 A 
ATOM     40  C   UNL     1     106.916 126.085 142.826  0.00  0.00    +0.000 A 
ATOM     41  C   UNL     1     105.916 125.356 141.651  0.00  0.00    +0.000 A 
ATOM     42  C   UNL     1     107.202 125.947 142.028  0.00  0.00    +0.000 A 
ATOM     43  C   UNL     1     106.684 125.579 141.450  0.00  0.00    +0.000 A 
ATOM     44  C   UNL     1     106.964 125.449 140.685  0.00  0.00    +0.000 A 
ATOM     45  C   UNL     1     105.708 124.874 140.321  0.00  0.00    +0.000 A 
ATOM     46  C   UNL     1     106.477 125.096 140.121  0.00  0.00    +0.000 A 
BRANCH  45  47
ATOM     47  C   UNL     1     105.220 124.521 139.758  0.00  0.00    +0.000 A 
ATOM     48  C   UNL     1     105.278 123.712 139.609  0.00  0.00    +0.000 A 
ATOM     49  C   UNL     1     104.673 124.979 139.343  0.00  0.00    +0.000 A 
ATOM     50  C   UNL     1     104.789 123.360 139.045  0.00  0.00    +0.000 A 
ATOM     51  C   UNL     1     104.184 124.627 138.779  0.00  0.00    +0.000 A 
ATOM     52  C   UNL     1     104.242 123.817 138.630  0.00  0.00    +0.000 A 
BRANCH  52  53
ATOM     53  O   UNL     1     103.753 123.466 138.066  0.00  0.00    +0.000 OA
ATOM     54  C   UNL     1     102.933 123.535 138.130  0.00  0.00    +0.000 C 
ENDBRANCH  52  53
ENDBRANCH  45  47
ENDBRANCH  34  38
ENDBRANCH   7  34
BRANCH   6  55
ATOM     55  C   UNL     1     104.857 128.601 143.203  0.00  0.00    +0.000 C 
BRANCH  55  56
ATOM     56  O   UNL     1     104.429 128.343 142.548  0.00  0.00    +0.000 OA
BRANCH  56  61
ATOM     57  O   UNL     1     103.697 129.567 142.468  0.00  0.00    +0.000 OA
ATOM     58  O   UNL     1     104.089 128.036 140.963  0.00  0.00    +0.000 OA
ATOM     59  O   UNL     1     103.187 129.108 140.090  0.00  0.00    +0.000 OA
ATOM     60  O   UNL     1     102.626 130.486 140.803  0.00  0.00    +0.000 OA
ATOM     61  C   UNL     1     103.978 128.878 142.111  0.00  0.00    +0.000 C 
ATOM     62  C   UNL     1     103.808 128.725 141.319  0.00  0.00    +0.000 C 
ATOM     63  C   UNL     1     103.358 129.261 140.883  0.00  0.00    +0.000 C 
ATOM     64  C   UNL     1     103.077 129.950 141.240  0.00  0.00    +0.000 C 
ATOM     65  C   UNL     1     103.247 130.103 142.032  0.00  0.00    +0.000 C 
BRANCH  65  67
ATOM     66  O   UNL     1     102.605 130.756 143.129  0.00  0.00    +0.000 OA
ATOM     67  C   UNL     1     102.966 130.793 142.389  0.00  0.00    +0.000 C 
ENDBRANCH  65  67
ENDBRANCH  56  61
ENDBRANCH  55  56
ENDBRANCH   6  55
TORSDOF 15
ENDMDL
MODEL 5
REMARK VINA RESULT:     -10.1      3.267      7.161
REMARK  Name = 44257895
REMARK  15 active torsions:
REMARK  status: ('A' for Active; 'I' for Inactive)
REMARK    1  A    between atoms: O_2  and  C_26
REMARK    2  A    between atoms: O_2  and  C_31
REMARK    3  A    between atoms: O_3  and  C_28
REMARK    4  A    between atoms: O_3  and  C_32
REMARK    5  A    between atoms: O_7  and  C_33
REMARK    6  A    between atoms: O_7  and  C_42
REMARK    7  A    between atoms: O_8  and  C_30
REMARK    8  A    between atoms: O_8  and  C_49
REMARK    9  A    between atoms: O_19  and  C_47
REMARK   10  A    between atoms: O_19  and  C_56
REMARK   11  A    between atoms: O_25  and  C_66
REMARK   12  A    between atoms: C_29  and  C_33
REMARK   13  A    between atoms: C_40  and  C_47
REMARK   14  A    between atoms: C_46  and  C_50
REMARK   15  A    between atoms: C_59  and  C_61
REMARK                            x       y       z     vdW  Elec       q    Type
REMARK                         _______ _______ _______ _____ _____    ______ ____
ROOT
ATOM      1  O   UNL     1     108.749 128.120 140.974  0.00  0.00    +0.000 OA
ATOM      2  O   UNL     1     106.532 128.399 142.039  0.00  0.00    +0.000 OA
ATOM      3  C   UNL     1     107.628 128.943 141.300  0.00  0.00    +0.000 C 
ATOM      4  C   UNL     1     107.271 128.306 141.684  0.00  0.00    +0.000 C 
ATOM      5  C   UNL     1     107.655 127.575 141.714  0.00  0.00    +0.000 C 
ATOM      6  C   UNL     1     108.367 128.850 140.945  0.00  0.00    +0.000 C 
ATOM      7  C   UNL     1     108.394 127.482 141.359  0.00  0.00    +0.000 C 
ENDROOT
BRANCH   3   8
ATOM      8  O   UNL     1     107.245 129.673 141.271  0.00  0.00    +0.000 OA
BRANCH   8  13
ATOM      9  O   UNL     1     107.805 130.020 142.538  0.00  0.00    +0.000 OA
ATOM     10  O   UNL     1     106.396 131.089 141.258  0.00  0.00    +0.000 OA
ATOM     11  O   UNL     1     106.532 132.143 142.520  0.00  0.00    +0.000 OA
ATOM     12  O   UNL     1     107.517 131.782 143.794  0.00  0.00    +0.000 OA
ATOM     13  C   UNL     1     107.313 130.201 141.901  0.00  0.00    +0.000 C 
ATOM     14  C   UNL     1     106.889 130.908 141.895  0.00  0.00    +0.000 C 
ATOM     15  C   UNL     1     106.957 131.435 142.526  0.00  0.00    +0.000 C 
ATOM     16  C   UNL     1     107.449 131.255 143.163  0.00  0.00    +0.000 C 
ATOM     17  C   UNL     1     107.873 130.547 143.169  0.00  0.00    +0.000 C 
ATOM     18  C   UNL     1     108.365 130.367 143.806  0.00  0.00    +0.000 C 
ENDBRANCH   8  13
ENDBRANCH   3   8
BRANCH   5  19
ATOM     19  O   UNL     1     107.298 126.938 142.098  0.00  0.00    +0.000 OA
BRANCH  19  24
ATOM     20  O   UNL     1     106.421 125.929 141.594  0.00  0.00    +0.000 OA
ATOM     21  O   UNL     1     107.090 126.355 143.627  0.00  0.00    +0.000 OA
ATOM     22  O   UNL     1     106.110 125.054 143.889  0.00  0.00    +0.000 OA
ATOM     23  O   UNL     1     105.336 124.336 142.620  0.00  0.00    +0.000 OA
ATOM     24  C   UNL     1     106.807 126.287 142.228  0.00  0.00    +0.000 C 
ATOM     25  C   UNL     1     106.704 125.996 142.993  0.00  0.00    +0.000 C 
ATOM     26  C   UNL     1     106.214 125.346 143.124  0.00  0.00    +0.000 C 
ATOM     27  C   UNL     1     105.827 124.986 142.490  0.00  0.00    +0.000 C 
ATOM     28  C   UNL     1     105.931 125.279 141.724  0.00  0.00    +0.000 C 
BRANCH  28  29
ATOM     29  C   UNL     1     105.543 124.919 141.091  0.00  0.00    +0.000 C 
BRANCH  29  30
ATOM     30  O   UNL     1     105.585 125.252 140.338  0.00  0.00    +0.000 OA
BRANCH  30  32
ATOM     31  O   UNL     1     105.619 124.187 139.386  0.00  0.00    +0.000 OA
ATOM     32  C   UNL     1     105.252 124.859 139.693  0.00  0.00    +0.000 C 
ATOM     33  C   UNL     1     104.553 125.138 139.357  0.00  0.00    +0.000 C 
ENDBRANCH  30  32
ENDBRANCH  29  30
ENDBRANCH  28  29
ENDBRANCH  19  24
ENDBRANCH   5  19
BRANCH   7  34
ATOM     34  O   UNL     1     108.776 126.752 141.388  0.00  0.00    +0.000 OA
BRANCH  34  38
ATOM     35  O   UNL     1     110.180 126.106 138.919  0.00  0.00    +0.000 OA
ATOM     36  O   UNL     1     111.695 126.700 141.307  0.00  0.00    +0.000 OA
ATOM     37  O   UNL     1     112.356 126.376 140.066  0.00  0.00    +0.000 OA
ATOM     38  C   UNL     1     109.480 126.639 140.974  0.00  0.00    +0.000 A 
ATOM     39  C   UNL     1     109.464 126.426 140.142  0.00  0.00    +0.000 A 
ATOM     40  C   UNL     1     110.237 126.733 141.372  0.00  0.00    +0.000 A 
ATOM     41  C   UNL     1     110.203 126.310 139.719  0.00  0.00    +0.000 A 
ATOM     42  C   UNL     1     110.965 126.613 140.933  0.00  0.00    +0.000 A 
ATOM     43  C   UNL     1     110.928 126.400 140.100  0.00  0.00    +0.000 A 
ATOM     44  C   UNL     1     111.630 126.286 139.684  0.00  0.00    +0.000 A 
ATOM     45  C   UNL     1     110.882 125.992 138.502  0.00  0.00    +0.000 A 
ATOM     46  C   UNL     1     111.608 126.082 138.885  0.00  0.00    +0.000 A 
BRANCH  45  47
ATOM     47  C   UNL     1     110.859 125.788 137.703  0.00  0.00    +0.000 A 
ATOM     48  C   UNL     1     111.216 125.091 137.444  0.00  0.00    +0.000 A 
ATOM     49  C   UNL     1     110.479 126.282 137.163  0.00  0.00    +0.000 A 
ATOM     50  C   UNL     1     111.192 124.888 136.645  0.00  0.00    +0.000 A 
ATOM     51  C   UNL     1     110.455 126.079 136.364  0.00  0.00    +0.000 A 
ATOM     52  C   UNL     1     110.811 125.382 136.105  0.00  0.00    +0.000 A 
BRANCH  52  53
ATOM     53  O   UNL     1     110.788 125.179 135.306  0.00  0.00    +0.000 OA
ATOM     54  C   UNL     1     110.364 125.646 134.774  0.00  0.00    +0.000 C 
ENDBRANCH  52  53
ENDBRANCH  45  47
ENDBRANCH  34  38
ENDBRANCH   7  34
BRANCH   6  55
ATOM     55  C   UNL     1     108.723 129.487 140.561  0.00  0.00    +0.000 C 
BRANCH  55  56
ATOM     56  O   UNL     1     108.929 129.427 139.765  0.00  0.00    +0.000 OA
BRANCH  56  61
ATOM     57  O   UNL     1     110.254 129.959 139.821  0.00  0.00    +0.000 OA
ATOM     58  O   UNL     1     108.633 130.312 138.405  0.00  0.00    +0.000 OA
ATOM     59  O   UNL     1     109.810 131.287 137.781  0.00  0.00    +0.000 OA
ATOM     60  O   UNL     1     111.283 131.375 138.518  0.00  0.00    +0.000 OA
ATOM     61  C   UNL     1     109.518 129.914 139.453  0.00  0.00    +0.000 C 
ATOM     62  C   UNL     1     109.370 130.357 138.773  0.00  0.00    +0.000 C 
ATOM     63  C   UNL     1     109.957 130.844 138.462  0.00  0.00    +0.000 C 
ATOM     64  C   UNL     1     110.694 130.888 138.830  0.00  0.00    +0.000 C 
ATOM     65  C   UNL     1     110.843 130.446 139.510  0.00  0.00    +0.000 C 
BRANCH  65  67
ATOM     66  O   UNL     1     112.006 129.801 140.032  0.00  0.00    +0.000 OA
ATOM     67  C   UNL     1     111.580 130.490 139.879  0.00  0.00    +0.000 C 
ENDBRANCH  65  67
ENDBRANCH  56  61
ENDBRANCH  55  56
ENDBRANCH   6  55
TORSDOF 15
ENDMDL
MODEL 6
REMARK VINA RESULT:     -10.1      3.726      6.628
REMARK  Name = 44257895
REMARK  15 active torsions:
REMARK  status: ('A' for Active; 'I' for Inactive)
REMARK    1  A    between atoms: O_2  and  C_26
REMARK    2  A    between atoms: O_2  and  C_31
REMARK    3  A    between atoms: O_3  and  C_28
REMARK    4  A    between atoms: O_3  and  C_32
REMARK    5  A    between atoms: O_7  and  C_33
REMARK    6  A    between atoms: O_7  and  C_42
REMARK    7  A    between atoms: O_8  and  C_30
REMARK    8  A    between atoms: O_8  and  C_49
REMARK    9  A    between atoms: O_19  and  C_47
REMARK   10  A    between atoms: O_19  and  C_56
REMARK   11  A    between atoms: O_25  and  C_66
REMARK   12  A    between atoms: C_29  and  C_33
REMARK   13  A    between atoms: C_40  and  C_47
REMARK   14  A    between atoms: C_46  and  C_50
REMARK   15  A    between atoms: C_59  and  C_61
REMARK                            x       y       z     vdW  Elec       q    Type
REMARK                         _______ _______ _______ _____ _____    ______ ____
ROOT
ATOM      1  O   UNL     1     108.475 126.904 141.559  0.00  0.00    +0.000 OA
ATOM      2  O   UNL     1     110.866 127.068 140.938  0.00  0.00    +0.000 OA
ATOM      3  C   UNL     1     109.592 126.433 140.803  0.00  0.00    +0.000 C 
ATOM      4  C   UNL     1     110.069 127.013 141.145  0.00  0.00    +0.000 C 
ATOM      5  C   UNL     1     109.748 127.539 141.695  0.00  0.00    +0.000 C 
ATOM      6  C   UNL     1     108.795 126.379 141.010  0.00  0.00    +0.000 C 
ATOM      7  C   UNL     1     108.951 127.484 141.902  0.00  0.00    +0.000 C 
ENDROOT
BRANCH   3   8
ATOM      8  O   UNL     1     109.913 125.908 140.253  0.00  0.00    +0.000 OA
BRANCH   8  13
ATOM      9  O   UNL     1     109.702 126.862 139.211  0.00  0.00    +0.000 OA
ATOM     10  O   UNL     1     110.715 124.928 139.195  0.00  0.00    +0.000 OA
ATOM     11  O   UNL     1     110.905 125.392 137.623  0.00  0.00    +0.000 OA
ATOM     12  O   UNL     1     110.294 126.836 137.109  0.00  0.00    +0.000 OA
ATOM     13  C   UNL     1     110.008 126.140 139.467  0.00  0.00    +0.000 C 
ATOM     14  C   UNL     1     110.409 125.650 138.939  0.00  0.00    +0.000 C 
ATOM     15  C   UNL     1     110.504 125.882 138.153  0.00  0.00    +0.000 C 
ATOM     16  C   UNL     1     110.199 126.604 137.895  0.00  0.00    +0.000 C 
ATOM     17  C   UNL     1     109.797 127.094 138.425  0.00  0.00    +0.000 C 
ATOM     18  C   UNL     1     109.492 127.815 138.167  0.00  0.00    +0.000 C 
ENDBRANCH   8  13
ENDBRANCH   3   8
BRANCH   5  19
ATOM     19  O   UNL     1     110.224 128.119 142.037  0.00  0.00    +0.000 OA
BRANCH  19  24
ATOM     20  O   UNL     1     110.571 129.423 141.565  0.00  0.00    +0.000 OA
ATOM     21  O   UNL     1     111.234 128.317 143.326  0.00  0.00    +0.000 OA
ATOM     22  O   UNL     1     112.086 129.720 143.501  0.00  0.00    +0.000 OA
ATOM     23  O   UNL     1     111.927 130.924 142.384  0.00  0.00    +0.000 OA
ATOM     24  C   UNL     1     110.650 128.821 142.124  0.00  0.00    +0.000 C 
ATOM     25  C   UNL     1     111.155 128.919 142.768  0.00  0.00    +0.000 C 
ATOM     26  C   UNL     1     111.581 129.620 142.856  0.00  0.00    +0.000 C 
ATOM     27  C   UNL     1     111.502 130.223 142.298  0.00  0.00    +0.000 C 
ATOM     28  C   UNL     1     110.996 130.124 141.652  0.00  0.00    +0.000 C 
BRANCH  28  29
ATOM     29  C   UNL     1     110.918 130.727 141.095  0.00  0.00    +0.000 C 
BRANCH  29  30
ATOM     30  O   UNL     1     110.432 130.621 140.437  0.00  0.00    +0.000 OA
BRANCH  30  32
ATOM     31  O   UNL     1     110.053 131.956 140.098  0.00  0.00    +0.000 OA
ATOM     32  C   UNL     1     110.359 131.222 139.876  0.00  0.00    +0.000 C 
ATOM     33  C   UNL     1     110.592 131.091 139.097  0.00  0.00    +0.000 C 
ENDBRANCH  30  32
ENDBRANCH  29  30
ENDBRANCH  28  29
ENDBRANCH  19  24
ENDBRANCH   5  19
BRANCH   7  34
ATOM     34  O   UNL     1     108.631 128.009 142.451  0.00  0.00    +0.000 OA
BRANCH  34  38
ATOM     35  O   UNL     1     105.781 128.551 142.188  0.00  0.00    +0.000 OA
ATOM     36  O   UNL     1     106.718 126.850 144.328  0.00  0.00    +0.000 OA
ATOM     37  O   UNL     1     105.314 127.141 144.167  0.00  0.00    +0.000 OA
ATOM     38  C   UNL     1     107.856 127.908 142.715  0.00  0.00    +0.000 A 
ATOM     39  C   UNL     1     107.205 128.291 142.305  0.00  0.00    +0.000 A 
ATOM     40  C   UNL     1     107.693 127.418 143.402  0.00  0.00    +0.000 A 
ATOM     41  C   UNL     1     106.402 128.180 142.587  0.00  0.00    +0.000 A 
ATOM     42  C   UNL     1     106.883 127.319 143.670  0.00  0.00    +0.000 A 
ATOM     43  C   UNL     1     106.246 127.710 143.246  0.00  0.00    +0.000 A 
ATOM     44  C   UNL     1     105.469 127.611 143.508  0.00  0.00    +0.000 A 
ATOM     45  C   UNL     1     105.005 128.452 142.450  0.00  0.00    +0.000 A 
ATOM     46  C   UNL     1     104.849 127.982 143.110  0.00  0.00    +0.000 A 
BRANCH  45  47
ATOM     47  C   UNL     1     104.386 128.823 142.051  0.00  0.00    +0.000 A 
ATOM     48  C   UNL     1     104.087 128.495 141.355  0.00  0.00    +0.000 A 
ATOM     49  C   UNL     1     104.064 129.522 142.349  0.00  0.00    +0.000 A 
ATOM     50  C   UNL     1     103.467 128.867 140.957  0.00  0.00    +0.000 A 
ATOM     51  C   UNL     1     103.445 129.894 141.951  0.00  0.00    +0.000 A 
ATOM     52  C   UNL     1     103.146 129.566 141.255  0.00  0.00    +0.000 A 
BRANCH  52  53
ATOM     53  O   UNL     1     102.526 129.938 140.857  0.00  0.00    +0.000 OA
ATOM     54  C   UNL     1     102.262 129.639 140.135  0.00  0.00    +0.000 C 
ENDBRANCH  52  53
ENDBRANCH  45  47
ENDBRANCH  34  38
ENDBRANCH   7  34
BRANCH   6  55
ATOM     55  C   UNL     1     108.320 125.798 140.667  0.00  0.00    +0.000 C 
BRANCH  55  56
ATOM     56  O   UNL     1     107.897 125.276 141.144  0.00  0.00    +0.000 OA
BRANCH  56  61
ATOM     57  O   UNL     1     106.690 125.235 140.380  0.00  0.00    +0.000 OA
ATOM     58  O   UNL     1     107.778 123.653 141.417  0.00  0.00    +0.000 OA
ATOM     59  O   UNL     1     106.512 122.801 140.789  0.00  0.00    +0.000 OA
ATOM     60  O   UNL     1     105.365 123.572 139.888  0.00  0.00    +0.000 OA
ATOM     61  C   UNL     1     107.264 124.849 140.831  0.00  0.00    +0.000 C 
ATOM     62  C   UNL     1     107.205 124.038 140.967  0.00  0.00    +0.000 C 
ATOM     63  C   UNL     1     106.572 123.613 140.653  0.00  0.00    +0.000 C 
ATOM     64  C   UNL     1     105.998 123.998 140.203  0.00  0.00    +0.000 C 
ATOM     65  C   UNL     1     106.057 124.809 140.066  0.00  0.00    +0.000 C 
BRANCH  65  67
ATOM     66  O   UNL     1     105.081 125.843 139.928  0.00  0.00    +0.000 OA
ATOM     67  C   UNL     1     105.483 125.195 139.616  0.00  0.00    +0.000 C 
ENDBRANCH  65  67
ENDBRANCH  56  61
ENDBRANCH  55  56
ENDBRANCH   6  55
TORSDOF 15
ENDMDL
MODEL 7
REMARK VINA RESULT:     -10.0      2.268      5.740
REMARK  Name = 44257895
REMARK  15 active torsions:
REMARK  status: ('A' for Active; 'I' for Inactive)
REMARK    1  A    between atoms: O_2  and  C_26
REMARK    2  A    between atoms: O_2  and  C_31
REMARK    3  A    between atoms: O_3  and  C_28
REMARK    4  A    between atoms: O_3  and  C_32
REMARK    5  A    between atoms: O_7  and  C_33
REMARK    6  A    between atoms: O_7  and  C_42
REMARK    7  A    between atoms: O_8  and  C_30
REMARK    8  A    between atoms: O_8  and  C_49
REMARK    9  A    between atoms: O_19  and  C_47
REMARK   10  A    between atoms: O_19  and  C_56
REMARK   11  A    between atoms: O_25  and  C_66
REMARK   12  A    between atoms: C_29  and  C_33
REMARK   13  A    between atoms: C_40  and  C_47
REMARK   14  A    between atoms: C_46  and  C_50
REMARK   15  A    between atoms: C_59  and  C_61
REMARK                            x       y       z     vdW  Elec       q    Type
REMARK                         _______ _______ _______ _____ _____    ______ ____
ROOT
ATOM      1  O   UNL     1     109.925 129.140 139.774  0.00  0.00    +0.000 OA
ATOM      2  O   UNL     1     108.392 131.079 139.660  0.00  0.00    +0.000 OA
ATOM      3  C   UNL     1     108.687 129.760 140.124  0.00  0.00    +0.000 C 
ATOM      4  C   UNL     1     108.903 130.433 139.698  0.00  0.00    +0.000 C 
ATOM      5  C   UNL     1     109.631 130.459 139.310  0.00  0.00    +0.000 C 
ATOM      6  C   UNL     1     109.198 129.114 140.162  0.00  0.00    +0.000 C 
ATOM      7  C   UNL     1     110.142 129.813 139.348  0.00  0.00    +0.000 C 
ENDROOT
BRANCH   3   8
ATOM      8  O   UNL     1     107.959 129.734 140.512  0.00  0.00    +0.000 OA
BRANCH   8  13
ATOM      9  O   UNL     1     108.536 130.262 141.708  0.00  0.00    +0.000 OA
ATOM     10  O   UNL     1     106.454 130.121 141.067  0.00  0.00    +0.000 OA
ATOM     11  O   UNL     1     106.278 130.842 142.540  0.00  0.00    +0.000 OA
ATOM     12  O   UNL     1     107.607 131.178 143.459  0.00  0.00    +0.000 OA
ATOM     13  C   UNL     1     107.871 130.095 141.249  0.00  0.00    +0.000 C 
ATOM     14  C   UNL     1     107.119 130.288 141.526  0.00  0.00    +0.000 C 
ATOM     15  C   UNL     1     107.031 130.649 142.263  0.00  0.00    +0.000 C 
ATOM     16  C   UNL     1     107.695 130.817 142.722  0.00  0.00    +0.000 C 
ATOM     17  C   UNL     1     108.448 130.623 142.444  0.00  0.00    +0.000 C 
ATOM     18  C   UNL     1     109.112 130.791 142.904  0.00  0.00    +0.000 C 
ENDBRANCH   8  13
ENDBRANCH   3   8
BRANCH   5  19
ATOM     19  O   UNL     1     109.847 131.132 138.884  0.00  0.00    +0.000 OA
BRANCH  19  24
ATOM     20  O   UNL     1     109.716 131.430 137.492  0.00  0.00    +0.000 OA
ATOM     21  O   UNL     1     110.354 132.676 139.166  0.00  0.00    +0.000 OA
ATOM     22  O   UNL     1     110.477 133.747 137.916  0.00  0.00    +0.000 OA
ATOM     23  O   UNL     1     110.093 133.272 136.384  0.00  0.00    +0.000 OA
ATOM     24  C   UNL     1     109.908 131.667 138.258  0.00  0.00    +0.000 C 
ATOM     25  C   UNL     1     110.162 132.439 138.400  0.00  0.00    +0.000 C 
ATOM     26  C   UNL     1     110.223 132.974 137.775  0.00  0.00    +0.000 C 
ATOM     27  C   UNL     1     110.031 132.737 137.008  0.00  0.00    +0.000 C 
ATOM     28  C   UNL     1     109.777 131.964 136.867  0.00  0.00    +0.000 C 
BRANCH  28  29
ATOM     29  C   UNL     1     109.586 131.728 136.101  0.00  0.00    +0.000 C 
BRANCH  29  30
ATOM     30  O   UNL     1     109.277 130.975 135.965  0.00  0.00    +0.000 OA
BRANCH  30  32
ATOM     31  O   UNL     1     108.327 130.948 134.899  0.00  0.00    +0.000 OA
ATOM     32  C   UNL     1     109.068 130.746 135.200  0.00  0.00    +0.000 C 
ATOM     33  C   UNL     1     109.598 130.317 134.738  0.00  0.00    +0.000 C 
ENDBRANCH  30  32
ENDBRANCH  29  30
ENDBRANCH  28  29
ENDBRANCH  19  24
ENDBRANCH   5  19
BRANCH   7  34
ATOM     34  O   UNL     1     110.869 129.839 138.960  0.00  0.00    +0.000 OA
BRANCH  34  38
ATOM     35  O   UNL     1     112.452 127.443 138.471  0.00  0.00    +0.000 OA
ATOM     36  O   UNL     1     112.997 129.062 140.802  0.00  0.00    +0.000 OA
ATOM     37  O   UNL     1     113.761 127.868 140.528  0.00  0.00    +0.000 OA
ATOM     38  C   UNL     1     111.474 129.323 139.181  0.00  0.00    +0.000 A 
ATOM     39  C   UNL     1     111.653 128.635 138.700  0.00  0.00    +0.000 A 
ATOM     40  C   UNL     1     111.929 129.471 139.896  0.00  0.00    +0.000 A 
ATOM     41  C   UNL     1     112.285 128.103 138.938  0.00  0.00    +0.000 A 
ATOM     42  C   UNL     1     112.556 128.928 140.118  0.00  0.00    +0.000 A 
ATOM     43  C   UNL     1     112.721 128.244 139.623  0.00  0.00    +0.000 A 
ATOM     44  C   UNL     1     113.325 127.727 139.842  0.00  0.00    +0.000 A 
ATOM     45  C   UNL     1     113.056 126.926 138.690  0.00  0.00    +0.000 A 
ATOM     46  C   UNL     1     113.492 127.067 139.376  0.00  0.00    +0.000 A 
BRANCH  45  47
ATOM     47  C   UNL     1     113.223 126.267 138.223  0.00  0.00    +0.000 A 
ATOM     48  C   UNL     1     112.620 125.743 138.017  0.00  0.00    +0.000 A 
ATOM     49  C   UNL     1     113.994 126.132 137.962  0.00  0.00    +0.000 A 
ATOM     50  C   UNL     1     112.788 125.084 137.550  0.00  0.00    +0.000 A 
ATOM     51  C   UNL     1     114.162 125.473 137.494  0.00  0.00    +0.000 A 
ATOM     52  C   UNL     1     113.559 124.949 137.288  0.00  0.00    +0.000 A 
BRANCH  52  53
ATOM     53  O   UNL     1     113.726 124.290 136.821  0.00  0.00    +0.000 OA
ATOM     54  C   UNL     1     113.157 123.702 136.718  0.00  0.00    +0.000 C 
ENDBRANCH  52  53
ENDBRANCH  45  47
ENDBRANCH  34  38
ENDBRANCH   7  34
BRANCH   6  55
ATOM     55  C   UNL     1     108.982 128.442 140.588  0.00  0.00    +0.000 C 
BRANCH  55  56
ATOM     56  O   UNL     1     109.116 127.692 140.273  0.00  0.00    +0.000 OA
BRANCH  56  61
ATOM     57  O   UNL     1     108.064 127.073 141.016  0.00  0.00    +0.000 OA
ATOM     58  O   UNL     1     109.945 126.265 140.260  0.00  0.00    +0.000 OA
ATOM     59  O   UNL     1     109.307 124.933 140.996  0.00  0.00    +0.000 OA
ATOM     60  O   UNL     1     107.840 125.029 141.746  0.00  0.00    +0.000 OA
ATOM     61  C   UNL     1     108.798 127.025 140.641  0.00  0.00    +0.000 C 
ATOM     62  C   UNL     1     109.212 126.313 140.635  0.00  0.00    +0.000 C 
ATOM     63  C   UNL     1     108.893 125.647 141.003  0.00  0.00    +0.000 C 
ATOM     64  C   UNL     1     108.160 125.695 141.377  0.00  0.00    +0.000 C 
ATOM     65  C   UNL     1     107.745 126.408 141.384  0.00  0.00    +0.000 C 
BRANCH  65  67
ATOM     66  O   UNL     1     106.387 126.849 141.393  0.00  0.00    +0.000 OA
ATOM     67  C   UNL     1     107.011 126.455 141.759  0.00  0.00    +0.000 C 
ENDBRANCH  65  67
ENDBRANCH  56  61
ENDBRANCH  55  56
ENDBRANCH   6  55
TORSDOF 15
ENDMDL
MODEL 8
REMARK VINA RESULT:     -10.0      1.903      5.066
REMARK  Name = 44257895
REMARK  15 active torsions:
REMARK  status: ('A' for Active; 'I' for Inactive)
REMARK    1  A    between atoms: O_2  and  C_26
REMARK    2  A    between atoms: O_2  and  C_31
REMARK    3  A    between atoms: O_3  and  C_28
REMARK    4  A    between atoms: O_3  and  C_32
REMARK    5  A    between atoms: O_7  and  C_33
REMARK    6  A    between atoms: O_7  and  C_42
REMARK    7  A    between atoms: O_8  and  C_30
REMARK    8  A    between atoms: O_8  and  C_49
REMARK    9  A    between atoms: O_19  and  C_47
REMARK   10  A    between atoms: O_19  and  C_56
REMARK   11  A    between atoms: O_25  and  C_66
REMARK   12  A    between atoms: C_29  and  C_33
REMARK   13  A    between atoms: C_40  and  C_47
REMARK   14  A    between atoms: C_46  and  C_50
REMARK   15  A    between atoms: C_59  and  C_61
REMARK                            x       y       z     vdW  Elec       q    Type
REMARK                         _______ _______ _______ _____ _____    ______ ____
ROOT
ATOM      1  O   UNL     1     111.488 126.308 138.529  0.00  0.00    +0.000 OA
ATOM      2  O   UNL     1     111.502 126.498 140.997  0.00  0.00    +0.000 OA
ATOM      3  C   UNL     1     112.204 126.488 139.751  0.00  0.00    +0.000 C 
ATOM      4  C   UNL     1     111.498 126.435 140.174  0.00  0.00    +0.000 C 
ATOM      5  C   UNL     1     110.785 126.317 139.773  0.00  0.00    +0.000 C 
ATOM      6  C   UNL     1     112.199 126.425 138.929  0.00  0.00    +0.000 C 
ATOM      7  C   UNL     1     110.780 126.254 138.951  0.00  0.00    +0.000 C 
ENDROOT
BRANCH   3   8
ATOM      8  O   UNL     1     112.916 126.606 140.152  0.00  0.00    +0.000 OA
BRANCH   8  13
ATOM      9  O   UNL     1     112.680 128.015 140.181  0.00  0.00    +0.000 OA
ATOM     10  O   UNL     1     114.451 126.851 140.705  0.00  0.00    +0.000 OA
ATOM     11  O   UNL     1     114.984 128.382 141.010  0.00  0.00    +0.000 OA
ATOM     12  O   UNL     1     113.981 129.669 140.763  0.00  0.00    +0.000 OA
ATOM     13  C   UNL     1     113.182 127.372 140.305  0.00  0.00    +0.000 C 
ATOM     14  C   UNL     1     113.949 127.494 140.581  0.00  0.00    +0.000 C 
ATOM     15  C   UNL     1     114.215 128.260 140.734  0.00  0.00    +0.000 C 
ATOM     16  C   UNL     1     113.714 128.903 140.611  0.00  0.00    +0.000 C 
ATOM     17  C   UNL     1     112.946 128.780 140.334  0.00  0.00    +0.000 C 
ATOM     18  C   UNL     1     112.445 129.424 140.211  0.00  0.00    +0.000 C 
ENDBRANCH   8  13
ENDBRANCH   3   8
BRANCH   5  19
ATOM     19  O   UNL     1     110.079 126.263 140.196  0.00  0.00    +0.000 OA
BRANCH  19  24
ATOM     20  O   UNL     1     109.240 127.287 140.735  0.00  0.00    +0.000 OA
ATOM     21  O   UNL     1     109.165 125.117 140.952  0.00  0.00    +0.000 OA
ATOM     22  O   UNL     1     107.869 125.567 141.869  0.00  0.00    +0.000 OA
ATOM     23  O   UNL     1     107.487 127.164 142.030  0.00  0.00    +0.000 OA
ATOM     24  C   UNL     1     109.431 126.489 140.654  0.00  0.00    +0.000 C 
ATOM     25  C   UNL     1     108.974 125.916 141.032  0.00  0.00    +0.000 C 
ATOM     26  C   UNL     1     108.326 126.140 141.491  0.00  0.00    +0.000 C 
ATOM     27  C   UNL     1     108.135 126.939 141.572  0.00  0.00    +0.000 C 
ATOM     28  C   UNL     1     108.593 127.513 141.193  0.00  0.00    +0.000 C 
BRANCH  28  29
ATOM     29  C   UNL     1     108.401 128.311 141.274  0.00  0.00    +0.000 C 
BRANCH  29  30
ATOM     30  O   UNL     1     108.686 128.862 140.731  0.00  0.00    +0.000 OA
BRANCH  30  32
ATOM     31  O   UNL     1     107.788 129.936 140.446  0.00  0.00    +0.000 OA
ATOM     32  C   UNL     1     108.479 129.657 140.802  0.00  0.00    +0.000 C 
ATOM     33  C   UNL     1     108.961 130.173 141.227  0.00  0.00    +0.000 C 
ENDBRANCH  30  32
ENDBRANCH  29  30
ENDBRANCH  28  29
ENDBRANCH  19  24
ENDBRANCH   5  19
BRANCH   7  34
ATOM     34  O   UNL     1     110.069 126.137 138.551  0.00  0.00    +0.000 OA
BRANCH  34  38
ATOM     35  O   UNL     1     109.568 128.250 136.609  0.00  0.00    +0.000 OA
ATOM     36  O   UNL     1     110.084 125.559 135.688  0.00  0.00    +0.000 OA
ATOM     37  O   UNL     1     109.832 126.631 134.756  0.00  0.00    +0.000 OA
ATOM     38  C   UNL     1     109.990 126.385 137.768  0.00  0.00    +0.000 A 
ATOM     39  C   UNL     1     109.816 127.208 137.591  0.00  0.00    +0.000 A 
ATOM     40  C   UNL     1     110.082 125.823 137.124  0.00  0.00    +0.000 A 
ATOM     41  C   UNL     1     109.736 127.458 136.773  0.00  0.00    +0.000 A 
ATOM     42  C   UNL     1     109.998 126.092 136.312  0.00  0.00    +0.000 A 
ATOM     43  C   UNL     1     109.823 126.919 136.155  0.00  0.00    +0.000 A 
ATOM     44  C   UNL     1     109.744 127.171 135.373  0.00  0.00    +0.000 A 
ATOM     45  C   UNL     1     109.489 128.501 135.828  0.00  0.00    +0.000 A 
ATOM     46  C   UNL     1     109.577 127.962 135.210  0.00  0.00    +0.000 A 
BRANCH  45  47
ATOM     47  C   UNL     1     109.322 129.292 135.665  0.00  0.00    +0.000 A 
ATOM     48  C   UNL     1     108.614 129.627 135.925  0.00  0.00    +0.000 A 
ATOM     49  C   UNL     1     109.863 129.749 135.241  0.00  0.00    +0.000 A 
ATOM     50  C   UNL     1     108.447 130.419 135.762  0.00  0.00    +0.000 A 
ATOM     51  C   UNL     1     109.696 130.540 135.078  0.00  0.00    +0.000 A 
ATOM     52  C   UNL     1     108.989 130.875 135.338  0.00  0.00    +0.000 A 
BRANCH  52  53
ATOM     53  O   UNL     1     108.822 131.667 135.175  0.00  0.00    +0.000 OA
ATOM     54  C   UNL     1     109.209 132.264 135.592  0.00  0.00    +0.000 C 
ENDBRANCH  52  53
ENDBRANCH  45  47
ENDBRANCH  34  38
ENDBRANCH   7  34
BRANCH   6  55
ATOM     55  C   UNL     1     112.906 126.479 138.507  0.00  0.00    +0.000 C 
BRANCH  55  56
ATOM     56  O   UNL     1     113.070 125.940 137.906  0.00  0.00    +0.000 OA
BRANCH  56  61
ATOM     57  O   UNL     1     113.488 126.886 136.919  0.00  0.00    +0.000 OA
ATOM     58  O   UNL     1     114.246 124.897 137.402  0.00  0.00    +0.000 OA
ATOM     59  O   UNL     1     115.251 125.322 136.165  0.00  0.00    +0.000 OA
ATOM     60  O   UNL     1     115.081 126.789 135.430  0.00  0.00    +0.000 OA
ATOM     61  C   UNL     1     113.573 126.152 137.287  0.00  0.00    +0.000 C 
ATOM     62  C   UNL     1     114.161 125.631 137.035  0.00  0.00    +0.000 C 
ATOM     63  C   UNL     1     114.663 125.843 136.417  0.00  0.00    +0.000 C 
ATOM     64  C   UNL     1     114.578 126.577 136.050  0.00  0.00    +0.000 C 
ATOM     65  C   UNL     1     113.990 127.098 136.301  0.00  0.00    +0.000 C 
BRANCH  65  67
ATOM     66  O   UNL     1     113.154 128.152 135.821  0.00  0.00    +0.000 OA
ATOM     67  C   UNL     1     113.905 127.832 135.933  0.00  0.00    +0.000 C 
ENDBRANCH  65  67
ENDBRANCH  56  61
ENDBRANCH  55  56
ENDBRANCH   6  55
TORSDOF 15
ENDMDL
MODEL 9
REMARK VINA RESULT:     -10.0      5.345      7.750
REMARK  Name = 44257895
REMARK  15 active torsions:
REMARK  status: ('A' for Active; 'I' for Inactive)
REMARK    1  A    between atoms: O_2  and  C_26
REMARK    2  A    between atoms: O_2  and  C_31
REMARK    3  A    between atoms: O_3  and  C_28
REMARK    4  A    between atoms: O_3  and  C_32
REMARK    5  A    between atoms: O_7  and  C_33
REMARK    6  A    between atoms: O_7  and  C_42
REMARK    7  A    between atoms: O_8  and  C_30
REMARK    8  A    between atoms: O_8  and  C_49
REMARK    9  A    between atoms: O_19  and  C_47
REMARK   10  A    between atoms: O_19  and  C_56
REMARK   11  A    between atoms: O_25  and  C_66
REMARK   12  A    between atoms: C_29  and  C_33
REMARK   13  A    between atoms: C_40  and  C_47
REMARK   14  A    between atoms: C_46  and  C_50
REMARK   15  A    between atoms: C_59  and  C_61
REMARK                            x       y       z     vdW  Elec       q    Type
REMARK                         _______ _______ _______ _____ _____    ______ ____
ROOT
ATOM      1  O   UNL     1     106.872 127.978 142.974  0.00  0.00    +0.000 OA
ATOM      2  O   UNL     1     106.700 130.440 143.160  0.00  0.00    +0.000 OA
ATOM      3  C   UNL     1     107.458 129.273 142.834  0.00  0.00    +0.000 C 
ATOM      4  C   UNL     1     106.758 129.619 143.098  0.00  0.00    +0.000 C 
ATOM      5  C   UNL     1     106.113 129.144 143.300  0.00  0.00    +0.000 C 
ATOM      6  C   UNL     1     107.516 128.452 142.772  0.00  0.00    +0.000 C 
ATOM      7  C   UNL     1     106.171 128.323 143.238  0.00  0.00    +0.000 C 
ENDROOT
BRANCH   3   8
ATOM      8  O   UNL     1     108.103 129.748 142.632  0.00  0.00    +0.000 OA
BRANCH   8  13
ATOM      9  O   UNL     1     108.580 129.716 143.978  0.00  0.00    +0.000 OA
ATOM     10  O   UNL     1     109.125 131.000 142.299  0.00  0.00    +0.000 OA
ATOM     11  O   UNL     1     110.115 131.593 143.478  0.00  0.00    +0.000 OA
ATOM     12  O   UNL     1     110.081 130.935 144.991  0.00  0.00    +0.000 OA
ATOM     13  C   UNL     1     108.597 130.045 143.222  0.00  0.00    +0.000 C 
ATOM     14  C   UNL     1     109.108 130.670 143.055  0.00  0.00    +0.000 C 
ATOM     15  C   UNL     1     109.603 130.967 143.645  0.00  0.00    +0.000 C 
ATOM     16  C   UNL     1     109.587 130.639 144.402  0.00  0.00    +0.000 C 
ATOM     17  C   UNL     1     109.075 130.012 144.568  0.00  0.00    +0.000 C 
ATOM     18  C   UNL     1     109.059 129.684 145.325  0.00  0.00    +0.000 C 
ENDBRANCH   8  13
ENDBRANCH   3   8
BRANCH   5  19
ATOM     19  O   UNL     1     105.413 129.490 143.563  0.00  0.00    +0.000 OA
BRANCH  19  24
ATOM     20  O   UNL     1     104.272 129.954 142.838  0.00  0.00    +0.000 OA
ATOM     21  O   UNL     1     104.812 130.169 144.942  0.00  0.00    +0.000 OA
ATOM     22  O   UNL     1     103.371 130.973 144.907  0.00  0.00    +0.000 OA
ATOM     23  O   UNL     1     102.531 131.097 143.493  0.00  0.00    +0.000 OA
ATOM     24  C   UNL     1     104.692 129.892 143.545  0.00  0.00    +0.000 C 
ATOM     25  C   UNL     1     104.392 130.231 144.234  0.00  0.00    +0.000 C 
ATOM     26  C   UNL     1     103.672 130.633 144.218  0.00  0.00    +0.000 C 
ATOM     27  C   UNL     1     103.251 130.696 143.510  0.00  0.00    +0.000 C 
ATOM     28  C   UNL     1     103.552 130.356 142.820  0.00  0.00    +0.000 C 
BRANCH  28  29
ATOM     29  C   UNL     1     103.131 130.419 142.114  0.00  0.00    +0.000 C 
BRANCH  29  30
ATOM     30  O   UNL     1     103.289 129.903 141.491  0.00  0.00    +0.000 OA
BRANCH  30  32
ATOM     31  O   UNL     1     103.101 130.725 140.338  0.00  0.00    +0.000 OA
ATOM     32  C   UNL     1     102.944 130.029 140.752  0.00  0.00    +0.000 C 
ATOM     33  C   UNL     1     102.443 129.460 140.428  0.00  0.00    +0.000 C 
ENDBRANCH  30  32
ENDBRANCH  29  30
ENDBRANCH  28  29
ENDBRANCH  19  24
ENDBRANCH   5  19
BRANCH   7  34
ATOM     34  O   UNL     1     105.527 127.849 143.439  0.00  0.00    +0.000 OA
BRANCH  34  38
ATOM     35  O   UNL     1     106.214 126.132 145.690  0.00  0.00    +0.000 OA
ATOM     36  O   UNL     1     105.609 124.947 143.125  0.00  0.00    +0.000 OA
ATOM     37  O   UNL     1     105.953 124.128 144.262  0.00  0.00    +0.000 OA
ATOM     38  C   UNL     1     105.652 127.096 143.753  0.00  0.00    +0.000 A 
ATOM     39  C   UNL     1     105.874 127.003 144.578  0.00  0.00    +0.000 A 
ATOM     40  C   UNL     1     105.562 126.400 143.257  0.00  0.00    +0.000 A 
ATOM     41  C   UNL     1     106.002 126.215 144.896  0.00  0.00    +0.000 A 
ATOM     42  C   UNL     1     105.694 125.620 143.593  0.00  0.00    +0.000 A 
ATOM     43  C   UNL     1     105.915 125.547 144.421  0.00  0.00    +0.000 A 
ATOM     44  C   UNL     1     106.040 124.796 144.738  0.00  0.00    +0.000 A 
ATOM     45  C   UNL     1     106.340 125.381 146.007  0.00  0.00    +0.000 A 
ATOM     46  C   UNL     1     106.253 124.713 145.531  0.00  0.00    +0.000 A 
BRANCH  45  47
ATOM     47  C   UNL     1     106.552 125.298 146.799  0.00  0.00    +0.000 A 
ATOM     48  C   UNL     1     107.345 125.354 147.023  0.00  0.00    +0.000 A 
ATOM     49  C   UNL     1     105.972 125.160 147.369  0.00  0.00    +0.000 A 
ATOM     50  C   UNL     1     107.556 125.272 147.816  0.00  0.00    +0.000 A 
ATOM     51  C   UNL     1     106.184 125.078 148.162  0.00  0.00    +0.000 A 
ATOM     52  C   UNL     1     106.976 125.133 148.386  0.00  0.00    +0.000 A 
BRANCH  52  53
ATOM     53  O   UNL     1     107.187 125.051 149.179  0.00  0.00    +0.000 OA
ATOM     54  C   UNL     1     107.669 124.423 149.414  0.00  0.00    +0.000 C 
ENDBRANCH  52  53
ENDBRANCH  45  47
ENDBRANCH  34  38
ENDBRANCH   7  34
BRANCH   6  55
ATOM     55  C   UNL     1     108.217 128.107 142.509  0.00  0.00    +0.000 C 
BRANCH  55  56
ATOM     56  O   UNL     1     108.193 127.461 141.997  0.00  0.00    +0.000 OA
BRANCH  56  61
ATOM     57  O   UNL     1     109.618 127.476 141.902  0.00  0.00    +0.000 OA
ATOM     58  O   UNL     1     108.148 126.078 141.098  0.00  0.00    +0.000 OA
ATOM     59  O   UNL     1     109.552 125.403 140.553  0.00  0.00    +0.000 OA
ATOM     60  O   UNL     1     111.000 126.110 140.908  0.00  0.00    +0.000 OA
ATOM     61  C   UNL     1     108.894 127.122 141.725  0.00  0.00    +0.000 C 
ATOM     62  C   UNL     1     108.872 126.432 141.275  0.00  0.00    +0.000 C 
ATOM     63  C   UNL     1     109.573 126.094 141.003  0.00  0.00    +0.000 C 
ATOM     64  C   UNL     1     110.297 126.448 141.181  0.00  0.00    +0.000 C 
ATOM     65  C   UNL     1     110.320 127.139 141.630  0.00  0.00    +0.000 C 
BRANCH  65  67
ATOM     66  O   UNL     1     111.179 127.799 142.561  0.00  0.00    +0.000 OA
ATOM     67  C   UNL     1     111.044 127.492 141.808  0.00  0.00    +0.000 C 
ENDBRANCH  65  67
ENDBRANCH  56  61
ENDBRANCH  55  56
ENDBRANCH   6  55
TORSDOF 15
ENDMDL
MODEL 10
REMARK VINA RESULT:      -9.9      2.203      6.672
REMARK  Name = 44257895
REMARK  15 active torsions:
REMARK  status: ('A' for Active; 'I' for Inactive)
REMARK    1  A    between atoms: O_2  and  C_26
REMARK    2  A    between atoms: O_2  and  C_31
REMARK    3  A    between atoms: O_3  and  C_28
REMARK    4  A    between atoms: O_3  and  C_32
REMARK    5  A    between atoms: O_7  and  C_33
REMARK    6  A    between atoms: O_7  and  C_42
REMARK    7  A    between atoms: O_8  and  C_30
REMARK    8  A    between atoms: O_8  and  C_49
REMARK    9  A    between atoms: O_19  and  C_47
REMARK   10  A    between atoms: O_19  and  C_56
REMARK   11  A    between atoms: O_25  and  C_66
REMARK   12  A    between atoms: C_29  and  C_33
REMARK   13  A    between atoms: C_40  and  C_47
REMARK   14  A    between atoms: C_46  and  C_50
REMARK   15  A    between atoms: C_59  and  C_61
REMARK                            x       y       z     vdW  Elec       q    Type
REMARK                         _______ _______ _______ _____ _____    ______ ____
ROOT
ATOM      1  O   UNL     1     109.394 127.660 139.215  0.00  0.00    +0.000 OA
ATOM      2  O   UNL     1     108.853 127.097 141.563  0.00  0.00    +0.000 OA
ATOM      3  C   UNL     1     109.307 128.039 140.589  0.00  0.00    +0.000 C 
ATOM      4  C   UNL     1     109.034 127.284 140.781  0.00  0.00    +0.000 C 
ATOM      5  C   UNL     1     108.940 126.717 140.188  0.00  0.00    +0.000 C 
ATOM      6  C   UNL     1     109.487 128.226 139.806  0.00  0.00    +0.000 C 
ATOM      7  C   UNL     1     109.120 126.905 139.405  0.00  0.00    +0.000 C 
ENDROOT
BRANCH   3   8
ATOM      8  O   UNL     1     109.401 128.606 141.182  0.00  0.00    +0.000 OA
BRANCH   8  13
ATOM      9  O   UNL     1     110.744 128.178 141.415  0.00  0.00    +0.000 OA
ATOM     10  O   UNL     1     109.419 129.443 142.604  0.00  0.00    +0.000 OA
ATOM     11  O   UNL     1     110.771 129.433 143.549  0.00  0.00    +0.000 OA
ATOM     12  O   UNL     1     112.106 128.588 143.072  0.00  0.00    +0.000 OA
ATOM     13  C   UNL     1     110.077 128.601 141.654  0.00  0.00    +0.000 C 
ATOM     14  C   UNL     1     110.086 129.019 142.365  0.00  0.00    +0.000 C 
ATOM     15  C   UNL     1     110.762 129.015 142.837  0.00  0.00    +0.000 C 
ATOM     16  C   UNL     1     111.429 128.592 142.599  0.00  0.00    +0.000 C 
ATOM     17  C   UNL     1     111.420 128.174 141.888  0.00  0.00    +0.000 C 
ATOM     18  C   UNL     1     112.087 127.751 141.650  0.00  0.00    +0.000 C 
ENDBRANCH   8  13
ENDBRANCH   3   8
BRANCH   5  19
ATOM     19  O   UNL     1     108.666 125.963 140.379  0.00  0.00    +0.000 OA
BRANCH  19  24
ATOM     20  O   UNL     1     107.342 125.425 140.368  0.00  0.00    +0.000 OA
ATOM     21  O   UNL     1     109.219 124.585 141.098  0.00  0.00    +0.000 OA
ATOM     22  O   UNL     1     108.173 123.357 141.446  0.00  0.00    +0.000 OA
ATOM     23  O   UNL     1     106.573 123.509 141.075  0.00  0.00    +0.000 OA
ATOM     24  C   UNL     1     108.142 125.349 140.553  0.00  0.00    +0.000 C 
ATOM     25  C   UNL     1     108.419 124.661 140.913  0.00  0.00    +0.000 C 
ATOM     26  C   UNL     1     107.897 124.047 141.087  0.00  0.00    +0.000 C 
ATOM     27  C   UNL     1     107.096 124.122 140.901  0.00  0.00    +0.000 C 
ATOM     28  C   UNL     1     106.819 124.812 140.541  0.00  0.00    +0.000 C 
BRANCH  28  29
ATOM     29  C   UNL     1     106.019 124.886 140.356  0.00  0.00    +0.000 C 
BRANCH  29  30
ATOM     30  O   UNL     1     105.790 125.182 139.622  0.00  0.00    +0.000 OA
BRANCH  30  32
ATOM     31  O   UNL     1     104.586 125.937 139.771  0.00  0.00    +0.000 OA
ATOM     32  C   UNL     1     104.990 125.292 139.451  0.00  0.00    +0.000 C 
ATOM     33  C   UNL     1     104.595 124.759 138.962  0.00  0.00    +0.000 C 
ENDBRANCH  30  32
ENDBRANCH  29  30
ENDBRANCH  28  29
ENDBRANCH  19  24
ENDBRANCH   5  19
BRANCH   7  34
ATOM     34  O   UNL     1     109.027 126.338 138.814  0.00  0.00    +0.000 OA
BRANCH  34  38
ATOM     35  O   UNL     1     111.508 125.963 137.335  0.00  0.00    +0.000 OA
ATOM     36  O   UNL     1     109.203 127.078 135.994  0.00  0.00    +0.000 OA
ATOM     37  O   UNL     1     110.449 126.878 135.294  0.00  0.00    +0.000 OA
ATOM     38  C   UNL     1     109.458 126.398 138.113  0.00  0.00    +0.000 A 
ATOM     39  C   UNL     1     110.278 126.144 138.087  0.00  0.00    +0.000 A 
ATOM     40  C   UNL     1     109.091 126.716 137.404  0.00  0.00    +0.000 A 
ATOM     41  C   UNL     1     110.720 126.210 137.353  0.00  0.00    +0.000 A 
ATOM     42  C   UNL     1     109.548 126.775 136.679  0.00  0.00    +0.000 A 
ATOM     43  C   UNL     1     110.368 126.515 136.673  0.00  0.00    +0.000 A 
ATOM     44  C   UNL     1     110.802 126.573 135.974  0.00  0.00    +0.000 A 
ATOM     45  C   UNL     1     111.942 126.022 136.636  0.00  0.00    +0.000 A 
ATOM     46  C   UNL     1     111.589 126.327 135.955  0.00  0.00    +0.000 A 
BRANCH  45  47
ATOM     47  C   UNL     1     112.729 125.776 136.618  0.00  0.00    +0.000 A 
ATOM     48  C   UNL     1     113.335 126.317 136.763  0.00  0.00    +0.000 A 
ATOM     49  C   UNL     1     112.910 124.988 136.454  0.00  0.00    +0.000 A 
ATOM     50  C   UNL     1     114.122 126.070 136.745  0.00  0.00    +0.000 A 
ATOM     51  C   UNL     1     113.697 124.741 136.436  0.00  0.00    +0.000 A 
ATOM     52  C   UNL     1     114.303 125.282 136.581  0.00  0.00    +0.000 A 
BRANCH  52  53
ATOM     53  O   UNL     1     115.090 125.035 136.563  0.00  0.00    +0.000 OA
ATOM     54  C   UNL     1     115.494 124.995 135.845  0.00  0.00    +0.000 C 
ENDBRANCH  52  53
ENDBRANCH  45  47
ENDBRANCH  34  38
ENDBRANCH   7  34
BRANCH   6  55
ATOM     55  C   UNL     1     109.761 128.981 139.616  0.00  0.00    +0.000 C 
BRANCH  55  56
ATOM     56  O   UNL     1     109.388 129.419 139.025  0.00  0.00    +0.000 OA
BRANCH  56  61
ATOM     57  O   UNL     1     110.504 130.259 138.724  0.00  0.00    +0.000 OA
ATOM     58  O   UNL     1     108.362 130.679 138.739  0.00  0.00    +0.000 OA
ATOM     59  O   UNL     1     108.966 132.150 138.295  0.00  0.00    +0.000 OA
ATOM     60  O   UNL     1     110.595 132.360 138.138  0.00  0.00    +0.000 OA
ATOM     61  C   UNL     1     109.689 130.154 138.803  0.00  0.00    +0.000 C 
ATOM     62  C   UNL     1     109.177 130.784 138.660  0.00  0.00    +0.000 C 
ATOM     63  C   UNL     1     109.478 131.519 138.439  0.00  0.00    +0.000 C 
ATOM     64  C   UNL     1     110.293 131.624 138.360  0.00  0.00    +0.000 C 
ATOM     65  C   UNL     1     110.806 130.994 138.503  0.00  0.00    +0.000 C 
BRANCH  65  67
ATOM     66  O   UNL     1     112.128 130.843 139.020  0.00  0.00    +0.000 OA
ATOM     67  C   UNL     1     111.620 131.099 138.424  0.00  0.00    +0.000 C 
ENDBRANCH  65  67
ENDBRANCH  56  61
ENDBRANCH  55  56
ENDBRANCH   6  55
TORSDOF 15
ENDMDL
