MODEL 1
REMARK VINA RESULT:     -10.3      0.000      0.000
REMARK  Name = 131833495
REMARK  6 active torsions:
REMARK  status: ('A' for Active; 'I' for Inactive)
REMARK    1  A    between atoms: O_2  and  C_24
REMARK    2  A    between atoms: O_2  and  C_27
REMARK    3  A    between atoms: C_16  and  C_21
REMARK    4  A    between atoms: C_20  and  C_26
REMARK    5  A    between atoms: C_28  and  C_33
REMARK    6  A    between atoms: C_36  and  C_37
REMARK                            x       y       z     vdW  Elec       q    Type
REMARK                         _______ _______ _______ _____ _____    ______ ____
ROOT
ATOM      1  O   UNL     1     110.342 127.494 136.134  0.00  0.00    +0.000 OA
ATOM      2  O   UNL     1     113.125 127.100 136.824  0.00  0.00    +0.000 OA
ATOM      3  O   UNL     1     110.865 126.150 136.191  0.00  0.00    +0.000 OA
ATOM      4  C   UNL     1     111.173 128.622 136.412  0.00  0.00    +0.000 A 
ATOM      5  C   UNL     1     111.909 128.935 136.618  0.00  0.00    +0.000 A 
ATOM      6  C   UNL     1     111.077 127.806 136.340  0.00  0.00    +0.000 A 
ATOM      7  C   UNL     1     111.717 127.303 136.475  0.00  0.00    +0.000 A 
ATOM      8  C   UNL     1     112.547 128.431 136.752  0.00  0.00    +0.000 A 
ATOM      9  C   UNL     1     112.451 127.615 136.681  0.00  0.00    +0.000 A 
ATOM     10  C   UNL     1     111.603 126.454 136.397  0.00  0.00    +0.000 A 
ATOM     11  C   UNL     1     112.265 125.924 136.536  0.00  0.00    +0.000 A 
ATOM     12  C   UNL     1     113.031 126.250 136.751  0.00  0.00    +0.000 A 
ENDROOT
BRANCH   4  17
ATOM     13  O   UNL     1     110.061 129.369 136.909  0.00  0.00    +0.000 OA
ATOM     14  O   UNL     1     110.841 129.145 134.882  0.00  0.00    +0.000 OA
ATOM     15  O   UNL     1     109.563 130.154 134.615  0.00  0.00    +0.000 OA
ATOM     16  O   UNL     1     108.617 130.640 135.876  0.00  0.00    +0.000 OA
ATOM     17  C   UNL     1     110.534 129.126 136.277  0.00  0.00    +0.000 C 
ATOM     18  C   UNL     1     110.368 129.388 135.513  0.00  0.00    +0.000 C 
ATOM     19  C   UNL     1     109.729 129.892 135.379  0.00  0.00    +0.000 C 
ATOM     20  C   UNL     1     109.256 130.135 136.009  0.00  0.00    +0.000 C 
ATOM     21  C   UNL     1     109.422 129.874 136.774  0.00  0.00    +0.000 C 
BRANCH  21  23
ATOM     22  O   UNL     1     108.916 129.664 138.094  0.00  0.00    +0.000 OA
ATOM     23  C   UNL     1     108.949 130.117 137.406  0.00  0.00    +0.000 C 
ENDBRANCH  21  23
ENDBRANCH   4  17
BRANCH  12  24
ATOM     24  C   UNL     1     113.672 125.748 136.886  0.00  0.00    +0.000 A 
ATOM     25  C   UNL     1     113.836 125.484 137.650  0.00  0.00    +0.000 A 
ATOM     26  C   UNL     1     114.150 125.511 136.257  0.00  0.00    +0.000 A 
ATOM     27  C   UNL     1     114.477 124.982 137.785  0.00  0.00    +0.000 A 
ATOM     28  C   UNL     1     114.791 125.009 136.391  0.00  0.00    +0.000 A 
ATOM     29  C   UNL     1     114.955 124.745 137.155  0.00  0.00    +0.000 A 
ENDBRANCH  12  24
BRANCH   5  30
ATOM     30  O   UNL     1     112.005 129.751 136.689  0.00  0.00    +0.000 OA
BRANCH  30  37
ATOM     31  O   UNL     1     112.437 129.925 138.040  0.00  0.00    +0.000 OA
ATOM     32  O   UNL     1     113.299 130.628 136.163  0.00  0.00    +0.000 OA
ATOM     33  O   UNL     1     114.379 131.240 137.250  0.00  0.00    +0.000 OA
ATOM     34  O   UNL     1     114.163 130.974 138.864  0.00  0.00    +0.000 OA
ATOM     35  C   UNL     1     113.191 130.495 136.970  0.00  0.00    +0.000 C 
ATOM     36  C   UNL     1     113.732 130.801 137.514  0.00  0.00    +0.000 C 
ATOM     37  C   UNL     1     112.544 130.057 137.233  0.00  0.00    +0.000 C 
ATOM     38  C   UNL     1     113.623 130.668 138.321  0.00  0.00    +0.000 C 
ATOM     39  C   UNL     1     112.976 130.230 138.584  0.00  0.00    +0.000 C 
BRANCH  39  42
ATOM     40  O   UNL     1     112.369 130.588 139.827  0.00  0.00    +0.000 OA
ATOM     41  O   UNL     1     113.261 129.474 139.762  0.00  0.00    +0.000 OA
ATOM     42  C   UNL     1     112.869 130.098 139.390  0.00  0.00    +0.000 C 
ENDBRANCH  39  42
ENDBRANCH  30  37
ENDBRANCH   5  30
TORSDOF 6
ENDMDL
MODEL 2
REMARK VINA RESULT:     -10.2      1.456      1.833
REMARK  Name = 131833495
REMARK  6 active torsions:
REMARK  status: ('A' for Active; 'I' for Inactive)
REMARK    1  A    between atoms: O_2  and  C_24
REMARK    2  A    between atoms: O_2  and  C_27
REMARK    3  A    between atoms: C_16  and  C_21
REMARK    4  A    between atoms: C_20  and  C_26
REMARK    5  A    between atoms: C_28  and  C_33
REMARK    6  A    between atoms: C_36  and  C_37
REMARK                            x       y       z     vdW  Elec       q    Type
REMARK                         _______ _______ _______ _____ _____    ______ ____
ROOT
ATOM      1  O   UNL     1     108.537 128.526 136.283  0.00  0.00    +0.000 OA
ATOM      2  O   UNL     1     111.013 127.099 136.736  0.00  0.00    +0.000 OA
ATOM      3  O   UNL     1     108.502 127.090 136.409  0.00  0.00    +0.000 OA
ATOM      4  C   UNL     1     109.766 129.247 136.377  0.00  0.00    +0.000 A 
ATOM      5  C   UNL     1     110.585 129.254 136.484  0.00  0.00    +0.000 A 
ATOM      6  C   UNL     1     109.354 128.533 136.389  0.00  0.00    +0.000 A 
ATOM      7  C   UNL     1     109.761 127.824 136.507  0.00  0.00    +0.000 A 
ATOM      8  C   UNL     1     110.990 128.545 136.601  0.00  0.00    +0.000 A 
ATOM      9  C   UNL     1     110.578 127.830 136.613  0.00  0.00    +0.000 A 
ATOM     10  C   UNL     1     109.320 127.087 136.516  0.00  0.00    +0.000 A 
ATOM     11  C   UNL     1     109.737 126.345 136.639  0.00  0.00    +0.000 A 
ATOM     12  C   UNL     1     110.589 126.352 136.749  0.00  0.00    +0.000 A 
ENDROOT
BRANCH   4  17
ATOM     13  O   UNL     1     109.099 130.394 136.909  0.00  0.00    +0.000 OA
ATOM     14  O   UNL     1     109.477 129.789 134.846  0.00  0.00    +0.000 OA
ATOM     15  O   UNL     1     108.666 131.207 134.612  0.00  0.00    +0.000 OA
ATOM     16  O   UNL     1     108.144 132.083 135.910  0.00  0.00    +0.000 OA
ATOM     17  C   UNL     1     109.361 129.956 136.260  0.00  0.00    +0.000 C 
ATOM     18  C   UNL     1     109.216 130.227 135.494  0.00  0.00    +0.000 C 
ATOM     19  C   UNL     1     108.810 130.936 135.378  0.00  0.00    +0.000 C 
ATOM     20  C   UNL     1     108.550 131.374 136.026  0.00  0.00    +0.000 C 
ATOM     21  C   UNL     1     108.694 131.102 136.792  0.00  0.00    +0.000 C 
BRANCH  21  23
ATOM     22  O   UNL     1     108.317 131.169 138.168  0.00  0.00    +0.000 OA
ATOM     23  C   UNL     1     108.433 131.540 137.441  0.00  0.00    +0.000 C 
ENDBRANCH  21  23
ENDBRANCH   4  17
BRANCH  12  24
ATOM     24  C   UNL     1     110.998 125.645 136.867  0.00  0.00    +0.000 A 
ATOM     25  C   UNL     1     111.172 125.391 137.632  0.00  0.00    +0.000 A 
ATOM     26  C   UNL     1     111.233 125.192 136.219  0.00  0.00    +0.000 A 
ATOM     27  C   UNL     1     111.580 124.684 137.750  0.00  0.00    +0.000 A 
ATOM     28  C   UNL     1     111.641 124.485 136.336  0.00  0.00    +0.000 A 
ATOM     29  C   UNL     1     111.815 124.231 137.102  0.00  0.00    +0.000 A 
ENDBRANCH  12  24
BRANCH   5  30
ATOM     30  O   UNL     1     110.997 129.968 136.472  0.00  0.00    +0.000 OA
BRANCH  30  37
ATOM     31  O   UNL     1     111.564 130.034 137.782  0.00  0.00    +0.000 OA
ATOM     32  O   UNL     1     112.481 130.262 135.814  0.00  0.00    +0.000 OA
ATOM     33  O   UNL     1     113.791 130.475 136.795  0.00  0.00    +0.000 OA
ATOM     34  O   UNL     1     113.616 130.394 138.433  0.00  0.00    +0.000 OA
ATOM     35  C   UNL     1     112.393 130.221 136.633  0.00  0.00    +0.000 C 
ATOM     36  C   UNL     1     113.049 130.328 137.124  0.00  0.00    +0.000 C 
ATOM     37  C   UNL     1     111.651 130.075 136.962  0.00  0.00    +0.000 C 
ATOM     38  C   UNL     1     112.961 130.287 137.943  0.00  0.00    +0.000 C 
ATOM     39  C   UNL     1     112.219 130.141 138.272  0.00  0.00    +0.000 C 
BRANCH  39  42
ATOM     40  O   UNL     1     112.289 129.395 139.489  0.00  0.00    +0.000 OA
ATOM     41  O   UNL     1     111.887 130.766 139.513  0.00  0.00    +0.000 OA
ATOM     42  C   UNL     1     112.132 130.100 139.091  0.00  0.00    +0.000 C 
ENDBRANCH  39  42
ENDBRANCH  30  37
ENDBRANCH   5  30
TORSDOF 6
ENDMDL
MODEL 3
REMARK VINA RESULT:     -10.2      0.799      1.727
REMARK  Name = 131833495
REMARK  6 active torsions:
REMARK  status: ('A' for Active; 'I' for Inactive)
REMARK    1  A    between atoms: O_2  and  C_24
REMARK    2  A    between atoms: O_2  and  C_27
REMARK    3  A    between atoms: C_16  and  C_21
REMARK    4  A    between atoms: C_20  and  C_26
REMARK    5  A    between atoms: C_28  and  C_33
REMARK    6  A    between atoms: C_36  and  C_37
REMARK                            x       y       z     vdW  Elec       q    Type
REMARK                         _______ _______ _______ _____ _____    ______ ____
ROOT
ATOM      1  O   UNL     1     110.329 127.410 135.353  0.00  0.00    +0.000 OA
ATOM      2  O   UNL     1     112.669 126.924 136.986  0.00  0.00    +0.000 OA
ATOM      3  O   UNL     1     111.059 126.178 135.179  0.00  0.00    +0.000 OA
ATOM      4  C   UNL     1     110.742 128.385 136.312  0.00  0.00    +0.000 A 
ATOM      5  C   UNL     1     111.265 128.631 136.902  0.00  0.00    +0.000 A 
ATOM      6  C   UNL     1     110.851 127.656 135.942  0.00  0.00    +0.000 A 
ATOM      7  C   UNL     1     111.484 127.173 136.161  0.00  0.00    +0.000 A 
ATOM      8  C   UNL     1     111.897 128.148 137.119  0.00  0.00    +0.000 A 
ATOM      9  C   UNL     1     112.006 127.419 136.749  0.00  0.00    +0.000 A 
ATOM     10  C   UNL     1     111.586 126.416 135.767  0.00  0.00    +0.000 A 
ATOM     11  C   UNL     1     112.243 125.908 135.990  0.00  0.00    +0.000 A 
ATOM     12  C   UNL     1     112.787 126.164 136.603  0.00  0.00    +0.000 A 
ENDROOT
BRANCH   4  17
ATOM     13  O   UNL     1     110.210 129.433 135.500  0.00  0.00    +0.000 OA
ATOM     14  O   UNL     1     109.282 128.225 137.063  0.00  0.00    +0.000 OA
ATOM     15  O   UNL     1     108.019 129.193 136.626  0.00  0.00    +0.000 OA
ATOM     16  O   UNL     1     108.216 130.321 135.438  0.00  0.00    +0.000 OA
ATOM     17  C   UNL     1     110.111 128.868 136.094  0.00  0.00    +0.000 C 
ATOM     18  C   UNL     1     109.380 128.788 136.470  0.00  0.00    +0.000 C 
ATOM     19  C   UNL     1     108.749 129.273 136.251  0.00  0.00    +0.000 C 
ATOM     20  C   UNL     1     108.848 129.836 135.657  0.00  0.00    +0.000 C 
ATOM     21  C   UNL     1     109.578 129.916 135.282  0.00  0.00    +0.000 C 
BRANCH  21  23
ATOM     22  O   UNL     1     110.139 131.149 134.827  0.00  0.00    +0.000 OA
ATOM     23  C   UNL     1     109.677 130.480 134.687  0.00  0.00    +0.000 C 
ENDBRANCH  21  23
ENDBRANCH   4  17
BRANCH  12  24
ATOM     24  C   UNL     1     113.420 125.683 136.824  0.00  0.00    +0.000 A 
ATOM     25  C   UNL     1     114.167 125.806 136.495  0.00  0.00    +0.000 A 
ATOM     26  C   UNL     1     113.307 125.078 137.373  0.00  0.00    +0.000 A 
ATOM     27  C   UNL     1     114.800 125.325 136.716  0.00  0.00    +0.000 A 
ATOM     28  C   UNL     1     113.939 124.597 137.594  0.00  0.00    +0.000 A 
ATOM     29  C   UNL     1     114.685 124.720 137.266  0.00  0.00    +0.000 A 
ENDBRANCH  12  24
BRANCH   5  30
ATOM     30  O   UNL     1     111.156 129.360 137.272  0.00  0.00    +0.000 OA
BRANCH  30  37
ATOM     31  O   UNL     1     112.418 129.992 137.049  0.00  0.00    +0.000 OA
ATOM     32  O   UNL     1     111.234 129.767 138.869  0.00  0.00    +0.000 OA
ATOM     33  O   UNL     1     112.535 130.603 139.445  0.00  0.00    +0.000 OA
ATOM     34  O   UNL     1     113.757 131.031 138.424  0.00  0.00    +0.000 OA
ATOM     35  C   UNL     1     111.845 129.981 138.358  0.00  0.00    +0.000 C 
ATOM     36  C   UNL     1     112.496 130.399 138.647  0.00  0.00    +0.000 C 
ATOM     37  C   UNL     1     111.806 129.778 137.560  0.00  0.00    +0.000 C 
ATOM     38  C   UNL     1     113.107 130.613 138.136  0.00  0.00    +0.000 C 
ATOM     39  C   UNL     1     113.068 130.410 137.337  0.00  0.00    +0.000 C 
BRANCH  39  42
ATOM     40  O   UNL     1     113.615 131.306 136.368  0.00  0.00    +0.000 OA
ATOM     41  O   UNL     1     114.357 130.156 136.776  0.00  0.00    +0.000 OA
ATOM     42  C   UNL     1     113.680 130.624 136.827  0.00  0.00    +0.000 C 
ENDBRANCH  39  42
ENDBRANCH  30  37
ENDBRANCH   5  30
TORSDOF 6
ENDMDL
MODEL 4
REMARK VINA RESULT:     -10.2      2.423      3.567
REMARK  Name = 131833495
REMARK  6 active torsions:
REMARK  status: ('A' for Active; 'I' for Inactive)
REMARK    1  A    between atoms: O_2  and  C_24
REMARK    2  A    between atoms: O_2  and  C_27
REMARK    3  A    between atoms: C_16  and  C_21
REMARK    4  A    between atoms: C_20  and  C_26
REMARK    5  A    between atoms: C_28  and  C_33
REMARK    6  A    between atoms: C_36  and  C_37
REMARK                            x       y       z     vdW  Elec       q    Type
REMARK                         _______ _______ _______ _____ _____    ______ ____
ROOT
ATOM      1  O   UNL     1     110.772 126.365 139.528  0.00  0.00    +0.000 OA
ATOM      2  O   UNL     1     113.422 126.614 138.393  0.00  0.00    +0.000 OA
ATOM      3  O   UNL     1     111.215 125.384 138.567  0.00  0.00    +0.000 OA
ATOM      4  C   UNL     1     111.616 127.448 139.922  0.00  0.00    +0.000 A 
ATOM      5  C   UNL     1     112.335 127.851 139.868  0.00  0.00    +0.000 A 
ATOM      6  C   UNL     1     111.489 126.767 139.473  0.00  0.00    +0.000 A 
ATOM      7  C   UNL     1     112.081 126.491 138.969  0.00  0.00    +0.000 A 
ATOM      8  C   UNL     1     112.925 127.573 139.363  0.00  0.00    +0.000 A 
ATOM      9  C   UNL     1     112.798 126.893 138.914  0.00  0.00    +0.000 A 
ATOM     10  C   UNL     1     111.936 125.781 138.506  0.00  0.00    +0.000 A 
ATOM     11  C   UNL     1     112.548 125.487 137.979  0.00  0.00    +0.000 A 
ATOM     12  C   UNL     1     113.296 125.906 137.922  0.00  0.00    +0.000 A 
ENDROOT
BRANCH   4  17
ATOM     13  O   UNL     1     110.479 128.282 140.155  0.00  0.00    +0.000 OA
ATOM     14  O   UNL     1     111.525 126.892 141.473  0.00  0.00    +0.000 OA
ATOM     15  O   UNL     1     110.343 127.448 142.481  0.00  0.00    +0.000 OA
ATOM     16  O   UNL     1     109.252 128.561 141.938  0.00  0.00    +0.000 OA
ATOM     17  C   UNL     1     111.025 127.725 140.427  0.00  0.00    +0.000 C 
ATOM     18  C   UNL     1     110.980 127.448 141.202  0.00  0.00    +0.000 C 
ATOM     19  C   UNL     1     110.388 127.726 141.706  0.00  0.00    +0.000 C 
ATOM     20  C   UNL     1     109.843 128.282 141.434  0.00  0.00    +0.000 C 
ATOM     21  C   UNL     1     109.889 128.560 140.659  0.00  0.00    +0.000 C 
BRANCH  21  23
ATOM     22  O   UNL     1     109.033 129.051 139.625  0.00  0.00    +0.000 OA
ATOM     23  C   UNL     1     109.343 129.116 140.387  0.00  0.00    +0.000 C 
ENDBRANCH  21  23
ENDBRANCH   4  17
BRANCH  12  24
ATOM     24  C   UNL     1     113.889 125.631 137.419  0.00  0.00    +0.000 A 
ATOM     25  C   UNL     1     113.993 125.975 136.676  0.00  0.00    +0.000 A 
ATOM     26  C   UNL     1     114.378 125.012 137.658  0.00  0.00    +0.000 A 
ATOM     27  C   UNL     1     114.586 125.700 136.173  0.00  0.00    +0.000 A 
ATOM     28  C   UNL     1     114.971 124.736 137.155  0.00  0.00    +0.000 A 
ATOM     29  C   UNL     1     115.075 125.080 136.413  0.00  0.00    +0.000 A 
ENDBRANCH  12  24
BRANCH   5  30
ATOM     30  O   UNL     1     112.461 128.531 140.317  0.00  0.00    +0.000 OA
BRANCH  30  37
ATOM     31  O   UNL     1     112.746 129.503 139.310  0.00  0.00    +0.000 OA
ATOM     32  O   UNL     1     113.799 129.009 141.157  0.00  0.00    +0.000 OA
ATOM     33  O   UNL     1     114.753 130.220 140.569  0.00  0.00    +0.000 OA
ATOM     34  O   UNL     1     114.369 130.953 139.142  0.00  0.00    +0.000 OA
ATOM     35  C   UNL     1     113.607 129.375 140.443  0.00  0.00    +0.000 C 
ATOM     36  C   UNL     1     114.084 129.981 140.149  0.00  0.00    +0.000 C 
ATOM     37  C   UNL     1     112.938 129.136 140.023  0.00  0.00    +0.000 C 
ATOM     38  C   UNL     1     113.892 130.347 139.435  0.00  0.00    +0.000 C 
ATOM     39  C   UNL     1     113.223 130.108 139.016  0.00  0.00    +0.000 C 
BRANCH  39  42
ATOM     40  O   UNL     1     113.419 130.256 137.608  0.00  0.00    +0.000 OA
ATOM     41  O   UNL     1     112.451 131.061 138.283  0.00  0.00    +0.000 OA
ATOM     42  C   UNL     1     113.031 130.475 138.303  0.00  0.00    +0.000 C 
ENDBRANCH  39  42
ENDBRANCH  30  37
ENDBRANCH   5  30
TORSDOF 6
ENDMDL
MODEL 5
REMARK VINA RESULT:     -10.1      2.533      3.637
REMARK  Name = 131833495
REMARK  6 active torsions:
REMARK  status: ('A' for Active; 'I' for Inactive)
REMARK    1  A    between atoms: O_2  and  C_24
REMARK    2  A    between atoms: O_2  and  C_27
REMARK    3  A    between atoms: C_16  and  C_21
REMARK    4  A    between atoms: C_20  and  C_26
REMARK    5  A    between atoms: C_28  and  C_33
REMARK    6  A    between atoms: C_36  and  C_37
REMARK                            x       y       z     vdW  Elec       q    Type
REMARK                         _______ _______ _______ _____ _____    ______ ____
ROOT
ATOM      1  O   UNL     1     111.604 129.193 137.284  0.00  0.00    +0.000 OA
ATOM      2  O   UNL     1     112.306 126.432 137.788  0.00  0.00    +0.000 OA
ATOM      3  O   UNL     1     112.825 128.669 136.722  0.00  0.00    +0.000 OA
ATOM      4  C   UNL     1     110.745 128.375 138.079  0.00  0.00    +0.000 A 
ATOM      5  C   UNL     1     110.573 127.646 138.428  0.00  0.00    +0.000 A 
ATOM      6  C   UNL     1     111.432 128.466 137.632  0.00  0.00    +0.000 A 
ATOM      7  C   UNL     1     111.948 127.829 137.535  0.00  0.00    +0.000 A 
ATOM      8  C   UNL     1     111.089 127.011 138.330  0.00  0.00    +0.000 A 
ATOM      9  C   UNL     1     111.777 127.102 137.883  0.00  0.00    +0.000 A 
ATOM     10  C   UNL     1     112.660 127.938 137.067  0.00  0.00    +0.000 A 
ATOM     11  C   UNL     1     113.202 127.279 136.961  0.00  0.00    +0.000 A 
ATOM     12  C   UNL     1     113.023 126.521 137.324  0.00  0.00    +0.000 A 
ENDROOT
BRANCH   4  17
ATOM     13  O   UNL     1     110.299 129.500 138.839  0.00  0.00    +0.000 OA
ATOM     14  O   UNL     1     109.572 128.668 136.956  0.00  0.00    +0.000 OA
ATOM     15  O   UNL     1     108.540 129.940 137.155  0.00  0.00    +0.000 OA
ATOM     16  O   UNL     1     108.681 130.919 138.476  0.00  0.00    +0.000 OA
ATOM     17  C   UNL     1     110.229 129.011 138.178  0.00  0.00    +0.000 C 
ATOM     18  C   UNL     1     109.642 129.157 137.616  0.00  0.00    +0.000 C 
ATOM     19  C   UNL     1     109.126 129.794 137.716  0.00  0.00    +0.000 C 
ATOM     20  C   UNL     1     109.197 130.283 138.376  0.00  0.00    +0.000 C 
ATOM     21  C   UNL     1     109.783 130.136 138.937  0.00  0.00    +0.000 C 
BRANCH  21  23
ATOM     22  O   UNL     1     110.572 130.673 140.001  0.00  0.00    +0.000 OA
ATOM     23  C   UNL     1     109.854 130.626 139.598  0.00  0.00    +0.000 C 
ENDBRANCH  21  23
ENDBRANCH   4  17
BRANCH  12  24
ATOM     24  C   UNL     1     113.537 125.883 137.228  0.00  0.00    +0.000 A 
ATOM     25  C   UNL     1     113.473 125.397 136.564  0.00  0.00    +0.000 A 
ATOM     26  C   UNL     1     114.117 125.731 137.795  0.00  0.00    +0.000 A 
ATOM     27  C   UNL     1     113.987 124.759 136.468  0.00  0.00    +0.000 A 
ATOM     28  C   UNL     1     114.631 125.094 137.699  0.00  0.00    +0.000 A 
ATOM     29  C   UNL     1     114.566 124.607 137.036  0.00  0.00    +0.000 A 
ENDBRANCH  12  24
BRANCH   5  30
ATOM     30  O   UNL     1     109.885 127.555 138.875  0.00  0.00    +0.000 OA
BRANCH  30  37
ATOM     31  O   UNL     1     110.426 127.130 140.128  0.00  0.00    +0.000 OA
ATOM     32  O   UNL     1     108.772 126.340 138.943  0.00  0.00    +0.000 OA
ATOM     33  O   UNL     1     108.755 125.306 140.229  0.00  0.00    +0.000 OA
ATOM     34  O   UNL     1     109.852 125.489 141.447  0.00  0.00    +0.000 OA
ATOM     35  C   UNL     1     109.320 126.431 139.552  0.00  0.00    +0.000 C 
ATOM     36  C   UNL     1     109.312 125.914 140.195  0.00  0.00    +0.000 C 
ATOM     37  C   UNL     1     109.877 127.039 139.518  0.00  0.00    +0.000 C 
ATOM     38  C   UNL     1     109.861 126.006 140.804  0.00  0.00    +0.000 C 
ATOM     39  C   UNL     1     110.418 126.613 140.770  0.00  0.00    +0.000 C 
BRANCH  39  42
ATOM     40  O   UNL     1     110.842 127.272 141.966  0.00  0.00    +0.000 OA
ATOM     41  O   UNL     1     111.639 126.228 141.403  0.00  0.00    +0.000 OA
ATOM     42  C   UNL     1     110.966 126.704 141.379  0.00  0.00    +0.000 C 
ENDBRANCH  39  42
ENDBRANCH  30  37
ENDBRANCH   5  30
TORSDOF 6
ENDMDL
MODEL 6
REMARK VINA RESULT:     -10.1      1.887      4.910
REMARK  Name = 131833495
REMARK  6 active torsions:
REMARK  status: ('A' for Active; 'I' for Inactive)
REMARK    1  A    between atoms: O_2  and  C_24
REMARK    2  A    between atoms: O_2  and  C_27
REMARK    3  A    between atoms: C_16  and  C_21
REMARK    4  A    between atoms: C_20  and  C_26
REMARK    5  A    between atoms: C_28  and  C_33
REMARK    6  A    between atoms: C_36  and  C_37
REMARK                            x       y       z     vdW  Elec       q    Type
REMARK                         _______ _______ _______ _____ _____    ______ ____
ROOT
ATOM      1  O   UNL     1     113.585 126.004 139.354  0.00  0.00    +0.000 OA
ATOM      2  O   UNL     1     113.441 128.894 139.424  0.00  0.00    +0.000 OA
ATOM      3  O   UNL     1     114.093 126.701 140.511  0.00  0.00    +0.000 OA
ATOM      4  C   UNL     1     113.017 126.715 138.253  0.00  0.00    +0.000 A 
ATOM      5  C   UNL     1     112.803 127.428 137.896  0.00  0.00    +0.000 A 
ATOM      6  C   UNL     1     113.372 126.716 138.998  0.00  0.00    +0.000 A 
ATOM      7  C   UNL     1     113.513 127.431 139.386  0.00  0.00    +0.000 A 
ATOM      8  C   UNL     1     112.945 128.142 138.285  0.00  0.00    +0.000 A 
ATOM      9  C   UNL     1     113.299 128.143 139.030  0.00  0.00    +0.000 A 
ATOM     10  C   UNL     1     113.883 127.419 140.161  0.00  0.00    +0.000 A 
ATOM     11  C   UNL     1     114.033 128.159 140.571  0.00  0.00    +0.000 A 
ATOM     12  C   UNL     1     113.810 128.901 140.199  0.00  0.00    +0.000 A 
ENDROOT
BRANCH   4  17
ATOM     13  O   UNL     1     113.442 125.693 137.349  0.00  0.00    +0.000 OA
ATOM     14  O   UNL     1     111.603 125.903 138.505  0.00  0.00    +0.000 OA
ATOM     15  O   UNL     1     111.321 124.476 137.727  0.00  0.00    +0.000 OA
ATOM     16  O   UNL     1     112.454 123.860 136.697  0.00  0.00    +0.000 OA
ATOM     17  C   UNL     1     112.876 126.001 137.865  0.00  0.00    +0.000 C 
ATOM     18  C   UNL     1     112.168 125.595 137.991  0.00  0.00    +0.000 C 
ATOM     19  C   UNL     1     112.028 124.881 137.601  0.00  0.00    +0.000 C 
ATOM     20  C   UNL     1     112.594 124.574 137.087  0.00  0.00    +0.000 C 
ATOM     21  C   UNL     1     113.301 124.980 136.961  0.00  0.00    +0.000 C 
BRANCH  21  23
ATOM     22  O   UNL     1     114.574 125.079 136.319  0.00  0.00    +0.000 OA
ATOM     23  C   UNL     1     113.868 124.672 136.445  0.00  0.00    +0.000 C 
ENDBRANCH  21  23
ENDBRANCH   4  17
BRANCH  12  24
ATOM     24  C   UNL     1     113.950 129.617 140.585  0.00  0.00    +0.000 A 
ATOM     25  C   UNL     1     113.399 129.911 141.124  0.00  0.00    +0.000 A 
ATOM     26  C   UNL     1     114.642 130.040 140.433  0.00  0.00    +0.000 A 
ATOM     27  C   UNL     1     113.539 130.627 141.510  0.00  0.00    +0.000 A 
ATOM     28  C   UNL     1     114.783 130.755 140.818  0.00  0.00    +0.000 A 
ATOM     29  C   UNL     1     114.232 131.049 141.357  0.00  0.00    +0.000 A 
ENDBRANCH  12  24
BRANCH   5  30
ATOM     30  O   UNL     1     112.449 127.427 137.151  0.00  0.00    +0.000 OA
BRANCH  30  37
ATOM     31  O   UNL     1     113.377 128.223 136.412  0.00  0.00    +0.000 OA
ATOM     32  O   UNL     1     111.197 128.290 136.509  0.00  0.00    +0.000 OA
ATOM     33  O   UNL     1     111.500 129.517 135.449  0.00  0.00    +0.000 OA
ATOM     34  O   UNL     1     113.054 129.881 135.031  0.00  0.00    +0.000 OA
ATOM     35  C   UNL     1     111.974 128.471 136.301  0.00  0.00    +0.000 C 
ATOM     36  C   UNL     1     112.126 129.086 135.770  0.00  0.00    +0.000 C 
ATOM     37  C   UNL     1     112.600 128.040 136.622  0.00  0.00    +0.000 C 
ATOM     38  C   UNL     1     112.903 129.267 135.561  0.00  0.00    +0.000 C 
ATOM     39  C   UNL     1     113.529 128.836 135.882  0.00  0.00    +0.000 C 
BRANCH  39  42
ATOM     40  O   UNL     1     114.671 129.687 135.988  0.00  0.00    +0.000 OA
ATOM     41  O   UNL     1     114.716 128.531 135.149  0.00  0.00    +0.000 OA
ATOM     42  C   UNL     1     114.305 129.018 135.674  0.00  0.00    +0.000 C 
ENDBRANCH  39  42
ENDBRANCH  30  37
ENDBRANCH   5  30
TORSDOF 6
ENDMDL
MODEL 7
REMARK VINA RESULT:     -10.0      1.757      4.191
REMARK  Name = 131833495
REMARK  6 active torsions:
REMARK  status: ('A' for Active; 'I' for Inactive)
REMARK    1  A    between atoms: O_2  and  C_24
REMARK    2  A    between atoms: O_2  and  C_27
REMARK    3  A    between atoms: C_16  and  C_21
REMARK    4  A    between atoms: C_20  and  C_26
REMARK    5  A    between atoms: C_28  and  C_33
REMARK    6  A    between atoms: C_36  and  C_37
REMARK                            x       y       z     vdW  Elec       q    Type
REMARK                         _______ _______ _______ _____ _____    ______ ____
ROOT
ATOM      1  O   UNL     1     113.876 128.058 140.856  0.00  0.00    +0.000 OA
ATOM      2  O   UNL     1     113.133 127.127 138.218  0.00  0.00    +0.000 OA
ATOM      3  O   UNL     1     114.254 126.725 140.453  0.00  0.00    +0.000 OA
ATOM      4  C   UNL     1     113.147 128.916 139.978  0.00  0.00    +0.000 A 
ATOM      5  C   UNL     1     112.780 129.051 139.250  0.00  0.00    +0.000 A 
ATOM      6  C   UNL     1     113.510 128.191 140.129  0.00  0.00    +0.000 A 
ATOM      7  C   UNL     1     113.508 127.601 139.553  0.00  0.00    +0.000 A 
ATOM      8  C   UNL     1     112.779 128.459 138.675  0.00  0.00    +0.000 A 
ATOM      9  C   UNL     1     113.143 127.735 138.826  0.00  0.00    +0.000 A 
ATOM     10  C   UNL     1     113.890 126.851 139.723  0.00  0.00    +0.000 A 
ATOM     11  C   UNL     1     113.892 126.231 139.127  0.00  0.00    +0.000 A 
ATOM     12  C   UNL     1     113.511 126.371 138.370  0.00  0.00    +0.000 A 
ENDROOT
BRANCH   4  17
ATOM     13  O   UNL     1     112.525 129.560 141.091  0.00  0.00    +0.000 OA
ATOM     14  O   UNL     1     114.396 129.992 140.053  0.00  0.00    +0.000 OA
ATOM     15  O   UNL     1     114.398 131.174 141.204  0.00  0.00    +0.000 OA
ATOM     16  O   UNL     1     113.151 131.280 142.280  0.00  0.00    +0.000 OA
ATOM     17  C   UNL     1     113.148 129.507 140.553  0.00  0.00    +0.000 C 
ATOM     18  C   UNL     1     113.773 130.045 140.591  0.00  0.00    +0.000 C 
ATOM     19  C   UNL     1     113.773 130.636 141.167  0.00  0.00    +0.000 C 
ATOM     20  C   UNL     1     113.151 130.689 141.704  0.00  0.00    +0.000 C 
ATOM     21  C   UNL     1     112.526 130.151 141.667  0.00  0.00    +0.000 C 
BRANCH  21  23
ATOM     22  O   UNL     1     111.280 129.665 142.168  0.00  0.00    +0.000 OA
ATOM     23  C   UNL     1     111.902 130.205 142.205  0.00  0.00    +0.000 C 
ENDBRANCH  21  23
ENDBRANCH   4  17
BRANCH  12  24
ATOM     24  C   UNL     1     113.507 125.782 137.792  0.00  0.00    +0.000 A 
ATOM     25  C   UNL     1     112.846 125.296 137.701  0.00  0.00    +0.000 A 
ATOM     26  C   UNL     1     114.165 125.677 137.306  0.00  0.00    +0.000 A 
ATOM     27  C   UNL     1     112.843 124.707 137.123  0.00  0.00    +0.000 A 
ATOM     28  C   UNL     1     114.162 125.089 136.728  0.00  0.00    +0.000 A 
ATOM     29  C   UNL     1     113.501 124.603 136.636  0.00  0.00    +0.000 A 
ENDBRANCH  12  24
BRANCH   5  30
ATOM     30  O   UNL     1     112.417 129.775 139.099  0.00  0.00    +0.000 OA
BRANCH  30  37
ATOM     31  O   UNL     1     111.075 129.366 138.829  0.00  0.00    +0.000 OA
ATOM     32  O   UNL     1     112.400 130.722 137.747  0.00  0.00    +0.000 OA
ATOM     33  O   UNL     1     111.049 130.785 136.802  0.00  0.00    +0.000 OA
ATOM     34  O   UNL     1     109.716 129.903 137.207  0.00  0.00    +0.000 OA
ATOM     35  C   UNL     1     111.733 130.280 137.951  0.00  0.00    +0.000 C 
ATOM     36  C   UNL     1     111.057 130.312 137.477  0.00  0.00    +0.000 C 
ATOM     37  C   UNL     1     111.742 129.807 138.626  0.00  0.00    +0.000 C 
ATOM     38  C   UNL     1     110.391 129.870 137.681  0.00  0.00    +0.000 C 
ATOM     39  C   UNL     1     110.400 129.397 138.356  0.00  0.00    +0.000 C 
BRANCH  39  42
ATOM     40  O   UNL     1     109.579 128.241 138.177  0.00  0.00    +0.000 OA
ATOM     41  O   UNL     1     109.220 129.229 139.144  0.00  0.00    +0.000 OA
ATOM     42  C   UNL     1     109.733 128.956 138.559  0.00  0.00    +0.000 C 
ENDBRANCH  39  42
ENDBRANCH  30  37
ENDBRANCH   5  30
TORSDOF 6
ENDMDL
MODEL 8
REMARK VINA RESULT:     -10.0      2.111      5.031
REMARK  Name = 131833495
REMARK  6 active torsions:
REMARK  status: ('A' for Active; 'I' for Inactive)
REMARK    1  A    between atoms: O_2  and  C_24
REMARK    2  A    between atoms: O_2  and  C_27
REMARK    3  A    between atoms: C_16  and  C_21
REMARK    4  A    between atoms: C_20  and  C_26
REMARK    5  A    between atoms: C_28  and  C_33
REMARK    6  A    between atoms: C_36  and  C_37
REMARK                            x       y       z     vdW  Elec       q    Type
REMARK                         _______ _______ _______ _____ _____    ______ ____
ROOT
ATOM      1  O   UNL     1     112.690 126.886 135.956  0.00  0.00    +0.000 OA
ATOM      2  O   UNL     1     111.757 129.017 137.677  0.00  0.00    +0.000 OA
ATOM      3  O   UNL     1     112.482 128.199 135.393  0.00  0.00    +0.000 OA
ATOM      4  C   UNL     1     112.444 126.628 137.339  0.00  0.00    +0.000 A 
ATOM      5  C   UNL     1     112.208 126.892 138.085  0.00  0.00    +0.000 A 
ATOM      6  C   UNL     1     112.455 127.150 136.701  0.00  0.00    +0.000 A 
ATOM      7  C   UNL     1     112.229 127.937 136.808  0.00  0.00    +0.000 A 
ATOM      8  C   UNL     1     111.984 127.678 138.191  0.00  0.00    +0.000 A 
ATOM      9  C   UNL     1     111.994 128.201 137.553  0.00  0.00    +0.000 A 
ATOM     10  C   UNL     1     112.245 128.471 136.135  0.00  0.00    +0.000 A 
ATOM     11  C   UNL     1     112.012 129.291 136.240  0.00  0.00    +0.000 A 
ATOM     12  C   UNL     1     111.766 129.566 137.016  0.00  0.00    +0.000 A 
ENDROOT
BRANCH   4  17
ATOM     13  O   UNL     1     113.458 125.621 137.335  0.00  0.00    +0.000 OA
ATOM     14  O   UNL     1     111.318 125.496 136.922  0.00  0.00    +0.000 OA
ATOM     15  O   UNL     1     111.769 123.923 136.710  0.00  0.00    +0.000 OA
ATOM     16  O   UNL     1     113.346 123.482 136.914  0.00  0.00    +0.000 OA
ATOM     17  C   UNL     1     112.669 125.841 137.232  0.00  0.00    +0.000 C 
ATOM     18  C   UNL     1     112.106 125.275 137.024  0.00  0.00    +0.000 C 
ATOM     19  C   UNL     1     112.332 124.489 136.918  0.00  0.00    +0.000 C 
ATOM     20  C   UNL     1     113.120 124.268 137.020  0.00  0.00    +0.000 C 
ATOM     21  C   UNL     1     113.683 124.834 137.228  0.00  0.00    +0.000 C 
BRANCH  21  23
ATOM     22  O   UNL     1     114.980 125.094 137.768  0.00  0.00    +0.000 OA
ATOM     23  C   UNL     1     114.472 124.614 137.331  0.00  0.00    +0.000 C 
ENDBRANCH  21  23
ENDBRANCH   4  17
BRANCH  12  24
ATOM     24  C   UNL     1     111.541 130.352 137.126  0.00  0.00    +0.000 A 
ATOM     25  C   UNL     1     110.741 130.553 137.154  0.00  0.00    +0.000 A 
ATOM     26  C   UNL     1     112.115 130.938 137.208  0.00  0.00    +0.000 A 
ATOM     27  C   UNL     1     110.515 131.339 137.264  0.00  0.00    +0.000 A 
ATOM     28  C   UNL     1     111.891 131.724 137.318  0.00  0.00    +0.000 A 
ATOM     29  C   UNL     1     111.091 131.925 137.346  0.00  0.00    +0.000 A 
ENDBRANCH  12  24
BRANCH   5  30
ATOM     30  O   UNL     1     112.198 126.369 138.723  0.00  0.00    +0.000 OA
BRANCH  30  37
ATOM     31  O   UNL     1     113.082 127.012 139.643  0.00  0.00    +0.000 OA
ATOM     32  O   UNL     1     111.083 126.181 139.925  0.00  0.00    +0.000 OA
ATOM     33  O   UNL     1     111.410 126.731 141.446  0.00  0.00    +0.000 OA
ATOM     34  O   UNL     1     112.851 127.467 141.765  0.00  0.00    +0.000 OA
ATOM     35  C   UNL     1     111.804 126.550 140.084  0.00  0.00    +0.000 C 
ATOM     36  C   UNL     1     111.967 126.825 140.845  0.00  0.00    +0.000 C 
ATOM     37  C   UNL     1     112.361 126.644 139.483  0.00  0.00    +0.000 C 
ATOM     38  C   UNL     1     112.688 127.193 141.004  0.00  0.00    +0.000 C 
ATOM     39  C   UNL     1     113.245 127.287 140.403  0.00  0.00    +0.000 C 
BRANCH  39  42
ATOM     40  O   UNL     1     114.017 128.479 140.565  0.00  0.00    +0.000 OA
ATOM     41  O   UNL     1     114.635 127.200 140.721  0.00  0.00    +0.000 OA
ATOM     42  C   UNL     1     113.965 127.655 140.563  0.00  0.00    +0.000 C 
ENDBRANCH  39  42
ENDBRANCH  30  37
ENDBRANCH   5  30
TORSDOF 6
ENDMDL
MODEL 9
REMARK VINA RESULT:     -10.0      1.058      1.466
REMARK  Name = 131833495
REMARK  6 active torsions:
REMARK  status: ('A' for Active; 'I' for Inactive)
REMARK    1  A    between atoms: O_2  and  C_24
REMARK    2  A    between atoms: O_2  and  C_27
REMARK    3  A    between atoms: C_16  and  C_21
REMARK    4  A    between atoms: C_20  and  C_26
REMARK    5  A    between atoms: C_28  and  C_33
REMARK    6  A    between atoms: C_36  and  C_37
REMARK                            x       y       z     vdW  Elec       q    Type
REMARK                         _______ _______ _______ _____ _____    ______ ____
ROOT
ATOM      1  O   UNL     1     110.724 128.272 136.480  0.00  0.00    +0.000 OA
ATOM      2  O   UNL     1     113.304 127.315 137.373  0.00  0.00    +0.000 OA
ATOM      3  O   UNL     1     111.175 126.972 136.046  0.00  0.00    +0.000 OA
ATOM      4  C   UNL     1     111.526 129.085 137.337  0.00  0.00    +0.000 A 
ATOM      5  C   UNL     1     112.219 129.200 137.770  0.00  0.00    +0.000 A 
ATOM      6  C   UNL     1     111.416 128.386 136.913  0.00  0.00    +0.000 A 
ATOM      7  C   UNL     1     111.998 127.802 136.923  0.00  0.00    +0.000 A 
ATOM      8  C   UNL     1     112.801 128.615 137.779  0.00  0.00    +0.000 A 
ATOM      9  C   UNL     1     112.690 127.916 137.356  0.00  0.00    +0.000 A 
ATOM     10  C   UNL     1     111.871 127.079 136.477  0.00  0.00    +0.000 A 
ATOM     11  C   UNL     1     112.473 126.465 136.483  0.00  0.00    +0.000 A 
ATOM     12  C   UNL     1     113.195 126.585 136.934  0.00  0.00    +0.000 A 
ENDROOT
BRANCH   4  17
ATOM     13  O   UNL     1     110.364 129.683 137.915  0.00  0.00    +0.000 OA
ATOM     14  O   UNL     1     111.522 130.228 136.146  0.00  0.00    +0.000 OA
ATOM     15  O   UNL     1     110.358 131.397 136.129  0.00  0.00    +0.000 OA
ATOM     16  O   UNL     1     109.198 131.424 137.303  0.00  0.00    +0.000 OA
ATOM     17  C   UNL     1     110.945 129.670 137.328  0.00  0.00    +0.000 C 
ATOM     18  C   UNL     1     110.942 130.241 136.732  0.00  0.00    +0.000 C 
ATOM     19  C   UNL     1     110.360 130.826 136.724  0.00  0.00    +0.000 C 
ATOM     20  C   UNL     1     109.781 130.840 137.311  0.00  0.00    +0.000 C 
ATOM     21  C   UNL     1     109.783 130.268 137.906  0.00  0.00    +0.000 C 
BRANCH  21  23
ATOM     22  O   UNL     1     108.881 129.574 138.770  0.00  0.00    +0.000 OA
ATOM     23  C   UNL     1     109.203 130.282 138.493  0.00  0.00    +0.000 C 
ENDBRANCH  21  23
ENDBRANCH   4  17
BRANCH  12  24
ATOM     24  C   UNL     1     113.778 126.002 136.945  0.00  0.00    +0.000 A 
ATOM     25  C   UNL     1     113.812 125.462 137.568  0.00  0.00    +0.000 A 
ATOM     26  C   UNL     1     114.330 125.958 136.333  0.00  0.00    +0.000 A 
ATOM     27  C   UNL     1     114.396 124.879 137.580  0.00  0.00    +0.000 A 
ATOM     28  C   UNL     1     114.913 125.376 136.343  0.00  0.00    +0.000 A 
ATOM     29  C   UNL     1     114.947 124.836 136.967  0.00  0.00    +0.000 A 
ENDBRANCH  12  24
BRANCH   5  30
ATOM     30  O   UNL     1     112.330 129.899 138.194  0.00  0.00    +0.000 OA
BRANCH  30  37
ATOM     31  O   UNL     1     112.588 129.381 139.501  0.00  0.00    +0.000 OA
ATOM     32  O   UNL     1     113.616 130.922 138.346  0.00  0.00    +0.000 OA
ATOM     33  O   UNL     1     114.517 130.915 139.729  0.00  0.00    +0.000 OA
ATOM     34  O   UNL     1     114.131 129.885 140.958  0.00  0.00    +0.000 OA
ATOM     35  C   UNL     1     113.423 130.407 138.961  0.00  0.00    +0.000 C 
ATOM     36  C   UNL     1     113.874 130.403 139.653  0.00  0.00    +0.000 C 
ATOM     37  C   UNL     1     112.780 129.896 138.885  0.00  0.00    +0.000 C 
ATOM     38  C   UNL     1     113.680 129.888 140.267  0.00  0.00    +0.000 C 
ATOM     39  C   UNL     1     113.037 129.377 140.191  0.00  0.00    +0.000 C 
BRANCH  39  42
ATOM     40  O   UNL     1     113.281 128.172 140.919  0.00  0.00    +0.000 OA
ATOM     41  O   UNL     1     112.216 129.039 141.310  0.00  0.00    +0.000 OA
ATOM     42  C   UNL     1     112.845 128.863 140.806  0.00  0.00    +0.000 C 
ENDBRANCH  39  42
ENDBRANCH  30  37
ENDBRANCH   5  30
TORSDOF 6
ENDMDL
MODEL 10
REMARK VINA RESULT:     -10.0      1.749      3.545
REMARK  Name = 131833495
REMARK  6 active torsions:
REMARK  status: ('A' for Active; 'I' for Inactive)
REMARK    1  A    between atoms: O_2  and  C_24
REMARK    2  A    between atoms: O_2  and  C_27
REMARK    3  A    between atoms: C_16  and  C_21
REMARK    4  A    between atoms: C_20  and  C_26
REMARK    5  A    between atoms: C_28  and  C_33
REMARK    6  A    between atoms: C_36  and  C_37
REMARK                            x       y       z     vdW  Elec       q    Type
REMARK                         _______ _______ _______ _____ _____    ______ ____
ROOT
ATOM      1  O   UNL     1     111.444 127.825 140.011  0.00  0.00    +0.000 OA
ATOM      2  O   UNL     1     111.999 126.534 137.481  0.00  0.00    +0.000 OA
ATOM      3  O   UNL     1     111.947 126.472 140.013  0.00  0.00    +0.000 OA
ATOM      4  C   UNL     1     111.219 128.529 138.789  0.00  0.00    +0.000 A 
ATOM      5  C   UNL     1     111.235 128.552 137.964  0.00  0.00    +0.000 A 
ATOM      6  C   UNL     1     111.460 127.848 139.187  0.00  0.00    +0.000 A 
ATOM      7  C   UNL     1     111.717 127.190 138.761  0.00  0.00    +0.000 A 
ATOM      8  C   UNL     1     111.492 127.894 137.538  0.00  0.00    +0.000 A 
ATOM      9  C   UNL     1     111.733 127.213 137.937  0.00  0.00    +0.000 A 
ATOM     10  C   UNL     1     111.966 126.487 139.188  0.00  0.00    +0.000 A 
ATOM     11  C   UNL     1     112.235 125.798 138.750  0.00  0.00    +0.000 A 
ATOM     12  C   UNL     1     112.252 125.822 137.891  0.00  0.00    +0.000 A 
ENDROOT
BRANCH   4  17
ATOM     13  O   UNL     1     110.161 129.269 139.402  0.00  0.00    +0.000 OA
ATOM     14  O   UNL     1     112.301 129.679 139.265  0.00  0.00    +0.000 OA
ATOM     15  O   UNL     1     111.785 130.996 140.116  0.00  0.00    +0.000 OA
ATOM     16  O   UNL     1     110.187 131.161 140.491  0.00  0.00    +0.000 OA
ATOM     17  C   UNL     1     110.961 129.187 139.214  0.00  0.00    +0.000 C 
ATOM     18  C   UNL     1     111.503 129.762 139.452  0.00  0.00    +0.000 C 
ATOM     19  C   UNL     1     111.244 130.420 139.878  0.00  0.00    +0.000 C 
ATOM     20  C   UNL     1     110.445 130.503 140.065  0.00  0.00    +0.000 C 
ATOM     21  C   UNL     1     109.904 129.928 139.827  0.00  0.00    +0.000 C 
BRANCH  21  23
ATOM     22  O   UNL     1     108.531 129.664 139.533  0.00  0.00    +0.000 OA
ATOM     23  C   UNL     1     109.104 130.010 140.015  0.00  0.00    +0.000 C 
ENDBRANCH  21  23
ENDBRANCH   4  17
BRANCH  12  24
ATOM     24  C   UNL     1     112.508 125.166 137.463  0.00  0.00    +0.000 A 
ATOM     25  C   UNL     1     111.971 124.579 137.243  0.00  0.00    +0.000 A 
ATOM     26  C   UNL     1     113.303 125.095 137.253  0.00  0.00    +0.000 A 
ATOM     27  C   UNL     1     112.228 123.923 136.815  0.00  0.00    +0.000 A 
ATOM     28  C   UNL     1     113.561 124.439 136.824  0.00  0.00    +0.000 A 
ATOM     29  C   UNL     1     113.023 123.853 136.605  0.00  0.00    +0.000 A 
ENDBRANCH  12  24
BRANCH   5  30
ATOM     30  O   UNL     1     110.993 129.233 137.565  0.00  0.00    +0.000 OA
BRANCH  30  37
ATOM     31  O   UNL     1     109.922 128.755 136.748  0.00  0.00    +0.000 OA
ATOM     32  O   UNL     1     111.684 129.943 136.246  0.00  0.00    +0.000 OA
ATOM     33  O   UNL     1     110.958 129.821 134.769  0.00  0.00    +0.000 OA
ATOM     34  O   UNL     1     109.542 128.989 134.612  0.00  0.00    +0.000 OA
ATOM     35  C   UNL     1     110.976 129.527 136.168  0.00  0.00    +0.000 C 
ATOM     36  C   UNL     1     110.613 129.466 135.429  0.00  0.00    +0.000 C 
ATOM     37  C   UNL     1     110.631 129.172 136.828  0.00  0.00    +0.000 C 
ATOM     38  C   UNL     1     109.905 129.049 135.351  0.00  0.00    +0.000 C 
ATOM     39  C   UNL     1     109.560 128.694 136.011  0.00  0.00    +0.000 C 
BRANCH  39  42
ATOM     40  O   UNL     1     108.134 128.649 136.100  0.00  0.00    +0.000 OA
ATOM     41  O   UNL     1     108.862 127.491 135.685  0.00  0.00    +0.000 OA
ATOM     42  C   UNL     1     108.852 128.278 135.932  0.00  0.00    +0.000 C 
ENDBRANCH  39  42
ENDBRANCH  30  37
ENDBRANCH   5  30
TORSDOF 6
ENDMDL
