MODEL 1
REMARK VINA RESULT:      -8.0      0.000      0.000
REMARK  Name = 42607621
REMARK  7 active torsions:
REMARK  status: ('A' for Active; 'I' for Inactive)
REMARK    1  A    between atoms: O_4  and  C_15
REMARK    2  A    between atoms: O_4  and  C_17
REMARK    3  A    between atoms: O_7  and  C_20
REMARK    4  A    between atoms: C_13  and  C_16
REMARK    5  A    between atoms: C_22  and  C_23
REMARK    6  A    between atoms: C_23  and  C_24
REMARK    7  A    between atoms: C_26  and  C_27
REMARK                            x       y       z     vdW  Elec       q    Type
REMARK                         _______ _______ _______ _____ _____    ______ ____
ROOT
ATOM      1  O   UNL     1     102.944 130.087 140.032  0.00  0.00    +0.000 OA
ATOM      2  C   UNL     1     104.057 128.690 141.984  0.00  0.00    +0.000 A 
ATOM      3  C   UNL     1     103.961 129.326 142.749  0.00  0.00    +0.000 A 
ATOM      4  C   UNL     1     103.717 128.944 141.078  0.00  0.00    +0.000 A 
ATOM      5  C   UNL     1     103.526 130.216 142.609  0.00  0.00    +0.000 A 
ATOM      6  C   UNL     1     103.283 129.833 140.938  0.00  0.00    +0.000 A 
ATOM      7  C   UNL     1     103.187 130.469 141.703  0.00  0.00    +0.000 A 
ENDROOT
BRANCH   5   8
ATOM      8  O   UNL     1     103.430 130.852 143.375  0.00  0.00    +0.000 OA
ATOM      9  C   UNL     1     103.827 130.627 144.264  0.00  0.00    +0.000 C 
ENDBRANCH   5   8
BRANCH   7  11
ATOM     10  O   UNL     1     101.778 131.475 141.757  0.00  0.00    +0.000 OA
ATOM     11  C   UNL     1     102.752 131.359 141.563  0.00  0.00    +0.000 C 
BRANCH  11  12
ATOM     12  C   UNL     1     103.291 132.132 141.229  0.00  0.00    +0.000 C 
ATOM     13  C   UNL     1     102.901 133.052 141.234  0.00  0.00    +0.000 C 
BRANCH  13  15
ATOM     14  O   UNL     1     105.058 136.144 139.896  0.00  0.00    +0.000 OA
ATOM     15  C   UNL     1     103.441 133.825 140.899  0.00  0.00    +0.000 A 
ATOM     16  C   UNL     1     103.739 134.538 141.534  0.00  0.00    +0.000 A 
ATOM     17  C   UNL     1     103.681 133.886 139.931  0.00  0.00    +0.000 A 
ATOM     18  C   UNL     1     104.279 135.311 141.200  0.00  0.00    +0.000 A 
ATOM     19  C   UNL     1     104.220 134.659 139.596  0.00  0.00    +0.000 A 
ATOM     20  C   UNL     1     104.519 135.371 140.231  0.00  0.00    +0.000 A 
ENDBRANCH  13  15
ENDBRANCH  11  12
ENDBRANCH   7  11
BRANCH   2  21
ATOM     21  O   UNL     1     104.491 127.801 142.124  0.00  0.00    +0.000 OA
BRANCH  21  30
ATOM     22  O   UNL     1     106.092 128.391 141.824  0.00  0.00    +0.000 OA
ATOM     23  O   UNL     1     108.438 127.578 142.737  0.00  0.00    +0.000 OA
ATOM     24  O   UNL     1     107.211 126.285 143.644  0.00  0.00    +0.000 OA
ATOM     25  O   UNL     1     105.238 126.397 143.337  0.00  0.00    +0.000 OA
ATOM     26  C   UNL     1     107.451 127.634 142.583  0.00  0.00    +0.000 C 
ATOM     27  C   UNL     1     106.838 126.987 143.037  0.00  0.00    +0.000 C 
ATOM     28  C   UNL     1     107.078 128.336 141.977  0.00  0.00    +0.000 C 
ATOM     29  C   UNL     1     105.851 127.043 142.884  0.00  0.00    +0.000 C 
ATOM     30  C   UNL     1     105.478 127.745 142.277  0.00  0.00    +0.000 C 
BRANCH  28  32
ATOM     31  O   UNL     1     107.321 129.668 140.897  0.00  0.00    +0.000 OA
ATOM     32  C   UNL     1     107.692 128.982 141.523  0.00  0.00    +0.000 C 
ENDBRANCH  28  32
ENDBRANCH  21  30
ENDBRANCH   2  21
TORSDOF 7
ENDMDL
MODEL 2
REMARK VINA RESULT:      -7.9      7.104      9.236
REMARK  Name = 42607621
REMARK  7 active torsions:
REMARK  status: ('A' for Active; 'I' for Inactive)
REMARK    1  A    between atoms: O_4  and  C_15
REMARK    2  A    between atoms: O_4  and  C_17
REMARK    3  A    between atoms: O_7  and  C_20
REMARK    4  A    between atoms: C_13  and  C_16
REMARK    5  A    between atoms: C_22  and  C_23
REMARK    6  A    between atoms: C_23  and  C_24
REMARK    7  A    between atoms: C_26  and  C_27
REMARK                            x       y       z     vdW  Elec       q    Type
REMARK                         _______ _______ _______ _____ _____    ______ ____
ROOT
ATOM      1  O   UNL     1     112.893 129.956 135.255  0.00  0.00    +0.000 OA
ATOM      2  C   UNL     1     113.249 127.863 136.834  0.00  0.00    +0.000 A 
ATOM      3  C   UNL     1     112.742 128.151 137.646  0.00  0.00    +0.000 A 
ATOM      4  C   UNL     1     113.299 128.465 136.037  0.00  0.00    +0.000 A 
ATOM      5  C   UNL     1     112.286 129.041 137.662  0.00  0.00    +0.000 A 
ATOM      6  C   UNL     1     112.843 129.354 136.052  0.00  0.00    +0.000 A 
ATOM      7  C   UNL     1     112.336 129.642 136.864  0.00  0.00    +0.000 A 
ENDROOT
BRANCH   5   8
ATOM      8  O   UNL     1     111.779 129.329 138.474  0.00  0.00    +0.000 OA
ATOM      9  C   UNL     1     111.814 128.777 139.307  0.00  0.00    +0.000 C 
ENDBRANCH   5   8
BRANCH   7  11
ATOM     10  O   UNL     1     112.347 131.327 137.267  0.00  0.00    +0.000 OA
ATOM     11  C   UNL     1     111.880 130.532 136.879  0.00  0.00    +0.000 C 
BRANCH  11  12
ATOM     12  C   UNL     1     110.956 130.627 136.508  0.00  0.00    +0.000 C 
ATOM     13  C   UNL     1     110.484 131.507 136.560  0.00  0.00    +0.000 C 
BRANCH  13  15
ATOM     14  O   UNL     1     106.790 131.885 135.073  0.00  0.00    +0.000 OA
ATOM     15  C   UNL     1     109.560 131.601 136.188  0.00  0.00    +0.000 A 
ATOM     16  C   UNL     1     108.773 131.626 136.804  0.00  0.00    +0.000 A 
ATOM     17  C   UNL     1     109.424 131.671 135.200  0.00  0.00    +0.000 A 
ATOM     18  C   UNL     1     107.850 131.721 136.433  0.00  0.00    +0.000 A 
ATOM     19  C   UNL     1     108.501 131.765 134.828  0.00  0.00    +0.000 A 
ATOM     20  C   UNL     1     107.713 131.790 135.444  0.00  0.00    +0.000 A 
ENDBRANCH  13  15
ENDBRANCH  11  12
ENDBRANCH   7  11
BRANCH   2  21
ATOM     21  O   UNL     1     113.705 126.973 136.819  0.00  0.00    +0.000 OA
BRANCH  21  30
ATOM     22  O   UNL     1     112.296 126.185 136.192  0.00  0.00    +0.000 OA
ATOM     23  O   UNL     1     111.572 123.641 136.232  0.00  0.00    +0.000 OA
ATOM     24  O   UNL     1     113.324 123.551 137.193  0.00  0.00    +0.000 OA
ATOM     25  O   UNL     1     114.390 125.217 137.486  0.00  0.00    +0.000 OA
ATOM     26  C   UNL     1     112.105 124.474 136.379  0.00  0.00    +0.000 C 
ATOM     27  C   UNL     1     112.981 124.429 136.859  0.00  0.00    +0.000 C 
ATOM     28  C   UNL     1     111.763 125.352 136.045  0.00  0.00    +0.000 C 
ATOM     29  C   UNL     1     113.514 125.262 137.006  0.00  0.00    +0.000 C 
ATOM     30  C   UNL     1     113.172 126.140 136.672  0.00  0.00    +0.000 C 
BRANCH  28  32
ATOM     31  O   UNL     1     110.694 126.160 134.948  0.00  0.00    +0.000 OA
ATOM     32  C   UNL     1     110.887 125.397 135.565  0.00  0.00    +0.000 C 
ENDBRANCH  28  32
ENDBRANCH  21  30
ENDBRANCH   2  21
TORSDOF 7
ENDMDL
MODEL 3
REMARK VINA RESULT:      -7.9      3.670      6.273
REMARK  Name = 42607621
REMARK  7 active torsions:
REMARK  status: ('A' for Active; 'I' for Inactive)
REMARK    1  A    between atoms: O_4  and  C_15
REMARK    2  A    between atoms: O_4  and  C_17
REMARK    3  A    between atoms: O_7  and  C_20
REMARK    4  A    between atoms: C_13  and  C_16
REMARK    5  A    between atoms: C_22  and  C_23
REMARK    6  A    between atoms: C_23  and  C_24
REMARK    7  A    between atoms: C_26  and  C_27
REMARK                            x       y       z     vdW  Elec       q    Type
REMARK                         _______ _______ _______ _____ _____    ______ ____
ROOT
ATOM      1  O   UNL     1     105.638 125.259 143.180  0.00  0.00    +0.000 OA
ATOM      2  C   UNL     1     106.027 125.225 145.796  0.00  0.00    +0.000 A 
ATOM      3  C   UNL     1     106.300 126.173 145.959  0.00  0.00    +0.000 A 
ATOM      4  C   UNL     1     105.806 124.921 144.870  0.00  0.00    +0.000 A 
ATOM      5  C   UNL     1     106.352 126.817 145.195  0.00  0.00    +0.000 A 
ATOM      6  C   UNL     1     105.858 125.564 144.106  0.00  0.00    +0.000 A 
ATOM      7  C   UNL     1     106.131 126.512 144.269  0.00  0.00    +0.000 A 
ENDROOT
BRANCH   5   8
ATOM      8  O   UNL     1     106.625 127.765 145.358  0.00  0.00    +0.000 OA
ATOM      9  C   UNL     1     106.939 128.046 146.265  0.00  0.00    +0.000 C 
ENDBRANCH   5   8
BRANCH   7  11
ATOM     10  O   UNL     1     107.048 127.285 143.018  0.00  0.00    +0.000 OA
ATOM     11  C   UNL     1     106.184 127.155 143.505  0.00  0.00    +0.000 C 
BRANCH  11  12
ATOM     12  C   UNL     1     105.372 127.670 143.228  0.00  0.00    +0.000 C 
ATOM     13  C   UNL     1     105.429 128.326 142.476  0.00  0.00    +0.000 C 
BRANCH  13  15
ATOM     14  O   UNL     1     102.182 130.383 141.368  0.00  0.00    +0.000 OA
ATOM     15  C   UNL     1     104.617 128.840 142.199  0.00  0.00    +0.000 A 
ATOM     16  C   UNL     1     104.138 128.602 141.354  0.00  0.00    +0.000 A 
ATOM     17  C   UNL     1     104.284 129.593 142.767  0.00  0.00    +0.000 A 
ATOM     18  C   UNL     1     103.326 129.116 141.077  0.00  0.00    +0.000 A 
ATOM     19  C   UNL     1     103.472 130.107 142.490  0.00  0.00    +0.000 A 
ATOM     20  C   UNL     1     102.993 129.869 141.645  0.00  0.00    +0.000 A 
ENDBRANCH  13  15
ENDBRANCH  11  12
ENDBRANCH   7  11
BRANCH   2  21
ATOM     21  O   UNL     1     105.975 124.582 146.560  0.00  0.00    +0.000 OA
BRANCH  21  30
ATOM     22  O   UNL     1     104.265 124.317 146.630  0.00  0.00    +0.000 OA
ATOM     23  O   UNL     1     102.601 124.272 148.687  0.00  0.00    +0.000 OA
ATOM     24  O   UNL     1     104.335 124.646 149.611  0.00  0.00    +0.000 OA
ATOM     25  O   UNL     1     106.022 124.801 148.547  0.00  0.00    +0.000 OA
ATOM     26  C   UNL     1     103.445 124.349 148.155  0.00  0.00    +0.000 C 
ATOM     27  C   UNL     1     104.312 124.536 148.617  0.00  0.00    +0.000 C 
ATOM     28  C   UNL     1     103.421 124.240 147.161  0.00  0.00    +0.000 C 
ATOM     29  C   UNL     1     105.155 124.614 148.085  0.00  0.00    +0.000 C 
ATOM     30  C   UNL     1     105.131 124.504 147.092  0.00  0.00    +0.000 C 
BRANCH  28  32
ATOM     31  O   UNL     1     102.542 123.864 145.717  0.00  0.00    +0.000 OA
ATOM     32  C   UNL     1     102.554 124.053 146.699  0.00  0.00    +0.000 C 
ENDBRANCH  28  32
ENDBRANCH  21  30
ENDBRANCH   2  21
TORSDOF 7
ENDMDL
MODEL 4
REMARK VINA RESULT:      -7.8      6.694     10.689
REMARK  Name = 42607621
REMARK  7 active torsions:
REMARK  status: ('A' for Active; 'I' for Inactive)
REMARK    1  A    between atoms: O_4  and  C_15
REMARK    2  A    between atoms: O_4  and  C_17
REMARK    3  A    between atoms: O_7  and  C_20
REMARK    4  A    between atoms: C_13  and  C_16
REMARK    5  A    between atoms: C_22  and  C_23
REMARK    6  A    between atoms: C_23  and  C_24
REMARK    7  A    between atoms: C_26  and  C_27
REMARK                            x       y       z     vdW  Elec       q    Type
REMARK                         _______ _______ _______ _____ _____    ______ ____
ROOT
ATOM      1  O   UNL     1     111.902 129.116 135.151  0.00  0.00    +0.000 OA
ATOM      2  C   UNL     1     111.718 131.026 136.971  0.00  0.00    +0.000 A 
ATOM      3  C   UNL     1     112.552 130.865 137.499  0.00  0.00    +0.000 A 
ATOM      4  C   UNL     1     111.501 130.443 136.189  0.00  0.00    +0.000 A 
ATOM      5  C   UNL     1     113.169 130.121 137.244  0.00  0.00    +0.000 A 
ATOM      6  C   UNL     1     112.119 129.699 135.934  0.00  0.00    +0.000 A 
ATOM      7  C   UNL     1     112.953 129.538 136.462  0.00  0.00    +0.000 A 
ENDROOT
BRANCH   5   8
ATOM      8  O   UNL     1     114.003 129.960 137.772  0.00  0.00    +0.000 OA
ATOM      9  C   UNL     1     114.174 130.482 138.608  0.00  0.00    +0.000 C 
ENDBRANCH   5   8
BRANCH   7  11
ATOM     10  O   UNL     1     114.408 128.991 135.698  0.00  0.00    +0.000 OA
ATOM     11  C   UNL     1     113.570 128.794 136.207  0.00  0.00    +0.000 C 
BRANCH  11  12
ATOM     12  C   UNL     1     113.349 127.852 136.460  0.00  0.00    +0.000 C 
ATOM     13  C   UNL     1     113.991 127.114 136.250  0.00  0.00    +0.000 C 
BRANCH  13  15
ATOM     14  O   UNL     1     113.108 123.347 137.264  0.00  0.00    +0.000 OA
ATOM     15  C   UNL     1     113.770 126.172 136.503  0.00  0.00    +0.000 A 
ATOM     16  C   UNL     1     112.836 125.832 136.399  0.00  0.00    +0.000 A 
ATOM     17  C   UNL     1     114.484 125.571 136.861  0.00  0.00    +0.000 A 
ATOM     18  C   UNL     1     112.615 124.891 136.653  0.00  0.00    +0.000 A 
ATOM     19  C   UNL     1     114.264 124.629 137.115  0.00  0.00    +0.000 A 
ATOM     20  C   UNL     1     113.329 124.289 137.010  0.00  0.00    +0.000 A 
ENDBRANCH  13  15
ENDBRANCH  11  12
ENDBRANCH   7  11
BRANCH   2  21
ATOM     21  O   UNL     1     111.100 131.770 137.226  0.00  0.00    +0.000 OA
BRANCH  21  30
ATOM     22  O   UNL     1     110.505 131.096 138.706  0.00  0.00    +0.000 OA
ATOM     23  O   UNL     1     108.073 131.082 139.749  0.00  0.00    +0.000 OA
ATOM     24  O   UNL     1     107.750 132.087 138.050  0.00  0.00    +0.000 OA
ATOM     25  O   UNL     1     109.264 132.431 136.789  0.00  0.00    +0.000 OA
ATOM     26  C   UNL     1     108.830 131.254 139.118  0.00  0.00    +0.000 C 
ATOM     27  C   UNL     1     108.669 131.757 138.269  0.00  0.00    +0.000 C 
ATOM     28  C   UNL     1     109.748 130.924 139.337  0.00  0.00    +0.000 C 
ATOM     29  C   UNL     1     109.425 131.929 137.638  0.00  0.00    +0.000 C 
ATOM     30  C   UNL     1     110.343 131.598 137.857  0.00  0.00    +0.000 C 
BRANCH  28  32
ATOM     31  O   UNL     1     110.844 130.212 140.474  0.00  0.00    +0.000 OA
ATOM     32  C   UNL     1     109.909 130.422 140.187  0.00  0.00    +0.000 C 
ENDBRANCH  28  32
ENDBRANCH  21  30
ENDBRANCH   2  21
TORSDOF 7
ENDMDL
MODEL 5
REMARK VINA RESULT:      -7.8      6.955     10.956
REMARK  Name = 42607621
REMARK  7 active torsions:
REMARK  status: ('A' for Active; 'I' for Inactive)
REMARK    1  A    between atoms: O_4  and  C_15
REMARK    2  A    between atoms: O_4  and  C_17
REMARK    3  A    between atoms: O_7  and  C_20
REMARK    4  A    between atoms: C_13  and  C_16
REMARK    5  A    between atoms: C_22  and  C_23
REMARK    6  A    between atoms: C_23  and  C_24
REMARK    7  A    between atoms: C_26  and  C_27
REMARK                            x       y       z     vdW  Elec       q    Type
REMARK                         _______ _______ _______ _____ _____    ______ ____
ROOT
ATOM      1  O   UNL     1     112.807 128.971 134.695  0.00  0.00    +0.000 OA
ATOM      2  C   UNL     1     112.070 130.583 136.659  0.00  0.00    +0.000 A 
ATOM      3  C   UNL     1     112.439 130.097 137.451  0.00  0.00    +0.000 A 
ATOM      4  C   UNL     1     112.192 130.208 135.740  0.00  0.00    +0.000 A 
ATOM      5  C   UNL     1     112.931 129.236 137.324  0.00  0.00    +0.000 A 
ATOM      6  C   UNL     1     112.684 129.347 135.614  0.00  0.00    +0.000 A 
ATOM      7  C   UNL     1     113.054 128.861 136.406  0.00  0.00    +0.000 A 
ENDROOT
BRANCH   5   8
ATOM      8  O   UNL     1     113.301 128.750 138.116  0.00  0.00    +0.000 OA
ATOM      9  C   UNL     1     113.290 129.182 139.018  0.00  0.00    +0.000 C 
ENDBRANCH   5   8
BRANCH   7  11
ATOM     10  O   UNL     1     114.492 128.007 135.956  0.00  0.00    +0.000 OA
ATOM     11  C   UNL     1     113.546 127.999 136.279  0.00  0.00    +0.000 C 
BRANCH  11  12
ATOM     12  C   UNL     1     113.092 127.130 136.475  0.00  0.00    +0.000 C 
ATOM     13  C   UNL     1     113.588 126.270 136.362  0.00  0.00    +0.000 C 
BRANCH  13  15
ATOM     14  O   UNL     1     111.771 122.794 137.145  0.00  0.00    +0.000 OA
ATOM     15  C   UNL     1     113.134 125.401 136.558  0.00  0.00    +0.000 A 
ATOM     16  C   UNL     1     112.167 125.280 136.333  0.00  0.00    +0.000 A 
ATOM     17  C   UNL     1     113.647 124.652 136.978  0.00  0.00    +0.000 A 
ATOM     18  C   UNL     1     111.713 124.411 136.529  0.00  0.00    +0.000 A 
ATOM     19  C   UNL     1     113.192 123.783 137.174  0.00  0.00    +0.000 A 
ATOM     20  C   UNL     1     112.225 123.663 136.950  0.00  0.00    +0.000 A 
ENDBRANCH  13  15
ENDBRANCH  11  12
ENDBRANCH   7  11
BRANCH   2  21
ATOM     21  O   UNL     1     111.578 131.444 136.786  0.00  0.00    +0.000 OA
BRANCH  21  30
ATOM     22  O   UNL     1     110.031 130.885 136.242  0.00  0.00    +0.000 OA
ATOM     23  O   UNL     1     107.590 131.442 137.094  0.00  0.00    +0.000 OA
ATOM     24  O   UNL     1     108.688 132.561 138.336  0.00  0.00    +0.000 OA
ATOM     25  O   UNL     1     110.682 132.562 138.182  0.00  0.00    +0.000 OA
ATOM     26  C   UNL     1     108.587 131.443 137.017  0.00  0.00    +0.000 C 
ATOM     27  C   UNL     1     109.136 132.002 137.638  0.00  0.00    +0.000 C 
ATOM     28  C   UNL     1     109.034 130.884 136.319  0.00  0.00    +0.000 C 
ATOM     29  C   UNL     1     110.133 132.003 137.561  0.00  0.00    +0.000 C 
ATOM     30  C   UNL     1     110.581 131.444 136.863  0.00  0.00    +0.000 C 
BRANCH  28  32
ATOM     31  O   UNL     1     108.820 129.430 135.402  0.00  0.00    +0.000 OA
ATOM     32  C   UNL     1     108.485 130.325 135.698  0.00  0.00    +0.000 C 
ENDBRANCH  28  32
ENDBRANCH  21  30
ENDBRANCH   2  21
TORSDOF 7
ENDMDL
MODEL 6
REMARK VINA RESULT:      -7.8      4.380      7.402
REMARK  Name = 42607621
REMARK  7 active torsions:
REMARK  status: ('A' for Active; 'I' for Inactive)
REMARK    1  A    between atoms: O_4  and  C_15
REMARK    2  A    between atoms: O_4  and  C_17
REMARK    3  A    between atoms: O_7  and  C_20
REMARK    4  A    between atoms: C_13  and  C_16
REMARK    5  A    between atoms: C_22  and  C_23
REMARK    6  A    between atoms: C_23  and  C_24
REMARK    7  A    between atoms: C_26  and  C_27
REMARK                            x       y       z     vdW  Elec       q    Type
REMARK                         _______ _______ _______ _____ _____    ______ ____
ROOT
ATOM      1  O   UNL     1     106.854 123.983 141.627  0.00  0.00    +0.000 OA
ATOM      2  C   UNL     1     106.381 125.950 143.332  0.00  0.00    +0.000 A 
ATOM      3  C   UNL     1     105.863 126.581 142.753  0.00  0.00    +0.000 A 
ATOM      4  C   UNL     1     106.711 125.084 142.956  0.00  0.00    +0.000 A 
ATOM      5  C   UNL     1     105.676 126.345 141.799  0.00  0.00    +0.000 A 
ATOM      6  C   UNL     1     106.524 124.849 142.003  0.00  0.00    +0.000 A 
ATOM      7  C   UNL     1     106.007 125.479 141.424  0.00  0.00    +0.000 A 
ENDROOT
BRANCH   5   8
ATOM      8  O   UNL     1     105.159 126.976 141.221  0.00  0.00    +0.000 OA
ATOM      9  C   UNL     1     104.828 127.842 141.597  0.00  0.00    +0.000 C 
ENDBRANCH   5   8
BRANCH   7  11
ATOM     10  O   UNL     1     106.537 125.344 139.781  0.00  0.00    +0.000 OA
ATOM     11  C   UNL     1     105.820 125.244 140.470  0.00  0.00    +0.000 C 
BRANCH  11  12
ATOM     12  C   UNL     1     104.915 124.909 140.206  0.00  0.00    +0.000 C 
ATOM     13  C   UNL     1     104.804 124.383 139.363  0.00  0.00    +0.000 C 
BRANCH  13  15
ATOM     14  O   UNL     1     101.187 123.043 138.306  0.00  0.00    +0.000 OA
ATOM     15  C   UNL     1     103.900 124.048 139.099  0.00  0.00    +0.000 A 
ATOM     16  C   UNL     1     103.486 124.349 138.240  0.00  0.00    +0.000 A 
ATOM     17  C   UNL     1     103.409 123.411 139.693  0.00  0.00    +0.000 A 
ATOM     18  C   UNL     1     102.582 124.014 137.975  0.00  0.00    +0.000 A 
ATOM     19  C   UNL     1     102.505 123.076 139.429  0.00  0.00    +0.000 A 
ATOM     20  C   UNL     1     102.091 123.378 138.570  0.00  0.00    +0.000 A 
ENDBRANCH  13  15
ENDBRANCH  11  12
ENDBRANCH   7  11
BRANCH   2  21
ATOM     21  O   UNL     1     106.568 126.185 144.285  0.00  0.00    +0.000 OA
BRANCH  21  30
ATOM     22  O   UNL     1     105.369 125.069 144.849  0.00  0.00    +0.000 OA
ATOM     23  O   UNL     1     104.996 123.985 147.233  0.00  0.00    +0.000 OA
ATOM     24  O   UNL     1     106.609 125.116 147.580  0.00  0.00    +0.000 OA
ATOM     25  O   UNL     1     107.394 126.217 146.106  0.00  0.00    +0.000 OA
ATOM     26  C   UNL     1     105.389 124.535 146.496  0.00  0.00    +0.000 C 
ATOM     27  C   UNL     1     106.195 125.101 146.670  0.00  0.00    +0.000 C 
ATOM     28  C   UNL     1     104.976 124.519 145.586  0.00  0.00    +0.000 C 
ATOM     29  C   UNL     1     106.588 125.651 145.933  0.00  0.00    +0.000 C 
ATOM     30  C   UNL     1     106.175 125.635 145.022  0.00  0.00    +0.000 C 
BRANCH  28  32
ATOM     31  O   UNL     1     104.009 123.579 144.499  0.00  0.00    +0.000 OA
ATOM     32  C   UNL     1     104.170 123.953 145.412  0.00  0.00    +0.000 C 
ENDBRANCH  28  32
ENDBRANCH  21  30
ENDBRANCH   2  21
TORSDOF 7
ENDMDL
MODEL 7
REMARK VINA RESULT:      -7.7      7.586     10.357
REMARK  Name = 42607621
REMARK  7 active torsions:
REMARK  status: ('A' for Active; 'I' for Inactive)
REMARK    1  A    between atoms: O_4  and  C_15
REMARK    2  A    between atoms: O_4  and  C_17
REMARK    3  A    between atoms: O_7  and  C_20
REMARK    4  A    between atoms: C_13  and  C_16
REMARK    5  A    between atoms: C_22  and  C_23
REMARK    6  A    between atoms: C_23  and  C_24
REMARK    7  A    between atoms: C_26  and  C_27
REMARK                            x       y       z     vdW  Elec       q    Type
REMARK                         _______ _______ _______ _____ _____    ______ ____
ROOT
ATOM      1  O   UNL     1     112.056 126.994 141.443  0.00  0.00    +0.000 OA
ATOM      2  C   UNL     1     112.129 129.628 141.684  0.00  0.00    +0.000 A 
ATOM      3  C   UNL     1     113.015 129.831 141.269  0.00  0.00    +0.000 A 
ATOM      4  C   UNL     1     111.809 128.682 141.742  0.00  0.00    +0.000 A 
ATOM      5  C   UNL     1     113.582 129.089 140.912  0.00  0.00    +0.000 A 
ATOM      6  C   UNL     1     112.376 127.940 141.385  0.00  0.00    +0.000 A 
ATOM      7  C   UNL     1     113.262 128.143 140.970  0.00  0.00    +0.000 A 
ENDROOT
BRANCH   5   8
ATOM      8  O   UNL     1     114.469 129.292 140.496  0.00  0.00    +0.000 OA
ATOM      9  C   UNL     1     114.782 130.239 140.424  0.00  0.00    +0.000 C 
ENDBRANCH   5   8
BRANCH   7  11
ATOM     10  O   UNL     1     114.673 127.145 141.084  0.00  0.00    +0.000 OA
ATOM     11  C   UNL     1     113.829 127.401 140.613  0.00  0.00    +0.000 C 
BRANCH  11  12
ATOM     12  C   UNL     1     113.553 126.914 139.784  0.00  0.00    +0.000 C 
ATOM     13  C   UNL     1     114.219 126.365 139.280  0.00  0.00    +0.000 C 
BRANCH  13  15
ATOM     14  O   UNL     1     113.112 124.419 135.966  0.00  0.00    +0.000 OA
ATOM     15  C   UNL     1     113.942 125.879 138.452  0.00  0.00    +0.000 A 
ATOM     16  C   UNL     1     112.992 125.919 138.142  0.00  0.00    +0.000 A 
ATOM     17  C   UNL     1     114.615 125.351 137.933  0.00  0.00    +0.000 A 
ATOM     18  C   UNL     1     112.716 125.433 137.313  0.00  0.00    +0.000 A 
ATOM     19  C   UNL     1     114.338 124.865 137.104  0.00  0.00    +0.000 A 
ATOM     20  C   UNL     1     113.389 124.906 136.794  0.00  0.00    +0.000 A 
ENDBRANCH  13  15
ENDBRANCH  11  12
ENDBRANCH   7  11
BRANCH   2  21
ATOM     21  O   UNL     1     111.562 130.370 142.041  0.00  0.00    +0.000 OA
BRANCH  21  30
ATOM     22  O   UNL     1     111.693 129.957 143.718  0.00  0.00    +0.000 OA
ATOM     23  O   UNL     1     111.904 131.485 145.867  0.00  0.00    +0.000 OA
ATOM     24  O   UNL     1     111.813 132.870 144.426  0.00  0.00    +0.000 OA
ATOM     25  O   UNL     1     111.642 132.312 142.513  0.00  0.00    +0.000 OA
ATOM     26  C   UNL     1     111.819 131.207 144.911  0.00  0.00    +0.000 C 
ATOM     27  C   UNL     1     111.773 131.899 144.190  0.00  0.00    +0.000 C 
ATOM     28  C   UNL     1     111.778 130.236 144.674  0.00  0.00    +0.000 C 
ATOM     29  C   UNL     1     111.688 131.620 143.234  0.00  0.00    +0.000 C 
ATOM     30  C   UNL     1     111.647 130.649 142.998  0.00  0.00    +0.000 C 
BRANCH  28  32
ATOM     31  O   UNL     1     111.556 128.600 145.199  0.00  0.00    +0.000 OA
ATOM     32  C   UNL     1     111.824 129.544 145.395  0.00  0.00    +0.000 C 
ENDBRANCH  28  32
ENDBRANCH  21  30
ENDBRANCH   2  21
TORSDOF 7
ENDMDL
MODEL 8
REMARK VINA RESULT:      -7.6      6.601     10.502
REMARK  Name = 42607621
REMARK  7 active torsions:
REMARK  status: ('A' for Active; 'I' for Inactive)
REMARK    1  A    between atoms: O_4  and  C_15
REMARK    2  A    between atoms: O_4  and  C_17
REMARK    3  A    between atoms: O_7  and  C_20
REMARK    4  A    between atoms: C_13  and  C_16
REMARK    5  A    between atoms: C_22  and  C_23
REMARK    6  A    between atoms: C_23  and  C_24
REMARK    7  A    between atoms: C_26  and  C_27
REMARK                            x       y       z     vdW  Elec       q    Type
REMARK                         _______ _______ _______ _____ _____    ______ ____
ROOT
ATOM      1  O   UNL     1     111.212 128.779 139.555  0.00  0.00    +0.000 OA
ATOM      2  C   UNL     1     111.269 130.934 138.021  0.00  0.00    +0.000 A 
ATOM      3  C   UNL     1     112.188 130.865 137.633  0.00  0.00    +0.000 A 
ATOM      4  C   UNL     1     110.944 130.238 138.662  0.00  0.00    +0.000 A 
ATOM      5  C   UNL     1     112.782 130.101 137.886  0.00  0.00    +0.000 A 
ATOM      6  C   UNL     1     111.538 129.474 138.915  0.00  0.00    +0.000 A 
ATOM      7  C   UNL     1     112.457 129.406 138.527  0.00  0.00    +0.000 A 
ENDROOT
BRANCH   5   8
ATOM      8  O   UNL     1     113.701 130.033 137.498  0.00  0.00    +0.000 OA
ATOM      9  C   UNL     1     114.049 130.760 136.906  0.00  0.00    +0.000 C 
ENDBRANCH   5   8
BRANCH   7  11
ATOM     10  O   UNL     1     113.695 128.739 139.538  0.00  0.00    +0.000 OA
ATOM     11  C   UNL     1     113.051 128.642 138.779  0.00  0.00    +0.000 C 
BRANCH  11  12
ATOM     12  C   UNL     1     113.000 127.781 138.273  0.00  0.00    +0.000 C 
ATOM     13  C   UNL     1     113.504 126.980 138.598  0.00  0.00    +0.000 C 
BRANCH  13  15
ATOM     14  O   UNL     1     113.301 123.536 136.574  0.00  0.00    +0.000 OA
ATOM     15  C   UNL     1     113.453 126.119 138.092  0.00  0.00    +0.000 A 
ATOM     16  C   UNL     1     112.563 125.738 137.842  0.00  0.00    +0.000 A 
ATOM     17  C   UNL     1     114.293 125.639 137.836  0.00  0.00    +0.000 A 
ATOM     18  C   UNL     1     112.513 124.877 137.336  0.00  0.00    +0.000 A 
ATOM     19  C   UNL     1     114.242 124.778 137.330  0.00  0.00    +0.000 A 
ATOM     20  C   UNL     1     113.352 124.397 137.080  0.00  0.00    +0.000 A 
ENDBRANCH  13  15
ENDBRANCH  11  12
ENDBRANCH   7  11
BRANCH   2  21
ATOM     21  O   UNL     1     110.675 131.698 137.769  0.00  0.00    +0.000 OA
BRANCH  21  30
ATOM     22  O   UNL     1     110.047 131.109 136.266  0.00  0.00    +0.000 OA
ATOM     23  O   UNL     1     107.581 131.096 135.306  0.00  0.00    +0.000 OA
ATOM     24  O   UNL     1     107.291 131.973 137.080  0.00  0.00    +0.000 OA
ATOM     25  O   UNL     1     108.838 132.273 138.312  0.00  0.00    +0.000 OA
ATOM     26  C   UNL     1     108.355 131.247 135.922  0.00  0.00    +0.000 C 
ATOM     27  C   UNL     1     108.210 131.685 136.809  0.00  0.00    +0.000 C 
ATOM     28  C   UNL     1     109.273 130.959 135.650  0.00  0.00    +0.000 C 
ATOM     29  C   UNL     1     108.983 131.835 137.425  0.00  0.00    +0.000 C 
ATOM     30  C   UNL     1     109.902 131.547 137.153  0.00  0.00    +0.000 C 
BRANCH  28  32
ATOM     31  O   UNL     1     110.195 129.905 134.631  0.00  0.00    +0.000 OA
ATOM     32  C   UNL     1     109.418 130.520 134.763  0.00  0.00    +0.000 C 
ENDBRANCH  28  32
ENDBRANCH  21  30
ENDBRANCH   2  21
TORSDOF 7
ENDMDL
MODEL 9
REMARK VINA RESULT:      -7.5      5.065      7.546
REMARK  Name = 42607621
REMARK  7 active torsions:
REMARK  status: ('A' for Active; 'I' for Inactive)
REMARK    1  A    between atoms: O_4  and  C_15
REMARK    2  A    between atoms: O_4  and  C_17
REMARK    3  A    between atoms: O_7  and  C_20
REMARK    4  A    between atoms: C_13  and  C_16
REMARK    5  A    between atoms: C_22  and  C_23
REMARK    6  A    between atoms: C_23  and  C_24
REMARK    7  A    between atoms: C_26  and  C_27
REMARK                            x       y       z     vdW  Elec       q    Type
REMARK                         _______ _______ _______ _____ _____    ______ ____
ROOT
ATOM      1  O   UNL     1     105.755 125.067 143.475  0.00  0.00    +0.000 OA
ATOM      2  C   UNL     1     107.177 126.918 142.229  0.00  0.00    +0.000 A 
ATOM      3  C   UNL     1     107.245 127.616 142.941  0.00  0.00    +0.000 A 
ATOM      4  C   UNL     1     106.680 126.068 142.406  0.00  0.00    +0.000 A 
ATOM      5  C   UNL     1     106.817 127.464 143.832  0.00  0.00    +0.000 A 
ATOM      6  C   UNL     1     106.251 125.917 143.297  0.00  0.00    +0.000 A 
ATOM      7  C   UNL     1     106.320 126.615 144.010  0.00  0.00    +0.000 A 
ENDROOT
BRANCH   5   8
ATOM      8  O   UNL     1     106.885 128.162 144.545  0.00  0.00    +0.000 OA
ATOM      9  C   UNL     1     107.389 129.008 144.370  0.00  0.00    +0.000 C 
ENDBRANCH   5   8
BRANCH   7  11
ATOM     10  O   UNL     1     104.946 126.748 145.056  0.00  0.00    +0.000 OA
ATOM     11  C   UNL     1     105.892 126.463 144.901  0.00  0.00    +0.000 C 
BRANCH  11  12
ATOM     12  C   UNL     1     106.409 126.027 145.637  0.00  0.00    +0.000 C 
ATOM     13  C   UNL     1     105.996 125.915 146.541  0.00  0.00    +0.000 C 
BRANCH  13  15
ATOM     14  O   UNL     1     108.066 124.169 149.484  0.00  0.00    +0.000 OA
ATOM     15  C   UNL     1     106.514 125.479 147.277  0.00  0.00    +0.000 A 
ATOM     16  C   UNL     1     106.037 124.942 147.973  0.00  0.00    +0.000 A 
ATOM     17  C   UNL     1     107.508 125.579 147.316  0.00  0.00    +0.000 A 
ATOM     18  C   UNL     1     106.554 124.506 148.709  0.00  0.00    +0.000 A 
ATOM     19  C   UNL     1     108.025 125.142 148.052  0.00  0.00    +0.000 A 
ATOM     20  C   UNL     1     107.549 124.606 148.748  0.00  0.00    +0.000 A 
ENDBRANCH  13  15
ENDBRANCH  11  12
ENDBRANCH   7  11
BRANCH   2  21
ATOM     21  O   UNL     1     107.605 127.069 141.338  0.00  0.00    +0.000 OA
BRANCH  21  30
ATOM     22  O   UNL     1     109.257 127.371 141.763  0.00  0.00    +0.000 OA
ATOM     23  O   UNL     1     111.503 126.322 140.840  0.00  0.00    +0.000 OA
ATOM     24  O   UNL     1     110.149 125.344 139.740  0.00  0.00    +0.000 OA
ATOM     25  O   UNL     1     108.200 125.718 139.989  0.00  0.00    +0.000 OA
ATOM     26  C   UNL     1     110.528 126.509 140.964  0.00  0.00    +0.000 C 
ATOM     27  C   UNL     1     109.851 126.020 140.414  0.00  0.00    +0.000 C 
ATOM     28  C   UNL     1     110.231 127.184 141.639  0.00  0.00    +0.000 C 
ATOM     29  C   UNL     1     108.877 126.207 140.539  0.00  0.00    +0.000 C 
ATOM     30  C   UNL     1     108.580 126.882 141.213  0.00  0.00    +0.000 C 
BRANCH  28  32
ATOM     31  O   UNL     1     110.610 128.302 142.907  0.00  0.00    +0.000 OA
ATOM     32  C   UNL     1     110.908 127.673 142.189  0.00  0.00    +0.000 C 
ENDBRANCH  28  32
ENDBRANCH  21  30
ENDBRANCH   2  21
TORSDOF 7
ENDMDL
MODEL 10
REMARK VINA RESULT:      -7.5      3.394      7.319
REMARK  Name = 42607621
REMARK  7 active torsions:
REMARK  status: ('A' for Active; 'I' for Inactive)
REMARK    1  A    between atoms: O_4  and  C_15
REMARK    2  A    between atoms: O_4  and  C_17
REMARK    3  A    between atoms: O_7  and  C_20
REMARK    4  A    between atoms: C_13  and  C_16
REMARK    5  A    between atoms: C_22  and  C_23
REMARK    6  A    between atoms: C_23  and  C_24
REMARK    7  A    between atoms: C_26  and  C_27
REMARK                            x       y       z     vdW  Elec       q    Type
REMARK                         _______ _______ _______ _____ _____    ______ ____
ROOT
ATOM      1  O   UNL     1     105.583 125.045 142.650  0.00  0.00    +0.000 OA
ATOM      2  C   UNL     1     107.351 126.986 142.322  0.00  0.00    +0.000 A 
ATOM      3  C   UNL     1     107.806 126.687 141.484  0.00  0.00    +0.000 A 
ATOM      4  C   UNL     1     106.609 126.438 142.711  0.00  0.00    +0.000 A 
ATOM      5  C   UNL     1     107.521 125.840 141.034  0.00  0.00    +0.000 A 
ATOM      6  C   UNL     1     106.324 125.592 142.261  0.00  0.00    +0.000 A 
ATOM      7  C   UNL     1     106.780 125.293 141.423  0.00  0.00    +0.000 A 
ENDROOT
BRANCH   5   8
ATOM      8  O   UNL     1     107.977 125.541 140.196  0.00  0.00    +0.000 OA
ATOM      9  C   UNL     1     108.811 126.000 139.889  0.00  0.00    +0.000 C 
ENDBRANCH   5   8
BRANCH   7  11
ATOM     10  O   UNL     1     107.007 123.602 141.126  0.00  0.00    +0.000 OA
ATOM     11  C   UNL     1     106.495 124.447 140.973  0.00  0.00    +0.000 C 
BRANCH  11  12
ATOM     12  C   UNL     1     105.697 124.445 140.370  0.00  0.00    +0.000 C 
ATOM     13  C   UNL     1     105.408 123.597 139.925  0.00  0.00    +0.000 C 
BRANCH  13  15
ATOM     14  O   UNL     1     102.216 123.591 137.515  0.00  0.00    +0.000 OA
ATOM     15  C   UNL     1     104.610 123.596 139.323  0.00  0.00    +0.000 A 
ATOM     16  C   UNL     1     104.732 123.616 138.330  0.00  0.00    +0.000 A 
ATOM     17  C   UNL     1     103.689 123.574 139.712  0.00  0.00    +0.000 A 
ATOM     18  C   UNL     1     103.934 123.615 137.728  0.00  0.00    +0.000 A 
ATOM     19  C   UNL     1     102.891 123.572 139.110  0.00  0.00    +0.000 A 
ATOM     20  C   UNL     1     103.014 123.593 138.117  0.00  0.00    +0.000 A 
ENDBRANCH  13  15
ENDBRANCH  11  12
ENDBRANCH   7  11
BRANCH   2  21
ATOM     21  O   UNL     1     107.636 127.832 142.772  0.00  0.00    +0.000 OA
BRANCH  21  30
ATOM     22  O   UNL     1     106.335 128.836 142.223  0.00  0.00    +0.000 OA
ATOM     23  O   UNL     1     106.312 131.358 141.423  0.00  0.00    +0.000 OA
ATOM     24  O   UNL     1     108.251 131.113 141.846  0.00  0.00    +0.000 OA
ATOM     25  O   UNL     1     108.913 129.350 142.520  0.00  0.00    +0.000 OA
ATOM     26  C   UNL     1     106.643 130.476 141.760  0.00  0.00    +0.000 C 
ATOM     27  C   UNL     1     107.613 130.354 141.972  0.00  0.00    +0.000 C 
ATOM     28  C   UNL     1     106.004 129.717 141.886  0.00  0.00    +0.000 C 
ATOM     29  C   UNL     1     107.944 129.473 142.309  0.00  0.00    +0.000 C 
ATOM     30  C   UNL     1     107.305 128.713 142.435  0.00  0.00    +0.000 C 
BRANCH  28  32
ATOM     31  O   UNL     1     104.505 129.079 141.300  0.00  0.00    +0.000 OA
ATOM     32  C   UNL     1     105.035 129.839 141.675  0.00  0.00    +0.000 C 
ENDBRANCH  28  32
ENDBRANCH  21  30
ENDBRANCH   2  21
TORSDOF 7
ENDMDL
