MODEL 1
REMARK VINA RESULT:      -8.6      0.000      0.000
REMARK  Name = 44259653
REMARK  2 active torsions:
REMARK  status: ('A' for Active; 'I' for Inactive)
REMARK    1  A    between atoms: O_2  and  C_13
REMARK    2  A    between atoms: C_10  and  C_16
REMARK                            x       y       z     vdW  Elec       q    Type
REMARK                         _______ _______ _______ _____ _____    ______ ____
ROOT
ATOM      1  O   UNL     1     105.057 124.403 147.586  0.00  0.00    +0.000 OA
ATOM      2  O   UNL     1     107.559 125.358 146.501  0.00  0.00    +0.000 OA
ATOM      3  O   UNL     1     107.383 124.623 149.323  0.00  0.00    +0.000 OA
ATOM      4  O   UNL     1     106.386 125.235 145.671  0.00  0.00    +0.000 OA
ATOM      5  C   UNL     1     106.295 124.875 147.050  0.00  0.00    +0.000 A 
ATOM      6  C   UNL     1     105.852 124.598 147.688  0.00  0.00    +0.000 A 
ATOM      7  C   UNL     1     107.124 125.081 147.145  0.00  0.00    +0.000 A 
ATOM      8  C   UNL     1     104.704 124.486 146.844  0.00  0.00    +0.000 A 
ATOM      9  C   UNL     1     107.496 124.997 147.915  0.00  0.00    +0.000 A 
ATOM     10  C   UNL     1     105.943 124.958 146.309  0.00  0.00    +0.000 A 
ATOM     11  C   UNL     1     105.148 124.764 146.205  0.00  0.00    +0.000 A 
ATOM     12  C   UNL     1     106.207 124.507 148.466  0.00  0.00    +0.000 A 
ATOM     13  C   UNL     1     107.034 124.708 148.580  0.00  0.00    +0.000 A 
ATOM     14  C   UNL     1     108.291 125.192 148.016  0.00  0.00    +0.000 C 
ENDROOT
BRANCH   8  16
ATOM     15  O   UNL     1     101.523 123.711 146.434  0.00  0.00    +0.000 OA
ATOM     16  C   UNL     1     103.909 124.292 146.741  0.00  0.00    +0.000 A 
ATOM     17  C   UNL     1     103.323 124.838 146.938  0.00  0.00    +0.000 A 
ATOM     18  C   UNL     1     103.701 123.552 146.442  0.00  0.00    +0.000 A 
ATOM     19  C   UNL     1     102.528 124.644 146.835  0.00  0.00    +0.000 A 
ATOM     20  C   UNL     1     102.905 123.359 146.340  0.00  0.00    +0.000 A 
ATOM     21  C   UNL     1     102.319 123.904 146.536  0.00  0.00    +0.000 A 
ENDBRANCH   8  16
BRANCH  11  22
ATOM     22  O   UNL     1     104.796 124.847 145.465  0.00  0.00    +0.000 OA
ATOM     23  C   UNL     1     105.266 124.913 144.790  0.00  0.00    +0.000 C 
ENDBRANCH  11  22
TORSDOF 2
ENDMDL
MODEL 2
REMARK VINA RESULT:      -8.4      1.100      4.270
REMARK  Name = 44259653
REMARK  2 active torsions:
REMARK  status: ('A' for Active; 'I' for Inactive)
REMARK    1  A    between atoms: O_2  and  C_13
REMARK    2  A    between atoms: C_10  and  C_16
REMARK                            x       y       z     vdW  Elec       q    Type
REMARK                         _______ _______ _______ _____ _____    ______ ____
ROOT
ATOM      1  O   UNL     1     104.978 124.203 146.824  0.00  0.00    +0.000 OA
ATOM      2  O   UNL     1     102.245 124.946 147.397  0.00  0.00    +0.000 OA
ATOM      3  O   UNL     1     102.798 122.740 145.565  0.00  0.00    +0.000 OA
ATOM      4  O   UNL     1     103.350 125.648 148.002  0.00  0.00    +0.000 OA
ATOM      5  C   UNL     1     103.626 124.570 147.107  0.00  0.00    +0.000 A 
ATOM      6  C   UNL     1     104.168 124.088 146.714  0.00  0.00    +0.000 A 
ATOM      7  C   UNL     1     102.780 124.460 147.000  0.00  0.00    +0.000 A 
ATOM      8  C   UNL     1     105.245 124.800 147.328  0.00  0.00    +0.000 A 
ATOM      9  C   UNL     1     102.496 123.840 146.478  0.00  0.00    +0.000 A 
ATOM     10  C   UNL     1     103.893 125.166 147.610  0.00  0.00    +0.000 A 
ATOM     11  C   UNL     1     104.702 125.282 147.721  0.00  0.00    +0.000 A 
ATOM     12  C   UNL     1     103.903 123.463 146.188  0.00  0.00    +0.000 A 
ATOM     13  C   UNL     1     103.061 123.338 146.069  0.00  0.00    +0.000 A 
ATOM     14  C   UNL     1     101.686 123.727 146.369  0.00  0.00    +0.000 C 
ENDROOT
BRANCH   8  16
ATOM     15  O   UNL     1     108.483 125.260 147.765  0.00  0.00    +0.000 OA
ATOM     16  C   UNL     1     106.054 124.915 147.438  0.00  0.00    +0.000 A 
ATOM     17  C   UNL     1     106.488 125.347 146.884  0.00  0.00    +0.000 A 
ATOM     18  C   UNL     1     106.430 124.598 148.100  0.00  0.00    +0.000 A 
ATOM     19  C   UNL     1     107.298 125.461 146.994  0.00  0.00    +0.000 A 
ATOM     20  C   UNL     1     107.240 124.713 148.209  0.00  0.00    +0.000 A 
ATOM     21  C   UNL     1     107.673 125.145 147.657  0.00  0.00    +0.000 A 
ENDBRANCH   8  16
BRANCH  11  22
ATOM     22  O   UNL     1     104.969 125.878 148.223  0.00  0.00    +0.000 OA
ATOM     23  C   UNL     1     104.469 126.503 148.423  0.00  0.00    +0.000 C 
ENDBRANCH  11  22
TORSDOF 2
ENDMDL
MODEL 3
REMARK VINA RESULT:      -8.3      6.664      8.029
REMARK  Name = 44259653
REMARK  2 active torsions:
REMARK  status: ('A' for Active; 'I' for Inactive)
REMARK    1  A    between atoms: O_2  and  C_13
REMARK    2  A    between atoms: C_10  and  C_16
REMARK                            x       y       z     vdW  Elec       q    Type
REMARK                         _______ _______ _______ _____ _____    ______ ____
ROOT
ATOM      1  O   UNL     1     103.365 130.192 142.331  0.00  0.00    +0.000 OA
ATOM      2  O   UNL     1     104.313 127.835 140.955  0.00  0.00    +0.000 OA
ATOM      3  O   UNL     1     105.311 128.458 143.628  0.00  0.00    +0.000 OA
ATOM      4  O   UNL     1     103.350 128.716 140.344  0.00  0.00    +0.000 OA
ATOM      5  C   UNL     1     103.834 129.026 141.651  0.00  0.00    +0.000 A 
ATOM      6  C   UNL     1     103.839 129.517 142.313  0.00  0.00    +0.000 A 
ATOM      7  C   UNL     1     104.325 128.320 141.622  0.00  0.00    +0.000 A 
ATOM      8  C   UNL     1     102.884 130.374 141.685  0.00  0.00    +0.000 A 
ATOM      9  C   UNL     1     104.827 128.125 142.291  0.00  0.00    +0.000 A 
ATOM     10  C   UNL     1     103.355 129.208 141.006  0.00  0.00    +0.000 A 
ATOM     11  C   UNL     1     102.879 129.882 141.022  0.00  0.00    +0.000 A 
ATOM     12  C   UNL     1     104.335 129.338 142.992  0.00  0.00    +0.000 A 
ATOM     13  C   UNL     1     104.832 128.637 142.981  0.00  0.00    +0.000 A 
ATOM     14  C   UNL     1     105.301 127.450 142.272  0.00  0.00    +0.000 C 
ENDROOT
BRANCH   8  16
ATOM     15  O   UNL     1     100.987 133.073 141.753  0.00  0.00    +0.000 OA
ATOM     16  C   UNL     1     102.409 131.048 141.702  0.00  0.00    +0.000 A 
ATOM     17  C   UNL     1     102.708 131.770 141.434  0.00  0.00    +0.000 A 
ATOM     18  C   UNL     1     101.636 131.002 141.987  0.00  0.00    +0.000 A 
ATOM     19  C   UNL     1     102.234 132.444 141.452  0.00  0.00    +0.000 A 
ATOM     20  C   UNL     1     101.162 131.677 142.003  0.00  0.00    +0.000 A 
ATOM     21  C   UNL     1     101.461 132.398 141.736  0.00  0.00    +0.000 A 
ENDBRANCH   8  16
BRANCH  11  22
ATOM     22  O   UNL     1     102.399 130.065 140.377  0.00  0.00    +0.000 OA
ATOM     23  C   UNL     1     102.228 129.487 139.814  0.00  0.00    +0.000 C 
ENDBRANCH  11  22
TORSDOF 2
ENDMDL
MODEL 4
REMARK VINA RESULT:      -8.2     10.065     11.881
REMARK  Name = 44259653
REMARK  2 active torsions:
REMARK  status: ('A' for Active; 'I' for Inactive)
REMARK    1  A    between atoms: O_2  and  C_13
REMARK    2  A    between atoms: C_10  and  C_16
REMARK                            x       y       z     vdW  Elec       q    Type
REMARK                         _______ _______ _______ _____ _____    ______ ____
ROOT
ATOM      1  O   UNL     1     113.612 126.389 138.881  0.00  0.00    +0.000 OA
ATOM      2  O   UNL     1     111.010 126.264 140.131  0.00  0.00    +0.000 OA
ATOM      3  O   UNL     1     113.194 127.678 141.459  0.00  0.00    +0.000 OA
ATOM      4  O   UNL     1     111.254 125.638 138.855  0.00  0.00    +0.000 OA
ATOM      5  C   UNL     1     112.325 126.328 139.500  0.00  0.00    +0.000 A 
ATOM      6  C   UNL     1     113.111 126.578 139.509  0.00  0.00    +0.000 A 
ATOM      7  C   UNL     1     111.794 126.519 140.149  0.00  0.00    +0.000 A 
ATOM      8  C   UNL     1     113.326 125.949 138.244  0.00  0.00    +0.000 A 
ATOM      9  C   UNL     1     112.086 126.977 140.814  0.00  0.00    +0.000 A 
ATOM     10  C   UNL     1     112.040 125.888 138.864  0.00  0.00    +0.000 A 
ATOM     11  C   UNL     1     112.540 125.699 138.235  0.00  0.00    +0.000 A 
ATOM     12  C   UNL     1     113.421 127.037 140.167  0.00  0.00    +0.000 A 
ATOM     13  C   UNL     1     112.904 127.237 140.823  0.00  0.00    +0.000 A 
ATOM     14  C   UNL     1     111.584 127.165 141.441  0.00  0.00    +0.000 C 
ENDROOT
BRANCH   8  16
ATOM     15  O   UNL     1     115.328 125.195 135.731  0.00  0.00    +0.000 OA
ATOM     16  C   UNL     1     113.826 125.760 137.616  0.00  0.00    +0.000 A 
ATOM     17  C   UNL     1     113.854 126.247 136.950  0.00  0.00    +0.000 A 
ATOM     18  C   UNL     1     114.299 125.085 137.654  0.00  0.00    +0.000 A 
ATOM     19  C   UNL     1     114.355 126.058 136.322  0.00  0.00    +0.000 A 
ATOM     20  C   UNL     1     114.799 124.897 137.025  0.00  0.00    +0.000 A 
ATOM     21  C   UNL     1     114.828 125.383 136.360  0.00  0.00    +0.000 A 
ENDBRANCH   8  16
BRANCH  11  22
ATOM     22  O   UNL     1     112.254 125.259 137.599  0.00  0.00    +0.000 OA
ATOM     23  C   UNL     1     111.551 124.834 137.673  0.00  0.00    +0.000 C 
ENDBRANCH  11  22
TORSDOF 2
ENDMDL
MODEL 5
REMARK VINA RESULT:      -8.2     12.819     13.882
REMARK  Name = 44259653
REMARK  2 active torsions:
REMARK  status: ('A' for Active; 'I' for Inactive)
REMARK    1  A    between atoms: O_2  and  C_13
REMARK    2  A    between atoms: C_10  and  C_16
REMARK                            x       y       z     vdW  Elec       q    Type
REMARK                         _______ _______ _______ _____ _____    ______ ____
ROOT
ATOM      1  O   UNL     1     113.883 127.070 136.636  0.00  0.00    +0.000 OA
ATOM      2  O   UNL     1     111.854 125.038 136.312  0.00  0.00    +0.000 OA
ATOM      3  O   UNL     1     114.485 124.312 137.352  0.00  0.00    +0.000 OA
ATOM      4  O   UNL     1     111.592 126.414 135.968  0.00  0.00    +0.000 OA
ATOM      5  C   UNL     1     112.880 126.064 136.476  0.00  0.00    +0.000 A 
ATOM      6  C   UNL     1     113.644 126.283 136.699  0.00  0.00    +0.000 A 
ATOM      7  C   UNL     1     112.620 125.247 136.537  0.00  0.00    +0.000 A 
ATOM      8  C   UNL     1     113.358 127.639 136.351  0.00  0.00    +0.000 A 
ATOM      9  C   UNL     1     113.162 124.651 136.833  0.00  0.00    +0.000 A 
ATOM     10  C   UNL     1     112.356 126.632 136.191  0.00  0.00    +0.000 A 
ATOM     11  C   UNL     1     112.594 127.420 136.128  0.00  0.00    +0.000 A 
ATOM     12  C   UNL     1     114.200 125.699 136.998  0.00  0.00    +0.000 A 
ATOM     13  C   UNL     1     113.957 124.878 137.065  0.00  0.00    +0.000 A 
ATOM     14  C   UNL     1     112.921 123.864 136.895  0.00  0.00    +0.000 C 
ENDROOT
BRANCH   8  16
ATOM     15  O   UNL     1     114.315 130.787 136.098  0.00  0.00    +0.000 OA
ATOM     16  C   UNL     1     113.597 128.426 136.288  0.00  0.00    +0.000 A 
ATOM     17  C   UNL     1     114.000 128.682 135.615  0.00  0.00    +0.000 A 
ATOM     18  C   UNL     1     113.433 128.957 136.898  0.00  0.00    +0.000 A 
ATOM     19  C   UNL     1     114.239 129.468 135.552  0.00  0.00    +0.000 A 
ATOM     20  C   UNL     1     113.673 129.744 136.834  0.00  0.00    +0.000 A 
ATOM     21  C   UNL     1     114.076 130.000 136.162  0.00  0.00    +0.000 A 
ENDBRANCH   8  16
BRANCH  11  22
ATOM     22  O   UNL     1     112.069 127.988 135.842  0.00  0.00    +0.000 OA
ATOM     23  C   UNL     1     111.416 127.759 135.394  0.00  0.00    +0.000 C 
ENDBRANCH  11  22
TORSDOF 2
ENDMDL
MODEL 6
REMARK VINA RESULT:      -8.1      1.051      2.205
REMARK  Name = 44259653
REMARK  2 active torsions:
REMARK  status: ('A' for Active; 'I' for Inactive)
REMARK    1  A    between atoms: O_2  and  C_13
REMARK    2  A    between atoms: C_10  and  C_16
REMARK                            x       y       z     vdW  Elec       q    Type
REMARK                         _______ _______ _______ _____ _____    ______ ____
ROOT
ATOM      1  O   UNL     1     104.341 124.471 146.616  0.00  0.00    +0.000 OA
ATOM      2  O   UNL     1     106.235 125.195 148.675  0.00  0.00    +0.000 OA
ATOM      3  O   UNL     1     107.040 125.270 145.868  0.00  0.00    +0.000 OA
ATOM      4  O   UNL     1     104.890 124.794 149.007  0.00  0.00    +0.000 OA
ATOM      5  C   UNL     1     105.278 124.829 147.633  0.00  0.00    +0.000 A 
ATOM      6  C   UNL     1     105.095 124.722 146.836  0.00  0.00    +0.000 A 
ATOM      7  C   UNL     1     106.061 125.090 147.875  0.00  0.00    +0.000 A 
ATOM      8  C   UNL     1     103.769 124.328 147.194  0.00  0.00    +0.000 A 
ATOM      9  C   UNL     1     106.661 125.240 147.278  0.00  0.00    +0.000 A 
ATOM     10  C   UNL     1     104.707 124.687 148.210  0.00  0.00    +0.000 A 
ATOM     11  C   UNL     1     103.952 124.436 147.991  0.00  0.00    +0.000 A 
ATOM     12  C   UNL     1     105.683 124.867 146.225  0.00  0.00    +0.000 A 
ATOM     13  C   UNL     1     106.470 125.128 146.448  0.00  0.00    +0.000 A 
ATOM     14  C   UNL     1     107.415 125.491 147.501  0.00  0.00    +0.000 C 
ENDROOT
BRANCH   8  16
ATOM     15  O   UNL     1     100.752 123.324 146.311  0.00  0.00    +0.000 OA
ATOM     16  C   UNL     1     103.015 124.078 146.973  0.00  0.00    +0.000 A 
ATOM     17  C   UNL     1     102.877 123.281 146.807  0.00  0.00    +0.000 A 
ATOM     18  C   UNL     1     102.398 124.623 146.918  0.00  0.00    +0.000 A 
ATOM     19  C   UNL     1     102.123 123.031 146.587  0.00  0.00    +0.000 A 
ATOM     20  C   UNL     1     101.644 124.372 146.698  0.00  0.00    +0.000 A 
ATOM     21  C   UNL     1     101.506 123.576 146.532  0.00  0.00    +0.000 A 
ENDBRANCH   8  16
BRANCH  11  22
ATOM     22  O   UNL     1     103.381 124.293 148.568  0.00  0.00    +0.000 OA
ATOM     23  C   UNL     1     103.588 124.310 149.366  0.00  0.00    +0.000 C 
ENDBRANCH  11  22
TORSDOF 2
ENDMDL
MODEL 7
REMARK VINA RESULT:      -8.0      1.219      2.803
REMARK  Name = 44259653
REMARK  2 active torsions:
REMARK  status: ('A' for Active; 'I' for Inactive)
REMARK    1  A    between atoms: O_2  and  C_13
REMARK    2  A    between atoms: C_10  and  C_16
REMARK                            x       y       z     vdW  Elec       q    Type
REMARK                         _______ _______ _______ _____ _____    ______ ____
ROOT
ATOM      1  O   UNL     1     106.872 125.356 146.448  0.00  0.00    +0.000 OA
ATOM      2  O   UNL     1     105.789 124.447 148.968  0.00  0.00    +0.000 OA
ATOM      3  O   UNL     1     108.678 124.736 148.647  0.00  0.00    +0.000 OA
ATOM      4  O   UNL     1     104.925 124.764 147.856  0.00  0.00    +0.000 OA
ATOM      5  C   UNL     1     106.337 124.907 147.694  0.00  0.00    +0.000 A 
ATOM      6  C   UNL     1     106.986 125.104 147.225  0.00  0.00    +0.000 A 
ATOM      7  C   UNL     1     106.444 124.643 148.506  0.00  0.00    +0.000 A 
ATOM      8  C   UNL     1     106.108 125.411 146.140  0.00  0.00    +0.000 A 
ATOM      9  C   UNL     1     107.237 124.584 148.831  0.00  0.00    +0.000 A 
ATOM     10  C   UNL     1     105.574 124.961 147.387  0.00  0.00    +0.000 A 
ATOM     11  C   UNL     1     105.459 125.213 146.610  0.00  0.00    +0.000 A 
ATOM     12  C   UNL     1     107.787 125.051 147.534  0.00  0.00    +0.000 A 
ATOM     13  C   UNL     1     107.912 124.789 148.342  0.00  0.00    +0.000 A 
ATOM     14  C   UNL     1     107.348 124.332 149.609  0.00  0.00    +0.000 C 
ENDROOT
BRANCH   8  16
ATOM     15  O   UNL     1     105.652 126.422 143.032  0.00  0.00    +0.000 OA
ATOM     16  C   UNL     1     105.994 125.663 145.363  0.00  0.00    +0.000 A 
ATOM     17  C   UNL     1     105.909 126.467 145.199  0.00  0.00    +0.000 A 
ATOM     18  C   UNL     1     105.965 125.111 144.750  0.00  0.00    +0.000 A 
ATOM     19  C   UNL     1     105.795 126.719 144.422  0.00  0.00    +0.000 A 
ATOM     20  C   UNL     1     105.851 125.365 143.973  0.00  0.00    +0.000 A 
ATOM     21  C   UNL     1     105.766 126.168 143.809  0.00  0.00    +0.000 A 
ENDBRANCH   8  16
BRANCH  11  22
ATOM     22  O   UNL     1     104.696 125.268 146.302  0.00  0.00    +0.000 OA
ATOM     23  C   UNL     1     104.063 124.926 146.706  0.00  0.00    +0.000 C 
ENDBRANCH  11  22
TORSDOF 2
ENDMDL
MODEL 8
REMARK VINA RESULT:      -8.0     12.484     13.578
REMARK  Name = 44259653
REMARK  2 active torsions:
REMARK  status: ('A' for Active; 'I' for Inactive)
REMARK    1  A    between atoms: O_2  and  C_13
REMARK    2  A    between atoms: C_10  and  C_16
REMARK                            x       y       z     vdW  Elec       q    Type
REMARK                         _______ _______ _______ _____ _____    ______ ____
ROOT
ATOM      1  O   UNL     1     112.609 127.110 136.207  0.00  0.00    +0.000 OA
ATOM      2  O   UNL     1     110.017 126.903 134.946  0.00  0.00    +0.000 OA
ATOM      3  O   UNL     1     111.363 129.492 135.087  0.00  0.00    +0.000 OA
ATOM      4  O   UNL     1     110.665 125.745 135.511  0.00  0.00    +0.000 OA
ATOM      5  C   UNL     1     111.327 127.009 135.583  0.00  0.00    +0.000 A 
ATOM      6  C   UNL     1     111.975 127.464 135.815  0.00  0.00    +0.000 A 
ATOM      7  C   UNL     1     110.661 127.367 135.174  0.00  0.00    +0.000 A 
ATOM      8  C   UNL     1     112.594 126.301 136.368  0.00  0.00    +0.000 A 
ATOM      9  C   UNL     1     110.670 128.209 135.004  0.00  0.00    +0.000 A 
ATOM     10  C   UNL     1     111.313 126.200 135.743  0.00  0.00    +0.000 A 
ATOM     11  C   UNL     1     111.946 125.846 136.136  0.00  0.00    +0.000 A 
ATOM     12  C   UNL     1     112.002 128.308 135.654  0.00  0.00    +0.000 A 
ATOM     13  C   UNL     1     111.345 128.682 135.246  0.00  0.00    +0.000 A 
ATOM     14  C   UNL     1     110.035 128.560 134.612  0.00  0.00    +0.000 C 
ENDROOT
BRANCH   8  16
ATOM     15  O   UNL     1     115.129 124.887 137.939  0.00  0.00    +0.000 OA
ATOM     16  C   UNL     1     113.228 125.947 136.760  0.00  0.00    +0.000 A 
ATOM     17  C   UNL     1     113.243 125.927 137.585  0.00  0.00    +0.000 A 
ATOM     18  C   UNL     1     113.847 125.614 136.328  0.00  0.00    +0.000 A 
ATOM     19  C   UNL     1     113.876 125.574 137.977  0.00  0.00    +0.000 A 
ATOM     20  C   UNL     1     114.480 125.260 136.721  0.00  0.00    +0.000 A 
ATOM     21  C   UNL     1     114.495 125.240 137.545  0.00  0.00    +0.000 A 
ENDBRANCH   8  16
BRANCH  11  22
ATOM     22  O   UNL     1     111.932 125.037 136.296  0.00  0.00    +0.000 OA
ATOM     23  C   UNL     1     111.262 124.592 136.113  0.00  0.00    +0.000 C 
ENDBRANCH  11  22
TORSDOF 2
ENDMDL
MODEL 9
REMARK VINA RESULT:      -8.0      1.242      4.183
REMARK  Name = 44259653
REMARK  2 active torsions:
REMARK  status: ('A' for Active; 'I' for Inactive)
REMARK    1  A    between atoms: O_2  and  C_13
REMARK    2  A    between atoms: C_10  and  C_16
REMARK                            x       y       z     vdW  Elec       q    Type
REMARK                         _______ _______ _______ _____ _____    ______ ____
ROOT
ATOM      1  O   UNL     1     103.560 124.222 147.418  0.00  0.00    +0.000 OA
ATOM      2  O   UNL     1     102.591 122.991 144.990  0.00  0.00    +0.000 OA
ATOM      3  O   UNL     1     100.821 123.239 147.300  0.00  0.00    +0.000 OA
ATOM      4  O   UNL     1     103.941 123.490 145.085  0.00  0.00    +0.000 OA
ATOM      5  C   UNL     1     103.080 123.613 146.217  0.00  0.00    +0.000 A 
ATOM      6  C   UNL     1     102.953 123.857 146.995  0.00  0.00    +0.000 A 
ATOM      7  C   UNL     1     102.454 123.232 145.767  0.00  0.00    +0.000 A 
ATOM      8  C   UNL     1     104.295 124.343 147.062  0.00  0.00    +0.000 A 
ATOM      9  C   UNL     1     101.687 123.104 146.132  0.00  0.00    +0.000 A 
ATOM     10  C   UNL     1     103.814 123.734 145.862  0.00  0.00    +0.000 A 
ATOM     11  C   UNL     1     104.422 124.099 146.284  0.00  0.00    +0.000 A 
ATOM     12  C   UNL     1     102.191 123.737 147.376  0.00  0.00    +0.000 A 
ATOM     13  C   UNL     1     101.555 123.358 146.941  0.00  0.00    +0.000 A 
ATOM     14  C   UNL     1     101.082 122.739 145.707  0.00  0.00    +0.000 C 
ENDROOT
BRANCH   8  16
ATOM     15  O   UNL     1     106.723 125.804 148.753  0.00  0.00    +0.000 OA
ATOM     16  C   UNL     1     104.902 124.707 147.485  0.00  0.00    +0.000 A 
ATOM     17  C   UNL     1     104.951 125.531 147.508  0.00  0.00    +0.000 A 
ATOM     18  C   UNL     1     105.460 124.250 147.884  0.00  0.00    +0.000 A 
ATOM     19  C   UNL     1     105.558 125.896 147.931  0.00  0.00    +0.000 A 
ATOM     20  C   UNL     1     106.067 124.616 148.307  0.00  0.00    +0.000 A 
ATOM     21  C   UNL     1     106.116 125.438 148.330  0.00  0.00    +0.000 A 
ENDBRANCH   8  16
BRANCH  11  22
ATOM     22  O   UNL     1     105.156 124.219 145.929  0.00  0.00    +0.000 OA
ATOM     23  C   UNL     1     105.212 124.286 145.109  0.00  0.00    +0.000 C 
ENDBRANCH  11  22
TORSDOF 2
ENDMDL
MODEL 10
REMARK VINA RESULT:      -7.9      9.934     11.978
REMARK  Name = 44259653
REMARK  2 active torsions:
REMARK  status: ('A' for Active; 'I' for Inactive)
REMARK    1  A    between atoms: O_2  and  C_13
REMARK    2  A    between atoms: C_10  and  C_16
REMARK                            x       y       z     vdW  Elec       q    Type
REMARK                         _______ _______ _______ _____ _____    ______ ____
ROOT
ATOM      1  O   UNL     1     113.515 126.290 138.455  0.00  0.00    +0.000 OA
ATOM      2  O   UNL     1     111.304 124.589 137.705  0.00  0.00    +0.000 OA
ATOM      3  O   UNL     1     113.826 124.424 136.241  0.00  0.00    +0.000 OA
ATOM      4  O   UNL     1     111.187 125.525 138.796  0.00  0.00    +0.000 OA
ATOM      5  C   UNL     1     112.422 125.448 138.083  0.00  0.00    +0.000 A 
ATOM      6  C   UNL     1     113.198 125.704 137.970  0.00  0.00    +0.000 A 
ATOM      7  C   UNL     1     112.081 124.838 137.584  0.00  0.00    +0.000 A 
ATOM      8  C   UNL     1     113.055 126.622 139.055  0.00  0.00    +0.000 A 
ATOM      9  C   UNL     1     112.555 124.488 136.958  0.00  0.00    +0.000 A 
ATOM     10  C   UNL     1     111.963 125.780 138.682  0.00  0.00    +0.000 A 
ATOM     11  C   UNL     1     112.279 126.367 139.168  0.00  0.00    +0.000 A 
ATOM     12  C   UNL     1     113.687 125.365 137.349  0.00  0.00    +0.000 A 
ATOM     13  C   UNL     1     113.363 124.754 136.840  0.00  0.00    +0.000 A 
ATOM     14  C   UNL     1     112.236 123.901 136.474  0.00  0.00    +0.000 C 
ENDROOT
BRANCH   8  16
ATOM     15  O   UNL     1     114.325 128.968 140.998  0.00  0.00    +0.000 OA
ATOM     16  C   UNL     1     113.372 127.209 139.540  0.00  0.00    +0.000 A 
ATOM     17  C   UNL     1     113.786 127.000 140.223  0.00  0.00    +0.000 A 
ATOM     18  C   UNL     1     113.276 128.005 139.343  0.00  0.00    +0.000 A 
ATOM     19  C   UNL     1     114.103 127.587 140.709  0.00  0.00    +0.000 A 
ATOM     20  C   UNL     1     113.594 128.591 139.829  0.00  0.00    +0.000 A 
ATOM     21  C   UNL     1     114.007 128.382 140.512  0.00  0.00    +0.000 A 
ENDBRANCH   8  16
BRANCH  11  22
ATOM     22  O   UNL     1     111.820 126.699 139.767  0.00  0.00    +0.000 OA
ATOM     23  C   UNL     1     111.022 126.500 139.833  0.00  0.00    +0.000 C 
ENDBRANCH  11  22
TORSDOF 2
ENDMDL
