MODEL 1
REMARK VINA RESULT:      -9.9      0.000      0.000
REMARK  Name = 
REMARK  6 active torsions:
REMARK  status: ('A' for Active; 'I' for Inactive)
REMARK    1  A    between atoms: O_1  and  C_6
REMARK    2  A    between atoms: O_1  and  C_19
REMARK    3  A    between atoms: O_12  and  C_17
REMARK    4  A    between atoms: O_12  and  C_30
REMARK    5  A    between atoms: C_21  and  C_22
REMARK    6  A    between atoms: C_31  and  C_33
REMARK                            x       y       z     vdW  Elec       q    Type
REMARK                         _______ _______ _______ _____ _____    ______ ____
ROOT
ATOM      1  O   UNL     1     105.302 127.552 142.232  0.00  0.00    +0.000 OA
ENDROOT
BRANCH   1   9
ATOM      2  C   UNL     1     102.460 131.138 142.272  0.00  0.00    +0.000 A 
ATOM      3  C   UNL     1     102.387 130.676 141.386  0.00  0.00    +0.000 A 
ATOM      4  C   UNL     1     102.942 129.865 141.199  0.00  0.00    +0.000 A 
ATOM      5  C   UNL     1     103.083 130.791 142.968  0.00  0.00    +0.000 A 
ATOM      6  C   UNL     1     103.638 129.982 142.785  0.00  0.00    +0.000 A 
ATOM      7  C   UNL     1     103.567 129.518 141.900  0.00  0.00    +0.000 A 
ATOM      8  C   UNL     1     104.120 128.711 141.716  0.00  0.00    +0.000 A 
ATOM      9  C   UNL     1     104.748 128.360 142.414  0.00  0.00    +0.000 A 
ATOM     10  C   UNL     1     104.818 128.824 143.299  0.00  0.00    +0.000 A 
ATOM     11  O   UNL     1     104.261 129.639 143.487  0.00  0.00    +0.000 OA
ATOM     12  O   UNL     1     104.049 128.248 140.832  0.00  0.00    +0.000 OA
ATOM     13  O   UNL     1     102.871 129.402 140.316  0.00  0.00    +0.000 OA
ATOM     14  O   UNL     1     101.906 131.948 142.459  0.00  0.00    +0.000 OA
BRANCH  10  15
ATOM     15  C   UNL     1     105.441 128.476 143.993  0.00  0.00    +0.000 A 
ATOM     16  C   UNL     1     105.146 127.758 144.623  0.00  0.00    +0.000 A 
ATOM     17  C   UNL     1     105.775 127.413 145.316  0.00  0.00    +0.000 A 
ATOM     18  C   UNL     1     106.701 127.786 145.380  0.00  0.00    +0.000 A 
ATOM     19  C   UNL     1     106.993 128.507 144.745  0.00  0.00    +0.000 A 
ATOM     20  C   UNL     1     106.362 128.848 144.055  0.00  0.00    +0.000 A 
ATOM     21  O   UNL     1     107.333 127.442 146.074  0.00  0.00    +0.000 OA
ENDBRANCH  10  15
ENDBRANCH   1   9
BRANCH   1  25
ATOM     22  O   UNL     1     107.017 127.708 141.214  0.00  0.00    +0.000 OA
ATOM     23  O   UNL     1     107.496 124.292 141.495  0.00  0.00    +0.000 OA
ATOM     24  O   UNL     1     105.543 125.841 142.373  0.00  0.00    +0.000 OA
ATOM     25  C   UNL     1     105.853 126.741 142.046  0.00  0.00    +0.000 C 
ATOM     26  C   UNL     1     106.709 126.818 141.537  0.00  0.00    +0.000 C 
ATOM     27  C   UNL     1     107.256 125.998 141.355  0.00  0.00    +0.000 C 
ATOM     28  C   UNL     1     106.950 125.104 141.678  0.00  0.00    +0.000 C 
ATOM     29  C   UNL     1     106.092 125.026 142.187  0.00  0.00    +0.000 C 
BRANCH  29  31
ATOM     30  O   UNL     1     105.181 124.260 143.304  0.00  0.00    +0.000 OA
ATOM     31  C   UNL     1     105.781 124.136 142.513  0.00  0.00    +0.000 C 
ENDBRANCH  29  31
BRANCH  27  32
ATOM     32  O   UNL     1     108.112 126.081 140.846  0.00  0.00    +0.000 OA
BRANCH  32  37
ATOM     33  O   UNL     1     109.867 126.189 141.810  0.00  0.00    +0.000 OA
ATOM     34  O   UNL     1     111.573 126.354 140.769  0.00  0.00    +0.000 OA
ATOM     35  O   UNL     1     111.523 126.411 138.769  0.00  0.00    +0.000 OA
ATOM     36  O   UNL     1     108.941 126.192 139.324  0.00  0.00    +0.000 OA
ATOM     37  C   UNL     1     108.965 126.163 140.331  0.00  0.00    +0.000 C 
ATOM     38  C   UNL     1     109.842 126.217 140.812  0.00  0.00    +0.000 C 
ATOM     39  C   UNL     1     110.696 126.300 140.287  0.00  0.00    +0.000 C 
ATOM     40  C   UNL     1     110.674 126.329 139.286  0.00  0.00    +0.000 C 
ATOM     41  C   UNL     1     109.797 126.275 138.804  0.00  0.00    +0.000 C 
ATOM     42  C   UNL     1     109.768 126.304 137.806  0.00  0.00    +0.000 C 
ENDBRANCH  32  37
ENDBRANCH  27  32
ENDBRANCH   1  25
TORSDOF 6
ENDMDL
MODEL 2
REMARK VINA RESULT:      -9.4      4.755      8.656
REMARK  Name = 
REMARK  6 active torsions:
REMARK  status: ('A' for Active; 'I' for Inactive)
REMARK    1  A    between atoms: O_1  and  C_6
REMARK    2  A    between atoms: O_1  and  C_19
REMARK    3  A    between atoms: O_12  and  C_17
REMARK    4  A    between atoms: O_12  and  C_30
REMARK    5  A    between atoms: C_21  and  C_22
REMARK    6  A    between atoms: C_31  and  C_33
REMARK                            x       y       z     vdW  Elec       q    Type
REMARK                         _______ _______ _______ _____ _____    ______ ____
ROOT
ATOM      1  O   UNL     1     111.451 129.940 139.546  0.00  0.00    +0.000 OA
ENDROOT
BRANCH   1   9
ATOM      2  C   UNL     1     114.181 129.424 135.909  0.00  0.00    +0.000 A 
ATOM      3  C   UNL     1     113.928 130.391 135.991  0.00  0.00    +0.000 A 
ATOM      4  C   UNL     1     113.330 130.689 136.735  0.00  0.00    +0.000 A 
ATOM      5  C   UNL     1     113.838 128.760 136.568  0.00  0.00    +0.000 A 
ATOM      6  C   UNL     1     113.242 129.053 137.312  0.00  0.00    +0.000 A 
ATOM      7  C   UNL     1     112.988 130.019 137.396  0.00  0.00    +0.000 A 
ATOM      8  C   UNL     1     112.392 130.314 138.138  0.00  0.00    +0.000 A 
ATOM      9  C   UNL     1     112.047 129.648 138.802  0.00  0.00    +0.000 A 
ATOM     10  C   UNL     1     112.301 128.682 138.718  0.00  0.00    +0.000 A 
ATOM     11  O   UNL     1     112.901 128.383 137.970  0.00  0.00    +0.000 OA
ATOM     12  O   UNL     1     112.139 131.277 138.222  0.00  0.00    +0.000 OA
ATOM     13  O   UNL     1     113.077 131.651 136.819  0.00  0.00    +0.000 OA
ATOM     14  O   UNL     1     114.777 129.126 135.166  0.00  0.00    +0.000 OA
BRANCH  10  15
ATOM     15  C   UNL     1     111.958 128.020 139.377  0.00  0.00    +0.000 A 
ATOM     16  C   UNL     1     111.072 127.578 139.235  0.00  0.00    +0.000 A 
ATOM     17  C   UNL     1     110.734 126.915 139.900  0.00  0.00    +0.000 A 
ATOM     18  C   UNL     1     111.281 126.694 140.707  0.00  0.00    +0.000 A 
ATOM     19  C   UNL     1     112.169 127.139 140.845  0.00  0.00    +0.000 A 
ATOM     20  C   UNL     1     112.503 127.800 140.180  0.00  0.00    +0.000 A 
ATOM     21  O   UNL     1     110.943 126.029 141.374  0.00  0.00    +0.000 OA
ENDBRANCH  10  15
ENDBRANCH   1   9
BRANCH   1  25
ATOM     22  O   UNL     1     112.214 130.788 141.189  0.00  0.00    +0.000 OA
ATOM     23  O   UNL     1     109.029 131.116 142.500  0.00  0.00    +0.000 OA
ATOM     24  O   UNL     1     109.856 130.104 140.203  0.00  0.00    +0.000 OA
ATOM     25  C   UNL     1     110.850 130.235 140.286  0.00  0.00    +0.000 C 
ATOM     26  C   UNL     1     111.231 130.659 141.106  0.00  0.00    +0.000 C 
ATOM     27  C   UNL     1     110.620 130.952 141.845  0.00  0.00    +0.000 C 
ATOM     28  C   UNL     1     109.632 130.823 141.765  0.00  0.00    +0.000 C 
ATOM     29  C   UNL     1     109.251 130.399 140.944  0.00  0.00    +0.000 C 
BRANCH  29  31
ATOM     30  O   UNL     1     108.078 129.596 140.140  0.00  0.00    +0.000 OA
ATOM     31  C   UNL     1     108.266 130.268 140.858  0.00  0.00    +0.000 C 
ENDBRANCH  29  31
BRANCH  27  32
ATOM     32  O   UNL     1     111.006 131.375 142.664  0.00  0.00    +0.000 OA
BRANCH  32  37
ATOM     33  O   UNL     1     111.490 130.255 144.255  0.00  0.00    +0.000 OA
ATOM     34  O   UNL     1     112.255 131.121 145.894  0.00  0.00    +0.000 OA
ATOM     35  O   UNL     1     112.534 133.102 145.940  0.00  0.00    +0.000 OA
ATOM     36  O   UNL     1     111.528 132.801 143.508  0.00  0.00    +0.000 OA
ATOM     37  C   UNL     1     111.387 131.803 143.484  0.00  0.00    +0.000 C 
ATOM     38  C   UNL     1     111.630 131.243 144.279  0.00  0.00    +0.000 C 
ATOM     39  C   UNL     1     112.013 131.681 145.099  0.00  0.00    +0.000 C 
ATOM     40  C   UNL     1     112.154 132.673 145.125  0.00  0.00    +0.000 C 
ATOM     41  C   UNL     1     111.912 133.232 144.330  0.00  0.00    +0.000 C 
ATOM     42  C   UNL     1     112.049 134.222 144.349  0.00  0.00    +0.000 C 
ENDBRANCH  32  37
ENDBRANCH  27  32
ENDBRANCH   1  25
TORSDOF 6
ENDMDL
MODEL 3
REMARK VINA RESULT:      -9.4      2.222      5.093
REMARK  Name = 
REMARK  6 active torsions:
REMARK  status: ('A' for Active; 'I' for Inactive)
REMARK    1  A    between atoms: O_1  and  C_6
REMARK    2  A    between atoms: O_1  and  C_19
REMARK    3  A    between atoms: O_12  and  C_17
REMARK    4  A    between atoms: O_12  and  C_30
REMARK    5  A    between atoms: C_21  and  C_22
REMARK    6  A    between atoms: C_31  and  C_33
REMARK                            x       y       z     vdW  Elec       q    Type
REMARK                         _______ _______ _______ _____ _____    ______ ____
ROOT
ATOM      1  O   UNL     1     106.655 127.093 144.247  0.00  0.00    +0.000 OA
ENDROOT
BRANCH   1   9
ATOM      2  C   UNL     1     105.521 126.879 148.675  0.00  0.00    +0.000 A 
ATOM      3  C   UNL     1     106.004 126.038 148.423  0.00  0.00    +0.000 A 
ATOM      4  C   UNL     1     106.329 125.911 147.486  0.00  0.00    +0.000 A 
ATOM      5  C   UNL     1     105.363 127.589 147.994  0.00  0.00    +0.000 A 
ATOM      6  C   UNL     1     105.685 127.466 147.058  0.00  0.00    +0.000 A 
ATOM      7  C   UNL     1     106.169 126.627 146.803  0.00  0.00    +0.000 A 
ATOM      8  C   UNL     1     106.491 126.502 145.869  0.00  0.00    +0.000 A 
ATOM      9  C   UNL     1     106.334 127.215 145.183  0.00  0.00    +0.000 A 
ATOM     10  C   UNL     1     105.850 128.054 145.438  0.00  0.00    +0.000 A 
ATOM     11  O   UNL     1     105.524 128.182 146.379  0.00  0.00    +0.000 OA
ATOM     12  O   UNL     1     106.974 125.664 145.615  0.00  0.00    +0.000 OA
ATOM     13  O   UNL     1     106.811 125.074 147.231  0.00  0.00    +0.000 OA
ATOM     14  O   UNL     1     105.196 127.006 149.611  0.00  0.00    +0.000 OA
BRANCH  10  15
ATOM     15  C   UNL     1     105.693 128.762 144.756  0.00  0.00    +0.000 A 
ATOM     16  C   UNL     1     106.377 129.475 144.601  0.00  0.00    +0.000 A 
ATOM     17  C   UNL     1     106.214 130.182 143.916  0.00  0.00    +0.000 A 
ATOM     18  C   UNL     1     105.367 130.177 143.385  0.00  0.00    +0.000 A 
ATOM     19  C   UNL     1     104.683 129.460 143.544  0.00  0.00    +0.000 A 
ATOM     20  C   UNL     1     104.850 128.756 144.228  0.00  0.00    +0.000 A 
ATOM     21  O   UNL     1     105.202 130.885 142.698  0.00  0.00    +0.000 OA
ENDBRANCH  10  15
ENDBRANCH   1   9
BRANCH   1  25
ATOM     22  O   UNL     1     105.590 125.999 142.955  0.00  0.00    +0.000 OA
ATOM     23  O   UNL     1     107.937 126.623 140.490  0.00  0.00    +0.000 OA
ATOM     24  O   UNL     1     107.830 127.405 143.012  0.00  0.00    +0.000 OA
ATOM     25  C   UNL     1     106.972 126.973 143.308  0.00  0.00    +0.000 C 
ATOM     26  C   UNL     1     106.440 126.427 142.663  0.00  0.00    +0.000 C 
ATOM     27  C   UNL     1     106.765 126.312 141.721  0.00  0.00    +0.000 C 
ATOM     28  C   UNL     1     107.618 126.740 141.425  0.00  0.00    +0.000 C 
ATOM     29  C   UNL     1     108.151 127.287 142.071  0.00  0.00    +0.000 C 
BRANCH  29  31
ATOM     30  O   UNL     1     109.652 127.721 142.544  0.00  0.00    +0.000 OA
ATOM     31  C   UNL     1     109.003 127.717 141.782  0.00  0.00    +0.000 C 
ENDBRANCH  29  31
BRANCH  27  32
ATOM     32  O   UNL     1     106.230 125.765 141.079  0.00  0.00    +0.000 OA
BRANCH  32  37
ATOM     33  O   UNL     1     106.685 123.836 140.776  0.00  0.00    +0.000 OA
ATOM     34  O   UNL     1     105.599 122.739 139.496  0.00  0.00    +0.000 OA
ATOM     35  O   UNL     1     104.062 123.571 138.522  0.00  0.00    +0.000 OA
ATOM     36  O   UNL     1     104.916 125.632 139.950  0.00  0.00    +0.000 OA
ATOM     37  C   UNL     1     105.691 125.214 140.442  0.00  0.00    +0.000 C 
ATOM     38  C   UNL     1     105.918 124.250 140.290  0.00  0.00    +0.000 C 
ATOM     39  C   UNL     1     105.371 123.703 139.647  0.00  0.00    +0.000 C 
ATOM     40  C   UNL     1     104.601 124.117 139.158  0.00  0.00    +0.000 C 
ATOM     41  C   UNL     1     104.374 125.081 139.309  0.00  0.00    +0.000 C 
ATOM     42  C   UNL     1     103.607 125.500 138.825  0.00  0.00    +0.000 C 
ENDBRANCH  32  37
ENDBRANCH  27  32
ENDBRANCH   1  25
TORSDOF 6
ENDMDL
MODEL 4
REMARK VINA RESULT:      -9.3      2.890      8.454
REMARK  Name = 
REMARK  6 active torsions:
REMARK  status: ('A' for Active; 'I' for Inactive)
REMARK    1  A    between atoms: O_1  and  C_6
REMARK    2  A    between atoms: O_1  and  C_19
REMARK    3  A    between atoms: O_12  and  C_17
REMARK    4  A    between atoms: O_12  and  C_30
REMARK    5  A    between atoms: C_21  and  C_22
REMARK    6  A    between atoms: C_31  and  C_33
REMARK                            x       y       z     vdW  Elec       q    Type
REMARK                         _______ _______ _______ _____ _____    ______ ____
ROOT
ATOM      1  O   UNL     1     110.826 128.302 138.802  0.00  0.00    +0.000 OA
ENDROOT
BRANCH   1   9
ATOM      2  C   UNL     1     113.938 125.550 136.883  0.00  0.00    +0.000 A 
ATOM      3  C   UNL     1     114.116 125.605 137.868  0.00  0.00    +0.000 A 
ATOM      4  C   UNL     1     113.529 126.166 138.451  0.00  0.00    +0.000 A 
ATOM      5  C   UNL     1     113.178 126.055 136.483  0.00  0.00    +0.000 A 
ATOM      6  C   UNL     1     112.590 126.616 137.061  0.00  0.00    +0.000 A 
ATOM      7  C   UNL     1     112.765 126.672 138.046  0.00  0.00    +0.000 A 
ATOM      8  C   UNL     1     112.179 127.233 138.625  0.00  0.00    +0.000 A 
ATOM      9  C   UNL     1     111.414 127.741 138.225  0.00  0.00    +0.000 A 
ATOM     10  C   UNL     1     111.239 127.685 137.240  0.00  0.00    +0.000 A 
ATOM     11  O   UNL     1     111.828 127.121 136.655  0.00  0.00    +0.000 OA
ATOM     12  O   UNL     1     112.355 127.288 139.608  0.00  0.00    +0.000 OA
ATOM     13  O   UNL     1     113.704 126.222 139.433  0.00  0.00    +0.000 OA
ATOM     14  O   UNL     1     114.524 124.989 136.301  0.00  0.00    +0.000 OA
BRANCH  10  15
ATOM     15  C   UNL     1     110.479 128.190 136.843  0.00  0.00    +0.000 A 
ATOM     16  C   UNL     1     110.591 129.147 136.578  0.00  0.00    +0.000 A 
ATOM     17  C   UNL     1     109.826 129.648 136.180  0.00  0.00    +0.000 A 
ATOM     18  C   UNL     1     108.946 129.192 136.047  0.00  0.00    +0.000 A 
ATOM     19  C   UNL     1     108.837 128.230 136.314  0.00  0.00    +0.000 A 
ATOM     20  C   UNL     1     109.604 127.734 136.710  0.00  0.00    +0.000 A 
ATOM     21  O   UNL     1     108.177 129.692 135.648  0.00  0.00    +0.000 OA
ENDBRANCH  10  15
ENDBRANCH   1   9
BRANCH   1  25
ATOM     22  O   UNL     1     109.399 127.452 139.916  0.00  0.00    +0.000 OA
ATOM     23  O   UNL     1     108.492 130.562 141.131  0.00  0.00    +0.000 OA
ATOM     24  O   UNL     1     110.371 129.860 139.411  0.00  0.00    +0.000 OA
ATOM     25  C   UNL     1     110.241 128.862 139.385  0.00  0.00    +0.000 C 
ATOM     26  C   UNL     1     109.528 128.438 139.941  0.00  0.00    +0.000 C 
ATOM     27  C   UNL     1     108.945 129.009 140.524  0.00  0.00    +0.000 C 
ATOM     28  C   UNL     1     109.073 129.999 140.552  0.00  0.00    +0.000 C 
ATOM     29  C   UNL     1     109.786 130.425 139.995  0.00  0.00    +0.000 C 
BRANCH  29  31
ATOM     30  O   UNL     1     110.608 131.675 139.340  0.00  0.00    +0.000 OA
ATOM     31  C   UNL     1     109.919 131.413 140.017  0.00  0.00    +0.000 C 
ENDBRANCH  29  31
BRANCH  27  32
ATOM     32  O   UNL     1     108.234 128.579 141.079  0.00  0.00    +0.000 OA
BRANCH  32  37
ATOM     33  O   UNL     1     108.705 127.644 142.788  0.00  0.00    +0.000 OA
ATOM     34  O   UNL     1     107.265 126.796 143.896  0.00  0.00    +0.000 OA
ATOM     35  O   UNL     1     105.358 126.883 143.295  0.00  0.00    +0.000 OA
ATOM     36  O   UNL     1     106.558 128.198 141.332  0.00  0.00    +0.000 OA
ATOM     37  C   UNL     1     107.519 128.155 141.635  0.00  0.00    +0.000 C 
ATOM     38  C   UNL     1     107.754 127.687 142.489  0.00  0.00    +0.000 C 
ATOM     39  C   UNL     1     107.029 127.263 143.042  0.00  0.00    +0.000 C 
ATOM     40  C   UNL     1     106.074 127.305 142.743  0.00  0.00    +0.000 C 
ATOM     41  C   UNL     1     105.838 127.773 141.889  0.00  0.00    +0.000 C 
ATOM     42  C   UNL     1     104.887 127.818 141.585  0.00  0.00    +0.000 C 
ENDBRANCH  32  37
ENDBRANCH  27  32
ENDBRANCH   1  25
TORSDOF 6
ENDMDL
MODEL 5
REMARK VINA RESULT:      -9.2      2.335      4.674
REMARK  Name = 
REMARK  6 active torsions:
REMARK  status: ('A' for Active; 'I' for Inactive)
REMARK    1  A    between atoms: O_1  and  C_6
REMARK    2  A    between atoms: O_1  and  C_19
REMARK    3  A    between atoms: O_12  and  C_17
REMARK    4  A    between atoms: O_12  and  C_30
REMARK    5  A    between atoms: C_21  and  C_22
REMARK    6  A    between atoms: C_31  and  C_33
REMARK                            x       y       z     vdW  Elec       q    Type
REMARK                         _______ _______ _______ _____ _____    ______ ____
ROOT
ATOM      1  O   UNL     1     105.396 126.933 144.910  0.00  0.00    +0.000 OA
ENDROOT
BRANCH   1   9
ATOM      2  C   UNL     1     104.152 124.685 148.697  0.00  0.00    +0.000 A 
ATOM      3  C   UNL     1     104.110 124.056 147.918  0.00  0.00    +0.000 A 
ATOM      4  C   UNL     1     104.351 124.379 147.003  0.00  0.00    +0.000 A 
ATOM      5  C   UNL     1     104.432 125.631 148.563  0.00  0.00    +0.000 A 
ATOM      6  C   UNL     1     104.673 125.957 147.651  0.00  0.00    +0.000 A 
ATOM      7  C   UNL     1     104.632 125.331 146.870  0.00  0.00    +0.000 A 
ATOM      8  C   UNL     1     104.873 125.655 145.959  0.00  0.00    +0.000 A 
ATOM      9  C   UNL     1     105.155 126.606 145.821  0.00  0.00    +0.000 A 
ATOM     10  C   UNL     1     105.196 127.232 146.602  0.00  0.00    +0.000 A 
ATOM     11  O   UNL     1     104.954 126.908 147.521  0.00  0.00    +0.000 OA
ATOM     12  O   UNL     1     104.832 125.029 145.180  0.00  0.00    +0.000 OA
ATOM     13  O   UNL     1     104.310 123.754 146.224  0.00  0.00    +0.000 OA
ATOM     14  O   UNL     1     103.911 124.362 149.612  0.00  0.00    +0.000 OA
BRANCH  10  15
ATOM     15  C   UNL     1     105.477 128.177 146.465  0.00  0.00    +0.000 A 
ATOM     16  C   UNL     1     106.442 128.431 146.525  0.00  0.00    +0.000 A 
ATOM     17  C   UNL     1     106.717 129.380 146.387  0.00  0.00    +0.000 A 
ATOM     18  C   UNL     1     106.027 130.076 146.188  0.00  0.00    +0.000 A 
ATOM     19  C   UNL     1     105.060 129.817 146.129  0.00  0.00    +0.000 A 
ATOM     20  C   UNL     1     104.789 128.869 146.267  0.00  0.00    +0.000 A 
ATOM     21  O   UNL     1     106.301 131.028 146.049  0.00  0.00    +0.000 OA
ENDBRANCH  10  15
ENDBRANCH   1   9
BRANCH   1  25
ATOM     22  O   UNL     1     107.183 126.514 144.116  0.00  0.00    +0.000 OA
ATOM     23  O   UNL     1     106.319 128.251 141.251  0.00  0.00    +0.000 OA
ATOM     24  O   UNL     1     104.964 127.802 143.475  0.00  0.00    +0.000 OA
ATOM     25  C   UNL     1     105.631 127.259 143.998  0.00  0.00    +0.000 C 
ATOM     26  C   UNL     1     106.523 127.050 143.601  0.00  0.00    +0.000 C 
ATOM     27  C   UNL     1     106.751 127.383 142.682  0.00  0.00    +0.000 C 
ATOM     28  C   UNL     1     106.090 127.922 142.162  0.00  0.00    +0.000 C 
ATOM     29  C   UNL     1     105.196 128.132 142.559  0.00  0.00    +0.000 C 
BRANCH  29  31
ATOM     30  O   UNL     1     103.973 129.207 142.678  0.00  0.00    +0.000 OA
ATOM     31  C   UNL     1     104.532 128.670 142.045  0.00  0.00    +0.000 C 
ENDBRANCH  29  31
BRANCH  27  32
ATOM     32  O   UNL     1     107.645 127.171 142.290  0.00  0.00    +0.000 OA
BRANCH  32  37
ATOM     33  O   UNL     1     107.915 125.504 141.210  0.00  0.00    +0.000 OA
ATOM     34  O   UNL     1     109.716 125.099 140.426  0.00  0.00    +0.000 OA
ATOM     35  O   UNL     1     111.241 126.359 140.722  0.00  0.00    +0.000 OA
ATOM     36  O   UNL     1     109.310 127.600 142.045  0.00  0.00    +0.000 OA
ATOM     37  C   UNL     1     108.541 126.965 141.897  0.00  0.00    +0.000 C 
ATOM     38  C   UNL     1     108.676 126.132 141.357  0.00  0.00    +0.000 C 
ATOM     39  C   UNL     1     109.581 125.932 140.966  0.00  0.00    +0.000 C 
ATOM     40  C   UNL     1     110.346 126.562 141.112  0.00  0.00    +0.000 C 
ATOM     41  C   UNL     1     110.211 127.395 141.651  0.00  0.00    +0.000 C 
ATOM     42  C   UNL     1     110.971 128.027 141.801  0.00  0.00    +0.000 C 
ENDBRANCH  32  37
ENDBRANCH  27  32
ENDBRANCH   1  25
TORSDOF 6
ENDMDL
MODEL 6
REMARK VINA RESULT:      -9.1      5.307      8.930
REMARK  Name = 
REMARK  6 active torsions:
REMARK  status: ('A' for Active; 'I' for Inactive)
REMARK    1  A    between atoms: O_1  and  C_6
REMARK    2  A    between atoms: O_1  and  C_19
REMARK    3  A    between atoms: O_12  and  C_17
REMARK    4  A    between atoms: O_12  and  C_30
REMARK    5  A    between atoms: C_21  and  C_22
REMARK    6  A    between atoms: C_31  and  C_33
REMARK                            x       y       z     vdW  Elec       q    Type
REMARK                         _______ _______ _______ _____ _____    ______ ____
ROOT
ATOM      1  O   UNL     1     111.298 128.562 138.672  0.00  0.00    +0.000 OA
ENDROOT
BRANCH   1   9
ATOM      2  C   UNL     1     112.985 124.757 136.769  0.00  0.00    +0.000 A 
ATOM      3  C   UNL     1     112.282 124.502 137.435  0.00  0.00    +0.000 A 
ATOM      4  C   UNL     1     111.802 125.212 137.951  0.00  0.00    +0.000 A 
ATOM      5  C   UNL     1     113.208 125.717 136.618  0.00  0.00    +0.000 A 
ATOM      6  C   UNL     1     112.732 126.428 137.130  0.00  0.00    +0.000 A 
ATOM      7  C   UNL     1     112.028 126.176 137.798  0.00  0.00    +0.000 A 
ATOM      8  C   UNL     1     111.552 126.885 138.310  0.00  0.00    +0.000 A 
ATOM      9  C   UNL     1     111.774 127.850 138.161  0.00  0.00    +0.000 A 
ATOM     10  C   UNL     1     112.477 128.102 137.493  0.00  0.00    +0.000 A 
ATOM     11  O   UNL     1     112.959 127.389 136.975  0.00  0.00    +0.000 OA
ATOM     12  O   UNL     1     110.850 126.632 138.976  0.00  0.00    +0.000 OA
ATOM     13  O   UNL     1     111.101 124.961 138.617  0.00  0.00    +0.000 OA
ATOM     14  O   UNL     1     113.464 124.048 136.253  0.00  0.00    +0.000 OA
BRANCH  10  15
ATOM     15  C   UNL     1     112.698 129.061 137.344  0.00  0.00    +0.000 A 
ATOM     16  C   UNL     1     113.426 129.500 137.871  0.00  0.00    +0.000 A 
ATOM     17  C   UNL     1     113.643 130.461 137.717  0.00  0.00    +0.000 A 
ATOM     18  C   UNL     1     113.132 130.985 137.036  0.00  0.00    +0.000 A 
ATOM     19  C   UNL     1     112.401 130.542 136.510  0.00  0.00    +0.000 A 
ATOM     20  C   UNL     1     112.188 129.582 136.667  0.00  0.00    +0.000 A 
ATOM     21  O   UNL     1     113.347 131.949 136.881  0.00  0.00    +0.000 OA
ENDBRANCH  10  15
ENDBRANCH   1   9
BRANCH   1  25
ATOM     22  O   UNL     1     111.804 128.955 140.567  0.00  0.00    +0.000 OA
ATOM     23  O   UNL     1     109.361 131.401 140.712  0.00  0.00    +0.000 OA
ATOM     24  O   UNL     1     110.075 129.786 138.746  0.00  0.00    +0.000 OA
ATOM     25  C   UNL     1     110.817 129.269 139.185  0.00  0.00    +0.000 C 
ATOM     26  C   UNL     1     111.070 129.466 140.132  0.00  0.00    +0.000 C 
ATOM     27  C   UNL     1     110.581 130.180 140.640  0.00  0.00    +0.000 C 
ATOM     28  C   UNL     1     109.843 130.694 140.205  0.00  0.00    +0.000 C 
ATOM     29  C   UNL     1     109.590 130.497 139.257  0.00  0.00    +0.000 C 
BRANCH  29  31
ATOM     30  O   UNL     1     108.516 130.494 138.028  0.00  0.00    +0.000 OA
ATOM     31  C   UNL     1     108.855 131.007 138.818  0.00  0.00    +0.000 C 
ENDBRANCH  29  31
BRANCH  27  32
ATOM     32  O   UNL     1     110.837 130.373 141.586  0.00  0.00    +0.000 OA
BRANCH  32  37
ATOM     33  O   UNL     1     112.210 131.773 142.006  0.00  0.00    +0.000 OA
ATOM     34  O   UNL     1     112.710 132.145 143.912  0.00  0.00    +0.000 OA
ATOM     35  O   UNL     1     111.839 131.119 145.393  0.00  0.00    +0.000 OA
ATOM     36  O   UNL     1     110.652 130.045 143.281  0.00  0.00    +0.000 OA
ATOM     37  C   UNL     1     111.090 130.562 142.535  0.00  0.00    +0.000 C 
ATOM     38  C   UNL     1     111.776 131.262 142.745  0.00  0.00    +0.000 C 
ATOM     39  C   UNL     1     112.024 131.445 143.702  0.00  0.00    +0.000 C 
ATOM     40  C   UNL     1     111.590 130.933 144.445  0.00  0.00    +0.000 C 
ATOM     41  C   UNL     1     110.904 130.233 144.235  0.00  0.00    +0.000 C 
ATOM     42  C   UNL     1     110.467 129.719 144.972  0.00  0.00    +0.000 C 
ENDBRANCH  32  37
ENDBRANCH  27  32
ENDBRANCH   1  25
TORSDOF 6
ENDMDL
MODEL 7
REMARK VINA RESULT:      -9.1      3.619      8.723
REMARK  Name = 
REMARK  6 active torsions:
REMARK  status: ('A' for Active; 'I' for Inactive)
REMARK    1  A    between atoms: O_1  and  C_6
REMARK    2  A    between atoms: O_1  and  C_19
REMARK    3  A    between atoms: O_12  and  C_17
REMARK    4  A    between atoms: O_12  and  C_30
REMARK    5  A    between atoms: C_21  and  C_22
REMARK    6  A    between atoms: C_31  and  C_33
REMARK                            x       y       z     vdW  Elec       q    Type
REMARK                         _______ _______ _______ _____ _____    ______ ____
ROOT
ATOM      1  O   UNL     1     110.984 128.637 137.929  0.00  0.00    +0.000 OA
ENDROOT
BRANCH   1   9
ATOM      2  C   UNL     1     112.850 124.677 136.596  0.00  0.00    +0.000 A 
ATOM      3  C   UNL     1     111.871 124.661 136.387  0.00  0.00    +0.000 A 
ATOM      4  C   UNL     1     111.299 125.450 136.611  0.00  0.00    +0.000 A 
ATOM      5  C   UNL     1     113.257 125.478 137.028  0.00  0.00    +0.000 A 
ATOM      6  C   UNL     1     112.690 126.267 137.254  0.00  0.00    +0.000 A 
ATOM      7  C   UNL     1     111.710 126.254 137.045  0.00  0.00    +0.000 A 
ATOM      8  C   UNL     1     111.143 127.041 137.270  0.00  0.00    +0.000 A 
ATOM      9  C   UNL     1     111.549 127.847 137.704  0.00  0.00    +0.000 A 
ATOM     10  C   UNL     1     112.529 127.861 137.912  0.00  0.00    +0.000 A 
ATOM     11  O   UNL     1     113.103 127.068 137.687  0.00  0.00    +0.000 OA
ATOM     12  O   UNL     1     110.165 127.027 137.061  0.00  0.00    +0.000 OA
ATOM     13  O   UNL     1     110.322 125.437 136.403  0.00  0.00    +0.000 OA
ATOM     14  O   UNL     1     113.422 123.889 136.372  0.00  0.00    +0.000 OA
BRANCH  10  15
ATOM     15  C   UNL     1     112.933 128.661 138.343  0.00  0.00    +0.000 A 
ATOM     16  C   UNL     1     113.254 129.428 137.787  0.00  0.00    +0.000 A 
ATOM     17  C   UNL     1     113.658 130.228 138.225  0.00  0.00    +0.000 A 
ATOM     18  C   UNL     1     113.741 130.263 139.221  0.00  0.00    +0.000 A 
ATOM     19  C   UNL     1     113.418 129.492 139.776  0.00  0.00    +0.000 A 
ATOM     20  C   UNL     1     113.016 128.695 139.334  0.00  0.00    +0.000 A 
ATOM     21  O   UNL     1     114.146 131.064 139.662  0.00  0.00    +0.000 OA
ENDBRANCH  10  15
ENDBRANCH   1   9
BRANCH   1  25
ATOM     22  O   UNL     1     109.917 128.665 139.621  0.00  0.00    +0.000 OA
ATOM     23  O   UNL     1     108.701 131.799 138.804  0.00  0.00    +0.000 OA
ATOM     24  O   UNL     1     110.375 130.207 137.521  0.00  0.00    +0.000 OA
ATOM     25  C   UNL     1     110.413 129.424 138.152  0.00  0.00    +0.000 C 
ATOM     26  C   UNL     1     109.880 129.438 138.996  0.00  0.00    +0.000 C 
ATOM     27  C   UNL     1     109.308 130.234 139.212  0.00  0.00    +0.000 C 
ATOM     28  C   UNL     1     109.269 131.012 138.587  0.00  0.00    +0.000 C 
ATOM     29  C   UNL     1     109.803 130.998 137.741  0.00  0.00    +0.000 C 
BRANCH  29  31
ATOM     30  O   UNL     1     110.536 131.719 136.473  0.00  0.00    +0.000 OA
ATOM     31  C   UNL     1     109.768 131.772 137.112  0.00  0.00    +0.000 C 
ENDBRANCH  29  31
BRANCH  27  32
ATOM     32  O   UNL     1     108.777 130.243 140.058  0.00  0.00    +0.000 OA
BRANCH  32  37
ATOM     33  O   UNL     1     109.470 131.182 141.688  0.00  0.00    +0.000 OA
ATOM     34  O   UNL     1     108.389 131.188 143.377  0.00  0.00    +0.000 OA
ATOM     35  O   UNL     1     106.618 130.259 143.433  0.00  0.00    +0.000 OA
ATOM     36  O   UNL     1     107.349 129.781 140.931  0.00  0.00    +0.000 OA
ATOM     37  C   UNL     1     108.241 130.249 140.902  0.00  0.00    +0.000 C 
ATOM     38  C   UNL     1     108.587 130.718 141.717  0.00  0.00    +0.000 C 
ATOM     39  C   UNL     1     108.042 130.719 142.562  0.00  0.00    +0.000 C 
ATOM     40  C   UNL     1     107.155 130.255 142.593  0.00  0.00    +0.000 C 
ATOM     41  C   UNL     1     106.808 129.786 141.778  0.00  0.00    +0.000 C 
ATOM     42  C   UNL     1     105.924 129.320 141.802  0.00  0.00    +0.000 C 
ENDBRANCH  32  37
ENDBRANCH  27  32
ENDBRANCH   1  25
TORSDOF 6
ENDMDL
MODEL 8
REMARK VINA RESULT:      -9.0      3.389      7.167
REMARK  Name = 
REMARK  6 active torsions:
REMARK  status: ('A' for Active; 'I' for Inactive)
REMARK    1  A    between atoms: O_1  and  C_6
REMARK    2  A    between atoms: O_1  and  C_19
REMARK    3  A    between atoms: O_12  and  C_17
REMARK    4  A    between atoms: O_12  and  C_30
REMARK    5  A    between atoms: C_21  and  C_22
REMARK    6  A    between atoms: C_31  and  C_33
REMARK                            x       y       z     vdW  Elec       q    Type
REMARK                         _______ _______ _______ _____ _____    ______ ____
ROOT
ATOM      1  O   UNL     1     110.630 128.937 139.098  0.00  0.00    +0.000 OA
ENDROOT
BRANCH   1   9
ATOM      2  C   UNL     1     110.444 132.943 136.895  0.00  0.00    +0.000 A 
ATOM      3  C   UNL     1     110.244 133.096 137.864  0.00  0.00    +0.000 A 
ATOM      4  C   UNL     1     110.241 132.325 138.501  0.00  0.00    +0.000 A 
ATOM      5  C   UNL     1     110.639 132.024 136.563  0.00  0.00    +0.000 A 
ATOM      6  C   UNL     1     110.638 131.252 137.195  0.00  0.00    +0.000 A 
ATOM      7  C   UNL     1     110.438 131.403 138.165  0.00  0.00    +0.000 A 
ATOM      8  C   UNL     1     110.436 130.633 138.798  0.00  0.00    +0.000 A 
ATOM      9  C   UNL     1     110.632 129.708 138.467  0.00  0.00    +0.000 A 
ATOM     10  C   UNL     1     110.831 129.558 137.497  0.00  0.00    +0.000 A 
ATOM     11  O   UNL     1     110.834 130.332 136.857  0.00  0.00    +0.000 OA
ATOM     12  O   UNL     1     110.237 130.784 139.766  0.00  0.00    +0.000 OA
ATOM     13  O   UNL     1     110.043 132.475 139.469  0.00  0.00    +0.000 OA
ATOM     14  O   UNL     1     110.447 133.713 136.258  0.00  0.00    +0.000 OA
BRANCH  10  15
ATOM     15  C   UNL     1     111.026 128.639 137.168  0.00  0.00    +0.000 A 
ATOM     16  C   UNL     1     110.287 128.053 136.837  0.00  0.00    +0.000 A 
ATOM     17  C   UNL     1     110.489 127.133 136.509  0.00  0.00    +0.000 A 
ATOM     18  C   UNL     1     111.431 126.798 136.510  0.00  0.00    +0.000 A 
ATOM     19  C   UNL     1     112.170 127.389 136.843  0.00  0.00    +0.000 A 
ATOM     20  C   UNL     1     111.964 128.307 137.170  0.00  0.00    +0.000 A 
ATOM     21  O   UNL     1     111.635 125.876 136.181  0.00  0.00    +0.000 OA
ENDBRANCH  10  15
ENDBRANCH   1   9
BRANCH   1  25
ATOM     22  O   UNL     1     108.904 128.167 139.752  0.00  0.00    +0.000 OA
ATOM     23  O   UNL     1     110.649 125.859 141.648  0.00  0.00    +0.000 OA
ATOM     24  O   UNL     1     111.504 127.780 140.048  0.00  0.00    +0.000 OA
ATOM     25  C   UNL     1     110.630 128.169 139.735  0.00  0.00    +0.000 C 
ATOM     26  C   UNL     1     109.768 127.784 140.061  0.00  0.00    +0.000 C 
ATOM     27  C   UNL     1     109.778 127.011 140.701  0.00  0.00    +0.000 C 
ATOM     28  C   UNL     1     110.644 126.625 141.014  0.00  0.00    +0.000 C 
ATOM     29  C   UNL     1     111.508 127.010 140.687  0.00  0.00    +0.000 C 
BRANCH  29  31
ATOM     30  O   UNL     1     113.109 126.922 140.380  0.00  0.00    +0.000 OA
ATOM     31  C   UNL     1     112.376 126.628 140.995  0.00  0.00    +0.000 C 
ENDBRANCH  29  31
BRANCH  27  32
ATOM     32  O   UNL     1     108.913 126.631 141.025  0.00  0.00    +0.000 OA
BRANCH  32  37
ATOM     33  O   UNL     1     108.068 127.345 142.697  0.00  0.00    +0.000 OA
ATOM     34  O   UNL     1     106.334 126.579 143.350  0.00  0.00    +0.000 OA
ATOM     35  O   UNL     1     105.448 125.102 142.333  0.00  0.00    +0.000 OA
ATOM     36  O   UNL     1     107.601 125.507 140.842  0.00  0.00    +0.000 OA
ATOM     37  C   UNL     1     108.048 126.251 141.354  0.00  0.00    +0.000 C 
ATOM     38  C   UNL     1     107.626 126.608 142.190  0.00  0.00    +0.000 C 
ATOM     39  C   UNL     1     106.756 126.222 142.515  0.00  0.00    +0.000 C 
ATOM     40  C   UNL     1     106.310 125.482 142.007  0.00  0.00    +0.000 C 
ATOM     41  C   UNL     1     106.732 125.125 141.171  0.00  0.00    +0.000 C 
ATOM     42  C   UNL     1     106.292 124.387 140.660  0.00  0.00    +0.000 C 
ENDBRANCH  32  37
ENDBRANCH  27  32
ENDBRANCH   1  25
TORSDOF 6
ENDMDL
MODEL 9
REMARK VINA RESULT:      -9.0      2.916      8.218
REMARK  Name = 
REMARK  6 active torsions:
REMARK  status: ('A' for Active; 'I' for Inactive)
REMARK    1  A    between atoms: O_1  and  C_6
REMARK    2  A    between atoms: O_1  and  C_19
REMARK    3  A    between atoms: O_12  and  C_17
REMARK    4  A    between atoms: O_12  and  C_30
REMARK    5  A    between atoms: C_21  and  C_22
REMARK    6  A    between atoms: C_31  and  C_33
REMARK                            x       y       z     vdW  Elec       q    Type
REMARK                         _______ _______ _______ _____ _____    ______ ____
ROOT
ATOM      1  O   UNL     1     111.172 127.909 139.250  0.00  0.00    +0.000 OA
ENDROOT
BRANCH   1   9
ATOM      2  C   UNL     1     114.192 124.938 137.520  0.00  0.00    +0.000 A 
ATOM      3  C   UNL     1     113.273 124.679 137.218  0.00  0.00    +0.000 A 
ATOM      4  C   UNL     1     112.482 125.221 137.503  0.00  0.00    +0.000 A 
ATOM      5  C   UNL     1     114.322 125.735 138.104  0.00  0.00    +0.000 A 
ATOM      6  C   UNL     1     113.536 126.278 138.391  0.00  0.00    +0.000 A 
ATOM      7  C   UNL     1     112.615 126.022 138.090  0.00  0.00    +0.000 A 
ATOM      8  C   UNL     1     111.829 126.563 138.376  0.00  0.00    +0.000 A 
ATOM      9  C   UNL     1     111.956 127.365 138.963  0.00  0.00    +0.000 A 
ATOM     10  C   UNL     1     112.877 127.622 139.264  0.00  0.00    +0.000 A 
ATOM     11  O   UNL     1     113.671 127.077 138.977  0.00  0.00    +0.000 OA
ATOM     12  O   UNL     1     110.911 126.306 138.075  0.00  0.00    +0.000 OA
ATOM     13  O   UNL     1     111.564 124.965 137.203  0.00  0.00    +0.000 OA
ATOM     14  O   UNL     1     114.982 124.396 137.236  0.00  0.00    +0.000 OA
BRANCH  10  15
ATOM     15  C   UNL     1     113.004 128.418 139.847  0.00  0.00    +0.000 A 
ATOM     16  C   UNL     1     113.176 129.317 139.445  0.00  0.00    +0.000 A 
ATOM     17  C   UNL     1     113.302 130.111 140.035  0.00  0.00    +0.000 A 
ATOM     18  C   UNL     1     113.256 130.007 141.028  0.00  0.00    +0.000 A 
ATOM     19  C   UNL     1     113.083 129.104 141.428  0.00  0.00    +0.000 A 
ATOM     20  C   UNL     1     112.958 128.313 140.835  0.00  0.00    +0.000 A 
ATOM     21  O   UNL     1     113.382 130.803 141.621  0.00  0.00    +0.000 OA
ENDBRANCH  10  15
ENDBRANCH   1   9
BRANCH   1  25
ATOM     22  O   UNL     1     109.847 127.168 140.552  0.00  0.00    +0.000 OA
ATOM     23  O   UNL     1     108.020 130.101 140.365  0.00  0.00    +0.000 OA
ATOM     24  O   UNL     1     110.257 129.377 139.157  0.00  0.00    +0.000 OA
ATOM     25  C   UNL     1     110.384 128.452 139.531  0.00  0.00    +0.000 C 
ATOM     26  C   UNL     1     109.722 128.082 140.181  0.00  0.00    +0.000 C 
ATOM     27  C   UNL     1     108.932 128.636 140.458  0.00  0.00    +0.000 C 
ATOM     28  C   UNL     1     108.804 129.555 140.088  0.00  0.00    +0.000 C 
ATOM     29  C   UNL     1     109.467 129.925 139.436  0.00  0.00    +0.000 C 
BRANCH  29  31
ATOM     30  O   UNL     1     110.192 131.139 138.620  0.00  0.00    +0.000 OA
ATOM     31  C   UNL     1     109.345 130.842 139.062  0.00  0.00    +0.000 C 
ENDBRANCH  29  31
BRANCH  27  32
ATOM     32  O   UNL     1     108.273 128.261 141.109  0.00  0.00    +0.000 OA
BRANCH  32  37
ATOM     33  O   UNL     1     108.616 128.363 143.082  0.00  0.00    +0.000 OA
ATOM     34  O   UNL     1     107.281 127.604 144.371  0.00  0.00    +0.000 OA
ATOM     35  O   UNL     1     105.607 126.746 143.688  0.00  0.00    +0.000 OA
ATOM     36  O   UNL     1     106.767 127.451 141.412  0.00  0.00    +0.000 OA
ATOM     37  C   UNL     1     107.610 127.884 141.756  0.00  0.00    +0.000 C 
ATOM     38  C   UNL     1     107.781 127.935 142.742  0.00  0.00    +0.000 C 
ATOM     39  C   UNL     1     107.110 127.553 143.385  0.00  0.00    +0.000 C 
ATOM     40  C   UNL     1     106.271 127.123 143.046  0.00  0.00    +0.000 C 
ATOM     41  C   UNL     1     106.100 127.072 142.060  0.00  0.00    +0.000 C 
ATOM     42  C   UNL     1     105.265 126.644 141.715  0.00  0.00    +0.000 C 
ENDBRANCH  32  37
ENDBRANCH  27  32
ENDBRANCH   1  25
TORSDOF 6
ENDMDL
MODEL 10
REMARK VINA RESULT:      -8.9      2.760      5.713
REMARK  Name = 
REMARK  6 active torsions:
REMARK  status: ('A' for Active; 'I' for Inactive)
REMARK    1  A    between atoms: O_1  and  C_6
REMARK    2  A    between atoms: O_1  and  C_19
REMARK    3  A    between atoms: O_12  and  C_17
REMARK    4  A    between atoms: O_12  and  C_30
REMARK    5  A    between atoms: C_21  and  C_22
REMARK    6  A    between atoms: C_31  and  C_33
REMARK                            x       y       z     vdW  Elec       q    Type
REMARK                         _______ _______ _______ _____ _____    ______ ____
ROOT
ATOM      1  O   UNL     1     108.583 128.384 142.568  0.00  0.00    +0.000 OA
ENDROOT
BRANCH   1   9
ATOM      2  C   UNL     1     112.579 130.354 141.520  0.00  0.00    +0.000 A 
ATOM      3  C   UNL     1     112.731 129.377 141.683  0.00  0.00    +0.000 A 
ATOM      4  C   UNL     1     111.962 128.785 141.925  0.00  0.00    +0.000 A 
ATOM      5  C   UNL     1     111.663 130.738 141.600  0.00  0.00    +0.000 A 
ATOM      6  C   UNL     1     110.893 130.151 141.841  0.00  0.00    +0.000 A 
ATOM      7  C   UNL     1     111.043 129.174 142.004  0.00  0.00    +0.000 A 
ATOM      8  C   UNL     1     110.275 128.587 142.246  0.00  0.00    +0.000 A 
ATOM      9  C   UNL     1     109.353 128.970 142.326  0.00  0.00    +0.000 A 
ATOM     10  C   UNL     1     109.204 129.947 142.163  0.00  0.00    +0.000 A 
ATOM     11  O   UNL     1     109.976 130.541 141.919  0.00  0.00    +0.000 OA
ATOM     12  O   UNL     1     110.425 127.611 142.408  0.00  0.00    +0.000 OA
ATOM     13  O   UNL     1     112.111 127.811 142.088  0.00  0.00    +0.000 OA
ATOM     14  O   UNL     1     113.347 130.945 141.278  0.00  0.00    +0.000 OA
BRANCH  10  15
ATOM     15  C   UNL     1     108.288 130.329 142.243  0.00  0.00    +0.000 A 
ATOM     16  C   UNL     1     107.688 130.375 141.444  0.00  0.00    +0.000 A 
ATOM     17  C   UNL     1     106.771 130.758 141.530  0.00  0.00    +0.000 A 
ATOM     18  C   UNL     1     106.453 131.096 142.416  0.00  0.00    +0.000 A 
ATOM     19  C   UNL     1     107.057 131.047 143.215  0.00  0.00    +0.000 A 
ATOM     20  C   UNL     1     107.972 130.664 143.125  0.00  0.00    +0.000 A 
ATOM     21  O   UNL     1     105.534 131.480 142.504  0.00  0.00    +0.000 OA
ENDBRANCH  10  15
ENDBRANCH   1   9
BRANCH   1  25
ATOM     22  O   UNL     1     107.854 127.085 141.234  0.00  0.00    +0.000 OA
ATOM     23  O   UNL     1     105.511 126.023 143.548  0.00  0.00    +0.000 OA
ATOM     24  O   UNL     1     107.410 127.852 143.726  0.00  0.00    +0.000 OA
ATOM     25  C   UNL     1     107.817 127.793 142.808  0.00  0.00    +0.000 C 
ATOM     26  C   UNL     1     107.452 127.144 142.142  0.00  0.00    +0.000 C 
ATOM     27  C   UNL     1     106.681 126.553 142.392  0.00  0.00    +0.000 C 
ATOM     28  C   UNL     1     106.275 126.610 143.304  0.00  0.00    +0.000 C 
ATOM     29  C   UNL     1     106.640 127.260 143.971  0.00  0.00    +0.000 C 
BRANCH  29  31
ATOM     30  O   UNL     1     106.770 127.964 145.438  0.00  0.00    +0.000 OA
ATOM     31  C   UNL     1     106.240 127.323 144.882  0.00  0.00    +0.000 C 
ENDBRANCH  29  31
BRANCH  27  32
ATOM     32  O   UNL     1     106.320 125.905 141.723  0.00  0.00    +0.000 OA
BRANCH  32  37
ATOM     33  O   UNL     1     107.027 124.031 141.632  0.00  0.00    +0.000 OA
ATOM     34  O   UNL     1     106.287 122.745 140.284  0.00  0.00    +0.000 OA
ATOM     35  O   UNL     1     104.843 123.333 139.029  0.00  0.00    +0.000 OA
ATOM     36  O   UNL     1     105.227 125.556 140.419  0.00  0.00    +0.000 OA
ATOM     37  C   UNL     1     105.954 125.261 141.052  0.00  0.00    +0.000 C 
ATOM     38  C   UNL     1     106.307 124.324 141.006  0.00  0.00    +0.000 C 
ATOM     39  C   UNL     1     105.934 123.682 140.329  0.00  0.00    +0.000 C 
ATOM     40  C   UNL     1     105.210 123.973 139.699  0.00  0.00    +0.000 C 
ATOM     41  C   UNL     1     104.857 124.910 139.744  0.00  0.00    +0.000 C 
ATOM     42  C   UNL     1     104.136 125.207 139.120  0.00  0.00    +0.000 C 
ENDBRANCH  32  37
ENDBRANCH  27  32
ENDBRANCH   1  25
TORSDOF 6
ENDMDL
