MODEL 1
REMARK VINA RESULT:      -8.5      0.000      0.000
REMARK  Name = 44259828
REMARK  8 active torsions:
REMARK  status: ('A' for Active; 'I' for Inactive)
REMARK    1  A    between atoms: O_2  and  C_18
REMARK    2  A    between atoms: O_2  and  C_20
REMARK    3  A    between atoms: O_7  and  C_21
REMARK    4  A    between atoms: O_9  and  C_27
REMARK    5  A    between atoms: O_10  and  C_33
REMARK    6  A    between atoms: O_13  and  C_35
REMARK    7  A    between atoms: C_16  and  C_19
REMARK    8  A    between atoms: C_23  and  C_26
REMARK                            x       y       z     vdW  Elec       q    Type
REMARK                         _______ _______ _______ _____ _____    ______ ____
ROOT
ATOM      1  C   UNL     1     112.094 129.785 136.493  0.00  0.00    +0.000 A 
ATOM      2  C   UNL     1     112.481 129.386 135.884  0.00  0.00    +0.000 A 
ATOM      3  C   UNL     1     111.683 129.362 137.069  0.00  0.00    +0.000 A 
ATOM      4  C   UNL     1     112.046 128.137 136.427  0.00  0.00    +0.000 A 
ATOM      5  C   UNL     1     112.457 128.562 135.851  0.00  0.00    +0.000 A 
ATOM      6  C   UNL     1     111.659 128.538 137.037  0.00  0.00    +0.000 A 
ENDROOT
BRANCH   4  10
ATOM      7  O   UNL     1     112.649 126.870 136.699  0.00  0.00    +0.000 OA
ATOM      8  O   UNL     1     110.699 125.728 135.688  0.00  0.00    +0.000 OA
ATOM      9  O   UNL     1     111.284 124.436 135.950  0.00  0.00    +0.000 OA
ATOM     10  C   UNL     1     112.023 127.313 136.394  0.00  0.00    +0.000 A 
ATOM     11  C   UNL     1     111.373 126.933 136.058  0.00  0.00    +0.000 A 
ATOM     12  C   UNL     1     111.975 125.665 136.329  0.00  0.00    +0.000 A 
ATOM     13  C   UNL     1     112.625 126.046 136.666  0.00  0.00    +0.000 A 
ATOM     14  C   UNL     1     111.349 126.109 136.025  0.00  0.00    +0.000 A 
ATOM     15  C   UNL     1     111.938 124.808 136.289  0.00  0.00    +0.000 A 
ATOM     16  C   UNL     1     113.283 125.595 136.986  0.00  0.00    +0.000 A 
ATOM     17  C   UNL     1     112.587 124.340 136.604  0.00  0.00    +0.000 A 
ATOM     18  C   UNL     1     113.264 124.737 136.954  0.00  0.00    +0.000 A 
BRANCH  11  19
ATOM     19  O   UNL     1     110.747 127.376 135.754  0.00  0.00    +0.000 OA
ATOM     20  C   UNL     1     110.266 127.060 135.163  0.00  0.00    +0.000 C 
ENDBRANCH  11  19
BRANCH  17  21
ATOM     21  O   UNL     1     112.560 123.516 136.570  0.00  0.00    +0.000 OA
ATOM     22  C   UNL     1     112.105 123.095 137.114  0.00  0.00    +0.000 C 
ENDBRANCH  17  21
BRANCH  18  23
ATOM     23  O   UNL     1     113.891 124.296 137.259  0.00  0.00    +0.000 OA
ATOM     24  C   UNL     1     114.623 124.655 137.388  0.00  0.00    +0.000 C 
ENDBRANCH  18  23
ENDBRANCH   4  10
BRANCH   2  25
ATOM     25  O   UNL     1     112.892 129.809 135.307  0.00  0.00    +0.000 OA
ATOM     26  C   UNL     1     113.543 129.470 134.931  0.00  0.00    +0.000 C 
ENDBRANCH   2  25
BRANCH   1  27
ATOM     27  O   UNL     1     112.118 130.609 136.525  0.00  0.00    +0.000 OA
BRANCH  27  36
ATOM     28  O   UNL     1     110.761 130.904 136.191  0.00  0.00    +0.000 OA
ATOM     29  O   UNL     1     110.679 132.587 138.003  0.00  0.00    +0.000 OA
ATOM     30  O   UNL     1     109.350 132.321 137.065  0.00  0.00    +0.000 OA
ATOM     31  O   UNL     1     112.064 131.731 137.734  0.00  0.00    +0.000 OA
ATOM     32  C   UNL     1     110.707 132.026 137.399  0.00  0.00    +0.000 C 
ATOM     33  C   UNL     1     110.042 131.893 136.930  0.00  0.00    +0.000 C 
ATOM     34  C   UNL     1     110.069 131.332 136.326  0.00  0.00    +0.000 C 
ATOM     35  C   UNL     1     111.399 131.599 137.265  0.00  0.00    +0.000 C 
ATOM     36  C   UNL     1     111.426 131.037 136.661  0.00  0.00    +0.000 C 
BRANCH  34  38
ATOM     37  O   UNL     1     109.492 131.063 135.047  0.00  0.00    +0.000 OA
ATOM     38  C   UNL     1     109.404 131.199 135.856  0.00  0.00    +0.000 C 
ENDBRANCH  34  38
ENDBRANCH  27  36
ENDBRANCH   1  27
TORSDOF 8
ENDMDL
MODEL 2
REMARK VINA RESULT:      -8.4      1.487      6.026
REMARK  Name = 44259828
REMARK  8 active torsions:
REMARK  status: ('A' for Active; 'I' for Inactive)
REMARK    1  A    between atoms: O_2  and  C_18
REMARK    2  A    between atoms: O_2  and  C_20
REMARK    3  A    between atoms: O_7  and  C_21
REMARK    4  A    between atoms: O_9  and  C_27
REMARK    5  A    between atoms: O_10  and  C_33
REMARK    6  A    between atoms: O_13  and  C_35
REMARK    7  A    between atoms: C_16  and  C_19
REMARK    8  A    between atoms: C_23  and  C_26
REMARK                            x       y       z     vdW  Elec       q    Type
REMARK                         _______ _______ _______ _____ _____    ______ ____
ROOT
ATOM      1  C   UNL     1     112.201 127.577 137.151  0.00  0.00    +0.000 A 
ATOM      2  C   UNL     1     111.807 128.004 137.736  0.00  0.00    +0.000 A 
ATOM      3  C   UNL     1     111.963 127.638 136.363  0.00  0.00    +0.000 A 
ATOM      4  C   UNL     1     110.935 128.555 136.746  0.00  0.00    +0.000 A 
ATOM      5  C   UNL     1     111.174 128.493 137.534  0.00  0.00    +0.000 A 
ATOM      6  C   UNL     1     111.330 128.127 136.161  0.00  0.00    +0.000 A 
ENDROOT
BRANCH   4  10
ATOM      7  O   UNL     1     110.408 129.861 136.509  0.00  0.00    +0.000 OA
ATOM      8  O   UNL     1     108.193 128.875 136.007  0.00  0.00    +0.000 OA
ATOM      9  O   UNL     1     107.635 130.182 135.762  0.00  0.00    +0.000 OA
ATOM     10  C   UNL     1     110.302 129.044 136.544  0.00  0.00    +0.000 A 
ATOM     11  C   UNL     1     109.565 128.715 136.377  0.00  0.00    +0.000 A 
ATOM     12  C   UNL     1     109.036 130.021 136.139  0.00  0.00    +0.000 A 
ATOM     13  C   UNL     1     109.775 130.350 136.307  0.00  0.00    +0.000 A 
ATOM     14  C   UNL     1     108.932 129.204 136.175  0.00  0.00    +0.000 A 
ATOM     15  C   UNL     1     108.369 130.520 135.927  0.00  0.00    +0.000 A 
ATOM     16  C   UNL     1     109.896 131.201 136.273  0.00  0.00    +0.000 A 
ATOM     17  C   UNL     1     108.472 131.372 135.889  0.00  0.00    +0.000 A 
ATOM     18  C   UNL     1     109.241 131.714 136.063  0.00  0.00    +0.000 A 
BRANCH  11  19
ATOM     19  O   UNL     1     109.459 127.897 136.412  0.00  0.00    +0.000 OA
ATOM     20  C   UNL     1     108.779 127.555 136.096  0.00  0.00    +0.000 C 
ENDBRANCH  11  19
BRANCH  17  21
ATOM     21  O   UNL     1     107.837 131.859 135.686  0.00  0.00    +0.000 OA
ATOM     22  C   UNL     1     107.683 132.027 134.893  0.00  0.00    +0.000 C 
ENDBRANCH  17  21
BRANCH  18  23
ATOM     23  O   UNL     1     109.348 132.532 136.028  0.00  0.00    +0.000 OA
ATOM     24  C   UNL     1     109.983 132.881 136.424  0.00  0.00    +0.000 C 
ENDBRANCH  18  23
ENDBRANCH   4  10
BRANCH   2  25
ATOM     25  O   UNL     1     112.045 127.943 138.524  0.00  0.00    +0.000 OA
ATOM     26  C   UNL     1     111.903 128.563 139.047  0.00  0.00    +0.000 C 
ENDBRANCH   2  25
BRANCH   1  27
ATOM     27  O   UNL     1     112.834 127.088 137.354  0.00  0.00    +0.000 OA
BRANCH  27  36
ATOM     28  O   UNL     1     112.177 125.820 137.321  0.00  0.00    +0.000 OA
ATOM     29  O   UNL     1     114.107 124.851 136.112  0.00  0.00    +0.000 OA
ATOM     30  O   UNL     1     112.807 123.906 136.483  0.00  0.00    +0.000 OA
ATOM     31  O   UNL     1     114.121 126.442 136.547  0.00  0.00    +0.000 OA
ATOM     32  C   UNL     1     113.464 125.174 136.515  0.00  0.00    +0.000 C 
ATOM     33  C   UNL     1     112.814 124.701 136.700  0.00  0.00    +0.000 C 
ATOM     34  C   UNL     1     112.171 125.024 137.103  0.00  0.00    +0.000 C 
ATOM     35  C   UNL     1     113.471 125.970 136.732  0.00  0.00    +0.000 C 
ATOM     36  C   UNL     1     112.828 126.293 137.136  0.00  0.00    +0.000 C 
BRANCH  34  38
ATOM     37  O   UNL     1     111.202 124.570 138.051  0.00  0.00    +0.000 OA
ATOM     38  C   UNL     1     111.520 124.552 137.289  0.00  0.00    +0.000 C 
ENDBRANCH  34  38
ENDBRANCH  27  36
ENDBRANCH   1  27
TORSDOF 8
ENDMDL
MODEL 3
REMARK VINA RESULT:      -8.3      1.427      2.711
REMARK  Name = 44259828
REMARK  8 active torsions:
REMARK  status: ('A' for Active; 'I' for Inactive)
REMARK    1  A    between atoms: O_2  and  C_18
REMARK    2  A    between atoms: O_2  and  C_20
REMARK    3  A    between atoms: O_7  and  C_21
REMARK    4  A    between atoms: O_9  and  C_27
REMARK    5  A    between atoms: O_10  and  C_33
REMARK    6  A    between atoms: O_13  and  C_35
REMARK    7  A    between atoms: C_16  and  C_19
REMARK    8  A    between atoms: C_23  and  C_26
REMARK                            x       y       z     vdW  Elec       q    Type
REMARK                         _______ _______ _______ _____ _____    ______ ____
ROOT
ATOM      1  C   UNL     1     109.535 129.109 136.866  0.00  0.00    +0.000 A 
ATOM      2  C   UNL     1     109.853 128.773 137.548  0.00  0.00    +0.000 A 
ATOM      3  C   UNL     1     109.881 128.961 136.132  0.00  0.00    +0.000 A 
ATOM      4  C   UNL     1     110.866 128.140 136.763  0.00  0.00    +0.000 A 
ATOM      5  C   UNL     1     110.519 128.288 137.497  0.00  0.00    +0.000 A 
ATOM      6  C   UNL     1     110.546 128.477 136.080  0.00  0.00    +0.000 A 
ENDROOT
BRANCH   4  10
ATOM      7  O   UNL     1     111.445 126.834 136.720  0.00  0.00    +0.000 OA
ATOM      8  O   UNL     1     113.700 127.841 136.542  0.00  0.00    +0.000 OA
ATOM      9  O   UNL     1     114.310 126.535 136.496  0.00  0.00    +0.000 OA
ATOM     10  C   UNL     1     111.531 127.655 136.712  0.00  0.00    +0.000 A 
ATOM     11  C   UNL     1     112.282 127.990 136.653  0.00  0.00    +0.000 A 
ATOM     12  C   UNL     1     112.862 126.685 136.609  0.00  0.00    +0.000 A 
ATOM     13  C   UNL     1     112.110 126.349 136.668  0.00  0.00    +0.000 A 
ATOM     14  C   UNL     1     112.948 127.506 136.601  0.00  0.00    +0.000 A 
ATOM     15  C   UNL     1     113.563 126.191 136.555  0.00  0.00    +0.000 A 
ATOM     16  C   UNL     1     112.009 125.496 136.677  0.00  0.00    +0.000 A 
ATOM     17  C   UNL     1     113.481 125.335 136.562  0.00  0.00    +0.000 A 
ATOM     18  C   UNL     1     112.698 124.986 136.624  0.00  0.00    +0.000 A 
BRANCH  11  19
ATOM     19  O   UNL     1     112.368 128.811 136.645  0.00  0.00    +0.000 OA
ATOM     20  C   UNL     1     113.070 129.155 136.907  0.00  0.00    +0.000 C 
ENDBRANCH  11  19
BRANCH  17  21
ATOM     21  O   UNL     1     114.148 124.853 136.511  0.00  0.00    +0.000 OA
ATOM     22  C   UNL     1     114.609 124.714 137.180  0.00  0.00    +0.000 C 
ENDBRANCH  17  21
BRANCH  18  23
ATOM     23  O   UNL     1     112.609 124.166 136.632  0.00  0.00    +0.000 OA
ATOM     24  C   UNL     1     111.860 123.831 136.539  0.00  0.00    +0.000 C 
ENDBRANCH  18  23
ENDBRANCH   4  10
BRANCH   2  25
ATOM     25  O   UNL     1     109.507 128.921 138.283  0.00  0.00    +0.000 OA
ATOM     26  C   UNL     1     109.759 128.506 138.949  0.00  0.00    +0.000 C 
ENDBRANCH   2  25
BRANCH   1  27
ATOM     27  O   UNL     1     108.869 129.594 136.918  0.00  0.00    +0.000 OA
BRANCH  27  36
ATOM     28  O   UNL     1     109.479 130.866 136.691  0.00  0.00    +0.000 OA
ATOM     29  O   UNL     1     107.634 131.478 135.159  0.00  0.00    +0.000 OA
ATOM     30  O   UNL     1     108.859 132.545 135.443  0.00  0.00    +0.000 OA
ATOM     31  O   UNL     1     107.639 130.002 135.897  0.00  0.00    +0.000 OA
ATOM     32  C   UNL     1     108.249 131.274 135.670  0.00  0.00    +0.000 C 
ATOM     33  C   UNL     1     108.861 131.808 135.811  0.00  0.00    +0.000 C 
ATOM     34  C   UNL     1     109.476 131.604 136.322  0.00  0.00    +0.000 C 
ATOM     35  C   UNL     1     108.251 130.536 136.038  0.00  0.00    +0.000 C 
ATOM     36  C   UNL     1     108.866 130.332 136.549  0.00  0.00    +0.000 C 
BRANCH  34  38
ATOM     37  O   UNL     1     110.376 132.241 137.231  0.00  0.00    +0.000 OA
ATOM     38  C   UNL     1     110.089 132.137 136.464  0.00  0.00    +0.000 C 
ENDBRANCH  34  38
ENDBRANCH  27  36
ENDBRANCH   1  27
TORSDOF 8
ENDMDL
MODEL 4
REMARK VINA RESULT:      -8.3      1.292      2.208
REMARK  Name = 44259828
REMARK  8 active torsions:
REMARK  status: ('A' for Active; 'I' for Inactive)
REMARK    1  A    between atoms: O_2  and  C_18
REMARK    2  A    between atoms: O_2  and  C_20
REMARK    3  A    between atoms: O_7  and  C_21
REMARK    4  A    between atoms: O_9  and  C_27
REMARK    5  A    between atoms: O_10  and  C_33
REMARK    6  A    between atoms: O_13  and  C_35
REMARK    7  A    between atoms: C_16  and  C_19
REMARK    8  A    between atoms: C_23  and  C_26
REMARK                            x       y       z     vdW  Elec       q    Type
REMARK                         _______ _______ _______ _____ _____    ______ ____
ROOT
ATOM      1  C   UNL     1     111.278 130.440 136.458  0.00  0.00    +0.000 A 
ATOM      2  C   UNL     1     111.152 129.869 135.877  0.00  0.00    +0.000 A 
ATOM      3  C   UNL     1     111.838 130.310 137.050  0.00  0.00    +0.000 A 
ATOM      4  C   UNL     1     112.146 129.037 136.479  0.00  0.00    +0.000 A 
ATOM      5  C   UNL     1     111.585 129.167 135.888  0.00  0.00    +0.000 A 
ATOM      6  C   UNL     1     112.272 129.609 137.060  0.00  0.00    +0.000 A 
ENDROOT
BRANCH   4  10
ATOM      7  O   UNL     1     112.248 127.650 136.808  0.00  0.00    +0.000 OA
ATOM      8  O   UNL     1     114.543 127.600 135.881  0.00  0.00    +0.000 OA
ATOM      9  O   UNL     1     114.673 126.200 136.203  0.00  0.00    +0.000 OA
ATOM     10  C   UNL     1     112.580 128.335 136.489  0.00  0.00    +0.000 A 
ATOM     11  C   UNL     1     113.344 128.318 136.180  0.00  0.00    +0.000 A 
ATOM     12  C   UNL     1     113.447 126.932 136.509  0.00  0.00    +0.000 A 
ATOM     13  C   UNL     1     112.682 126.948 136.819  0.00  0.00    +0.000 A 
ATOM     14  C   UNL     1     113.777 127.617 136.190  0.00  0.00    +0.000 A 
ATOM     15  C   UNL     1     113.909 126.207 136.514  0.00  0.00    +0.000 A 
ATOM     16  C   UNL     1     112.326 126.241 137.154  0.00  0.00    +0.000 A 
ATOM     17  C   UNL     1     113.570 125.490 136.845  0.00  0.00    +0.000 A 
ATOM     18  C   UNL     1     112.773 125.507 137.167  0.00  0.00    +0.000 A 
BRANCH  11  19
ATOM     19  O   UNL     1     113.675 129.003 135.861  0.00  0.00    +0.000 OA
ATOM     20  C   UNL     1     114.327 128.951 135.359  0.00  0.00    +0.000 C 
ENDBRANCH  11  19
BRANCH  17  21
ATOM     21  O   UNL     1     114.006 124.789 136.854  0.00  0.00    +0.000 OA
ATOM     22  C   UNL     1     114.598 124.679 137.418  0.00  0.00    +0.000 C 
ENDBRANCH  17  21
BRANCH  18  23
ATOM     23  O   UNL     1     112.440 124.824 137.487  0.00  0.00    +0.000 OA
ATOM     24  C   UNL     1     111.622 124.773 137.590  0.00  0.00    +0.000 C 
ENDBRANCH  18  23
ENDBRANCH   4  10
BRANCH   2  25
ATOM     25  O   UNL     1     110.591 129.998 135.286  0.00  0.00    +0.000 OA
ATOM     26  C   UNL     1     110.457 129.422 134.712  0.00  0.00    +0.000 C 
ENDBRANCH   2  25
BRANCH   1  27
ATOM     27  O   UNL     1     110.844 131.142 136.448  0.00  0.00    +0.000 OA
BRANCH  27  36
ATOM     28  O   UNL     1     110.012 130.887 137.581  0.00  0.00    +0.000 OA
ATOM     29  O   UNL     1     110.273 133.240 138.302  0.00  0.00    +0.000 OA
ATOM     30  O   UNL     1     109.354 132.201 139.194  0.00  0.00    +0.000 OA
ATOM     31  O   UNL     1     111.018 132.710 136.929  0.00  0.00    +0.000 OA
ATOM     32  C   UNL     1     110.186 132.455 138.062  0.00  0.00    +0.000 C 
ATOM     33  C   UNL     1     109.726 131.936 138.508  0.00  0.00    +0.000 C 
ATOM     34  C   UNL     1     109.639 131.152 138.268  0.00  0.00    +0.000 C 
ATOM     35  C   UNL     1     110.559 132.191 137.375  0.00  0.00    +0.000 C 
ATOM     36  C   UNL     1     110.472 131.407 137.135  0.00  0.00    +0.000 C 
BRANCH  34  38
ATOM     37  O   UNL     1     108.641 130.132 138.338  0.00  0.00    +0.000 OA
ATOM     38  C   UNL     1     109.180 130.632 138.714  0.00  0.00    +0.000 C 
ENDBRANCH  34  38
ENDBRANCH  27  36
ENDBRANCH   1  27
TORSDOF 8
ENDMDL
MODEL 5
REMARK VINA RESULT:      -8.2      9.849     11.391
REMARK  Name = 44259828
REMARK  8 active torsions:
REMARK  status: ('A' for Active; 'I' for Inactive)
REMARK    1  A    between atoms: O_2  and  C_18
REMARK    2  A    between atoms: O_2  and  C_20
REMARK    3  A    between atoms: O_7  and  C_21
REMARK    4  A    between atoms: O_9  and  C_27
REMARK    5  A    between atoms: O_10  and  C_33
REMARK    6  A    between atoms: O_13  and  C_35
REMARK    7  A    between atoms: C_16  and  C_19
REMARK    8  A    between atoms: C_23  and  C_26
REMARK                            x       y       z     vdW  Elec       q    Type
REMARK                         _______ _______ _______ _____ _____    ______ ____
ROOT
ATOM      1  C   UNL     1     106.556 126.899 145.199  0.00  0.00    +0.000 A 
ATOM      2  C   UNL     1     106.808 127.603 144.853  0.00  0.00    +0.000 A 
ATOM      3  C   UNL     1     105.888 126.511 144.909  0.00  0.00    +0.000 A 
ATOM      4  C   UNL     1     105.724 127.535 143.925  0.00  0.00    +0.000 A 
ATOM      5  C   UNL     1     106.392 127.921 144.216  0.00  0.00    +0.000 A 
ATOM      6  C   UNL     1     105.472 126.830 144.272  0.00  0.00    +0.000 A 
ENDROOT
BRANCH   4  10
ATOM      7  O   UNL     1     104.823 128.512 143.400  0.00  0.00    +0.000 OA
ATOM      8  O   UNL     1     105.031 127.494 141.153  0.00  0.00    +0.000 OA
ATOM      9  O   UNL     1     104.123 128.468 140.597  0.00  0.00    +0.000 OA
ATOM     10  C   UNL     1     105.308 127.854 143.287  0.00  0.00    +0.000 A 
ATOM     11  C   UNL     1     105.377 127.515 142.539  0.00  0.00    +0.000 A 
ATOM     12  C   UNL     1     104.476 128.491 142.013  0.00  0.00    +0.000 A 
ATOM     13  C   UNL     1     104.407 128.830 142.762  0.00  0.00    +0.000 A 
ATOM     14  C   UNL     1     104.961 127.833 141.902  0.00  0.00    +0.000 A 
ATOM     15  C   UNL     1     104.048 128.813 141.341  0.00  0.00    +0.000 A 
ATOM     16  C   UNL     1     103.904 129.516 142.891  0.00  0.00    +0.000 A 
ATOM     17  C   UNL     1     103.541 129.499 141.451  0.00  0.00    +0.000 A 
ATOM     18  C   UNL     1     103.469 129.852 142.231  0.00  0.00    +0.000 A 
BRANCH  11  19
ATOM     19  O   UNL     1     105.863 126.857 142.427  0.00  0.00    +0.000 OA
ATOM     20  C   UNL     1     106.245 126.744 141.706  0.00  0.00    +0.000 C 
ENDBRANCH  11  19
BRANCH  17  21
ATOM     21  O   UNL     1     103.126 129.815 140.812  0.00  0.00    +0.000 OA
ATOM     22  C   UNL     1     102.439 129.446 140.542  0.00  0.00    +0.000 C 
ENDBRANCH  17  21
BRANCH  18  23
ATOM     23  O   UNL     1     102.984 130.510 142.345  0.00  0.00    +0.000 OA
ATOM     24  C   UNL     1     102.993 130.907 143.069  0.00  0.00    +0.000 C 
ENDBRANCH  18  23
ENDBRANCH   4  10
BRANCH   2  25
ATOM     25  O   UNL     1     107.477 127.990 145.144  0.00  0.00    +0.000 OA
ATOM     26  C   UNL     1     107.719 128.703 144.809  0.00  0.00    +0.000 C 
ENDBRANCH   2  25
BRANCH   1  27
ATOM     27  O   UNL     1     106.972 126.580 145.837  0.00  0.00    +0.000 OA
BRANCH  27  36
ATOM     28  O   UNL     1     106.044 126.756 146.909  0.00  0.00    +0.000 OA
ATOM     29  O   UNL     1     106.376 124.399 147.584  0.00  0.00    +0.000 OA
ATOM     30  O   UNL     1     105.338 125.361 148.431  0.00  0.00    +0.000 OA
ATOM     31  O   UNL     1     107.193 125.008 146.287  0.00  0.00    +0.000 OA
ATOM     32  C   UNL     1     106.266 125.185 147.359  0.00  0.00    +0.000 C 
ATOM     33  C   UNL     1     105.747 125.665 147.783  0.00  0.00    +0.000 C 
ATOM     34  C   UNL     1     105.636 126.451 147.558  0.00  0.00    +0.000 C 
ATOM     35  C   UNL     1     106.675 125.489 146.710  0.00  0.00    +0.000 C 
ATOM     36  C   UNL     1     106.564 126.275 146.485  0.00  0.00    +0.000 C 
BRANCH  34  38
ATOM     37  O   UNL     1     105.316 127.720 148.133  0.00  0.00    +0.000 OA
ATOM     38  C   UNL     1     105.117 126.933 147.981  0.00  0.00    +0.000 C 
ENDBRANCH  34  38
ENDBRANCH  27  36
ENDBRANCH   1  27
TORSDOF 8
ENDMDL
MODEL 6
REMARK VINA RESULT:      -8.2      1.030      6.072
REMARK  Name = 44259828
REMARK  8 active torsions:
REMARK  status: ('A' for Active; 'I' for Inactive)
REMARK    1  A    between atoms: O_2  and  C_18
REMARK    2  A    between atoms: O_2  and  C_20
REMARK    3  A    between atoms: O_7  and  C_21
REMARK    4  A    between atoms: O_9  and  C_27
REMARK    5  A    between atoms: O_10  and  C_33
REMARK    6  A    between atoms: O_13  and  C_35
REMARK    7  A    between atoms: C_16  and  C_19
REMARK    8  A    between atoms: C_23  and  C_26
REMARK                            x       y       z     vdW  Elec       q    Type
REMARK                         _______ _______ _______ _____ _____    ______ ____
ROOT
ATOM      1  C   UNL     1     113.106 127.217 136.707  0.00  0.00    +0.000 A 
ATOM      2  C   UNL     1     113.342 127.868 136.260  0.00  0.00    +0.000 A 
ATOM      3  C   UNL     1     112.521 127.301 137.283  0.00  0.00    +0.000 A 
ATOM      4  C   UNL     1     112.408 128.689 136.963  0.00  0.00    +0.000 A 
ATOM      5  C   UNL     1     112.993 128.604 136.388  0.00  0.00    +0.000 A 
ATOM      6  C   UNL     1     112.172 128.037 137.411  0.00  0.00    +0.000 A 
ENDROOT
BRANCH   4  10
ATOM      7  O   UNL     1     111.483 129.705 136.570  0.00  0.00    +0.000 OA
ATOM      8  O   UNL     1     112.162 131.075 138.517  0.00  0.00    +0.000 OA
ATOM      9  O   UNL     1     111.237 132.117 138.143  0.00  0.00    +0.000 OA
ATOM     10  C   UNL     1     112.059 129.426 137.091  0.00  0.00    +0.000 A 
ATOM     11  C   UNL     1     112.285 129.882 137.740  0.00  0.00    +0.000 A 
ATOM     12  C   UNL     1     111.361 130.899 137.347  0.00  0.00    +0.000 A 
ATOM     13  C   UNL     1     111.134 130.442 136.698  0.00  0.00    +0.000 A 
ATOM     14  C   UNL     1     111.936 130.618 137.868  0.00  0.00    +0.000 A 
ATOM     15  C   UNL     1     111.004 131.667 137.491  0.00  0.00    +0.000 A 
ATOM     16  C   UNL     1     110.536 130.723 136.148  0.00  0.00    +0.000 A 
ATOM     17  C   UNL     1     110.404 131.965 136.952  0.00  0.00    +0.000 A 
ATOM     18  C   UNL     1     110.169 131.489 136.276  0.00  0.00    +0.000 A 
BRANCH  11  19
ATOM     19  O   UNL     1     112.860 129.602 138.261  0.00  0.00    +0.000 OA
ATOM     20  C   UNL     1     113.323 130.134 138.688  0.00  0.00    +0.000 C 
ENDBRANCH  11  19
BRANCH  17  21
ATOM     21  O   UNL     1     110.057 132.702 137.083  0.00  0.00    +0.000 OA
ATOM     22  C   UNL     1     110.460 133.390 136.874  0.00  0.00    +0.000 C 
ENDBRANCH  17  21
BRANCH  18  23
ATOM     23  O   UNL     1     109.594 131.767 135.754  0.00  0.00    +0.000 OA
ATOM     24  C   UNL     1     109.232 131.246 135.225  0.00  0.00    +0.000 C 
ENDBRANCH  18  23
ENDBRANCH   4  10
BRANCH   2  25
ATOM     25  O   UNL     1     113.927 127.783 135.684  0.00  0.00    +0.000 OA
ATOM     26  C   UNL     1     114.324 128.447 135.399  0.00  0.00    +0.000 C 
ENDBRANCH   2  25
BRANCH   1  27
ATOM     27  O   UNL     1     113.455 126.480 136.579  0.00  0.00    +0.000 OA
BRANCH  27  36
ATOM     28  O   UNL     1     112.261 125.818 136.157  0.00  0.00    +0.000 OA
ATOM     29  O   UNL     1     113.036 123.731 137.238  0.00  0.00    +0.000 OA
ATOM     30  O   UNL     1     111.584 123.765 136.456  0.00  0.00    +0.000 OA
ATOM     31  O   UNL     1     113.972 125.088 137.300  0.00  0.00    +0.000 OA
ATOM     32  C   UNL     1     112.778 124.427 136.878  0.00  0.00    +0.000 C 
ATOM     33  C   UNL     1     112.052 124.444 136.487  0.00  0.00    +0.000 C 
ATOM     34  C   UNL     1     111.794 125.139 136.127  0.00  0.00    +0.000 C 
ATOM     35  C   UNL     1     113.246 125.105 136.909  0.00  0.00    +0.000 C 
ATOM     36  C   UNL     1     112.988 125.801 136.549  0.00  0.00    +0.000 C 
BRANCH  34  38
ATOM     37  O   UNL     1     111.006 125.520 134.997  0.00  0.00    +0.000 OA
ATOM     38  C   UNL     1     111.067 125.157 135.736  0.00  0.00    +0.000 C 
ENDBRANCH  34  38
ENDBRANCH  27  36
ENDBRANCH   1  27
TORSDOF 8
ENDMDL
MODEL 7
REMARK VINA RESULT:      -8.1      3.662      4.402
REMARK  Name = 44259828
REMARK  8 active torsions:
REMARK  status: ('A' for Active; 'I' for Inactive)
REMARK    1  A    between atoms: O_2  and  C_18
REMARK    2  A    between atoms: O_2  and  C_20
REMARK    3  A    between atoms: O_7  and  C_21
REMARK    4  A    between atoms: O_9  and  C_27
REMARK    5  A    between atoms: O_10  and  C_33
REMARK    6  A    between atoms: O_13  and  C_35
REMARK    7  A    between atoms: C_16  and  C_19
REMARK    8  A    between atoms: C_23  and  C_26
REMARK                            x       y       z     vdW  Elec       q    Type
REMARK                         _______ _______ _______ _____ _____    ______ ____
ROOT
ATOM      1  C   UNL     1     113.435 128.570 140.628  0.00  0.00    +0.000 A 
ATOM      2  C   UNL     1     113.780 127.823 140.669  0.00  0.00    +0.000 A 
ATOM      3  C   UNL     1     112.831 128.717 140.084  0.00  0.00    +0.000 A 
ATOM      4  C   UNL     1     112.920 127.367 139.623  0.00  0.00    +0.000 A 
ATOM      5  C   UNL     1     113.523 127.221 140.167  0.00  0.00    +0.000 A 
ATOM      6  C   UNL     1     112.574 128.115 139.582  0.00  0.00    +0.000 A 
ENDROOT
BRANCH   4  10
ATOM      7  O   UNL     1     113.144 126.514 138.499  0.00  0.00    +0.000 OA
ATOM      8  O   UNL     1     110.930 125.464 138.857  0.00  0.00    +0.000 OA
ATOM      9  O   UNL     1     111.131 124.590 137.727  0.00  0.00    +0.000 OA
ATOM     10  C   UNL     1     112.663 126.765 139.121  0.00  0.00    +0.000 A 
ATOM     11  C   UNL     1     111.926 126.416 139.240  0.00  0.00    +0.000 A 
ATOM     12  C   UNL     1     112.148 125.562 138.116  0.00  0.00    +0.000 A 
ATOM     13  C   UNL     1     112.886 125.912 137.997  0.00  0.00    +0.000 A 
ATOM     14  C   UNL     1     111.669 125.814 138.738  0.00  0.00    +0.000 A 
ATOM     15  C   UNL     1     111.869 124.934 137.600  0.00  0.00    +0.000 A 
ATOM     16  C   UNL     1     113.396 125.658 137.352  0.00  0.00    +0.000 A 
ATOM     17  C   UNL     1     112.365 124.667 136.950  0.00  0.00    +0.000 A 
ATOM     18  C   UNL     1     113.133 125.032 136.826  0.00  0.00    +0.000 A 
BRANCH  11  19
ATOM     19  O   UNL     1     111.445 126.667 139.862  0.00  0.00    +0.000 OA
ATOM     20  C   UNL     1     110.807 126.204 140.104  0.00  0.00    +0.000 C 
ENDBRANCH  11  19
BRANCH  17  21
ATOM     21  O   UNL     1     112.105 124.065 136.449  0.00  0.00    +0.000 OA
ATOM     22  C   UNL     1     111.544 124.227 135.867  0.00  0.00    +0.000 C 
ENDBRANCH  17  21
BRANCH  18  23
ATOM     23  O   UNL     1     113.615 124.782 136.205  0.00  0.00    +0.000 OA
ATOM     24  C   UNL     1     114.427 124.931 136.228  0.00  0.00    +0.000 C 
ENDBRANCH  18  23
ENDBRANCH   4  10
BRANCH   2  25
ATOM     25  O   UNL     1     114.384 127.676 141.212  0.00  0.00    +0.000 OA
ATOM     26  C   UNL     1     114.893 127.037 141.102  0.00  0.00    +0.000 C 
ENDBRANCH   2  25
BRANCH   1  27
ATOM     27  O   UNL     1     113.692 129.172 141.130  0.00  0.00    +0.000 OA
BRANCH  27  36
ATOM     28  O   UNL     1     112.586 129.158 142.035  0.00  0.00    +0.000 OA
ATOM     29  O   UNL     1     112.644 131.630 142.143  0.00  0.00    +0.000 OA
ATOM     30  O   UNL     1     111.520 130.793 143.012  0.00  0.00    +0.000 OA
ATOM     31  O   UNL     1     113.730 130.820 141.202  0.00  0.00    +0.000 OA
ATOM     32  C   UNL     1     112.625 130.806 142.107  0.00  0.00    +0.000 C 
ATOM     33  C   UNL     1     112.063 130.388 142.542  0.00  0.00    +0.000 C 
ATOM     34  C   UNL     1     112.043 129.564 142.506  0.00  0.00    +0.000 C 
ATOM     35  C   UNL     1     113.168 130.402 141.636  0.00  0.00    +0.000 C 
ATOM     36  C   UNL     1     113.149 129.578 141.600  0.00  0.00    +0.000 C 
BRANCH  34  38
ATOM     37  O   UNL     1     111.705 128.471 143.362  0.00  0.00    +0.000 OA
ATOM     38  C   UNL     1     111.481 129.145 142.940  0.00  0.00    +0.000 C 
ENDBRANCH  34  38
ENDBRANCH  27  36
ENDBRANCH   1  27
TORSDOF 8
ENDMDL
MODEL 8
REMARK VINA RESULT:      -8.1      2.725      5.986
REMARK  Name = 44259828
REMARK  8 active torsions:
REMARK  status: ('A' for Active; 'I' for Inactive)
REMARK    1  A    between atoms: O_2  and  C_18
REMARK    2  A    between atoms: O_2  and  C_20
REMARK    3  A    between atoms: O_7  and  C_21
REMARK    4  A    between atoms: O_9  and  C_27
REMARK    5  A    between atoms: O_10  and  C_33
REMARK    6  A    between atoms: O_13  and  C_35
REMARK    7  A    between atoms: C_16  and  C_19
REMARK    8  A    between atoms: C_23  and  C_26
REMARK                            x       y       z     vdW  Elec       q    Type
REMARK                         _______ _______ _______ _____ _____    ______ ____
ROOT
ATOM      1  C   UNL     1     113.317 126.942 137.263  0.00  0.00    +0.000 A 
ATOM      2  C   UNL     1     113.257 127.744 137.083  0.00  0.00    +0.000 A 
ATOM      3  C   UNL     1     113.199 126.682 138.037  0.00  0.00    +0.000 A 
ATOM      4  C   UNL     1     112.959 128.029 138.451  0.00  0.00    +0.000 A 
ATOM      5  C   UNL     1     113.078 128.288 137.677  0.00  0.00    +0.000 A 
ATOM      6  C   UNL     1     113.020 127.226 138.631  0.00  0.00    +0.000 A 
ENDROOT
BRANCH   4  10
ATOM      7  O   UNL     1     113.386 128.995 139.414  0.00  0.00    +0.000 OA
ATOM      8  O   UNL     1     111.032 129.361 140.088  0.00  0.00    +0.000 OA
ATOM      9  O   UNL     1     111.436 130.340 141.068  0.00  0.00    +0.000 OA
ATOM     10  C   UNL     1     112.780 128.573 139.045  0.00  0.00    +0.000 A 
ATOM     11  C   UNL     1     111.996 128.695 139.269  0.00  0.00    +0.000 A 
ATOM     12  C   UNL     1     112.422 129.661 140.233  0.00  0.00    +0.000 A 
ATOM     13  C   UNL     1     113.207 129.539 140.008  0.00  0.00    +0.000 A 
ATOM     14  C   UNL     1     111.817 129.239 139.863  0.00  0.00    +0.000 A 
ATOM     15  C   UNL     1     112.223 130.224 140.850  0.00  0.00    +0.000 A 
ATOM     16  C   UNL     1     113.847 129.972 140.386  0.00  0.00    +0.000 A 
ATOM     17  C   UNL     1     112.849 130.667 141.239  0.00  0.00    +0.000 A 
ATOM     18  C   UNL     1     113.666 130.540 141.005  0.00  0.00    +0.000 A 
BRANCH  11  19
ATOM     19  O   UNL     1     111.391 128.274 138.900  0.00  0.00    +0.000 OA
ATOM     20  C   UNL     1     110.620 128.565 138.909  0.00  0.00    +0.000 C 
ENDBRANCH  11  19
BRANCH  17  21
ATOM     21  O   UNL     1     112.667 131.210 141.833  0.00  0.00    +0.000 OA
ATOM     22  C   UNL     1     112.488 130.946 142.593  0.00  0.00    +0.000 C 
ENDBRANCH  17  21
BRANCH  18  23
ATOM     23  O   UNL     1     114.273 130.960 141.372  0.00  0.00    +0.000 OA
ATOM     24  C   UNL     1     115.001 131.049 140.993  0.00  0.00    +0.000 C 
ENDBRANCH  18  23
ENDBRANCH   4  10
BRANCH   2  25
ATOM     25  O   UNL     1     113.375 128.003 136.308  0.00  0.00    +0.000 OA
ATOM     26  C   UNL     1     113.628 128.775 136.166  0.00  0.00    +0.000 C 
ENDBRANCH   2  25
BRANCH   1  27
ATOM     27  O   UNL     1     113.496 126.398 136.669  0.00  0.00    +0.000 OA
BRANCH  27  36
ATOM     28  O   UNL     1     112.231 125.765 136.467  0.00  0.00    +0.000 OA
ATOM     29  O   UNL     1     113.321 123.546 136.586  0.00  0.00    +0.000 OA
ATOM     30  O   UNL     1     111.693 123.654 136.345  0.00  0.00    +0.000 OA
ATOM     31  O   UNL     1     114.223 124.919 136.748  0.00  0.00    +0.000 OA
ATOM     32  C   UNL     1     112.958 124.286 136.547  0.00  0.00    +0.000 C 
ATOM     33  C   UNL     1     112.144 124.339 136.426  0.00  0.00    +0.000 C 
ATOM     34  C   UNL     1     111.781 125.079 136.386  0.00  0.00    +0.000 C 
ATOM     35  C   UNL     1     113.409 124.972 136.628  0.00  0.00    +0.000 C 
ATOM     36  C   UNL     1     113.046 125.711 136.588  0.00  0.00    +0.000 C 
BRANCH  34  38
ATOM     37  O   UNL     1     110.665 125.685 135.730  0.00  0.00    +0.000 OA
ATOM     38  C   UNL     1     110.967 125.133 136.266  0.00  0.00    +0.000 C 
ENDBRANCH  34  38
ENDBRANCH  27  36
ENDBRANCH   1  27
TORSDOF 8
ENDMDL
MODEL 9
REMARK VINA RESULT:      -7.9      1.552      6.307
REMARK  Name = 44259828
REMARK  8 active torsions:
REMARK  status: ('A' for Active; 'I' for Inactive)
REMARK    1  A    between atoms: O_2  and  C_18
REMARK    2  A    between atoms: O_2  and  C_20
REMARK    3  A    between atoms: O_7  and  C_21
REMARK    4  A    between atoms: O_9  and  C_27
REMARK    5  A    between atoms: O_10  and  C_33
REMARK    6  A    between atoms: O_13  and  C_35
REMARK    7  A    between atoms: C_16  and  C_19
REMARK    8  A    between atoms: C_23  and  C_26
REMARK                            x       y       z     vdW  Elec       q    Type
REMARK                         _______ _______ _______ _____ _____    ______ ____
ROOT
ATOM      1  C   UNL     1     113.161 127.113 138.426  0.00  0.00    +0.000 A 
ATOM      2  C   UNL     1     112.672 127.521 138.950  0.00  0.00    +0.000 A 
ATOM      3  C   UNL     1     113.353 127.445 137.696  0.00  0.00    +0.000 A 
ATOM      4  C   UNL     1     112.566 128.595 138.013  0.00  0.00    +0.000 A 
ATOM      5  C   UNL     1     112.374 128.262 138.743  0.00  0.00    +0.000 A 
ATOM      6  C   UNL     1     113.056 128.186 137.489  0.00  0.00    +0.000 A 
ENDROOT
BRANCH   4  10
ATOM      7  O   UNL     1     111.496 129.407 137.526  0.00  0.00    +0.000 OA
ATOM      8  O   UNL     1     112.922 131.419 137.748  0.00  0.00    +0.000 OA
ATOM      9  O   UNL     1     111.858 132.261 137.259  0.00  0.00    +0.000 OA
ATOM     10  C   UNL     1     112.269 129.337 137.807  0.00  0.00    +0.000 A 
ATOM     11  C   UNL     1     112.744 130.006 137.880  0.00  0.00    +0.000 A 
ATOM     12  C   UNL     1     111.674 130.819 137.393  0.00  0.00    +0.000 A 
ATOM     13  C   UNL     1     111.198 130.148 137.319  0.00  0.00    +0.000 A 
ATOM     14  C   UNL     1     112.446 130.748 137.674  0.00  0.00    +0.000 A 
ATOM     15  C   UNL     1     111.376 131.596 137.181  0.00  0.00    +0.000 A 
ATOM     16  C   UNL     1     110.392 130.210 137.028  0.00  0.00    +0.000 A 
ATOM     17  C   UNL     1     110.572 131.677 136.888  0.00  0.00    +0.000 A 
ATOM     18  C   UNL     1     110.077 130.979 136.811  0.00  0.00    +0.000 A 
BRANCH  11  19
ATOM     19  O   UNL     1     113.517 129.936 138.161  0.00  0.00    +0.000 OA
ATOM     20  C   UNL     1     113.902 130.592 138.478  0.00  0.00    +0.000 C 
ENDBRANCH  11  19
BRANCH  17  21
ATOM     21  O   UNL     1     110.277 132.420 136.682  0.00  0.00    +0.000 OA
ATOM     22  C   UNL     1     110.051 132.952 137.271  0.00  0.00    +0.000 C 
ENDBRANCH  17  21
BRANCH  18  23
ATOM     23  O   UNL     1     109.304 131.047 136.531  0.00  0.00    +0.000 OA
ATOM     24  C   UNL     1     108.884 130.371 136.313  0.00  0.00    +0.000 C 
ENDBRANCH  18  23
ENDBRANCH   4  10
BRANCH   2  25
ATOM     25  O   UNL     1     112.479 127.189 139.680  0.00  0.00    +0.000 OA
ATOM     26  C   UNL     1     112.193 127.666 140.288  0.00  0.00    +0.000 C 
ENDBRANCH   2  25
BRANCH   1  27
ATOM     27  O   UNL     1     113.458 126.371 138.633  0.00  0.00    +0.000 OA
BRANCH  27  36
ATOM     28  O   UNL     1     112.731 125.535 137.731  0.00  0.00    +0.000 OA
ATOM     29  O   UNL     1     114.820 124.338 137.158  0.00  0.00    +0.000 OA
ATOM     30  O   UNL     1     113.398 123.901 136.448  0.00  0.00    +0.000 OA
ATOM     31  O   UNL     1     114.851 125.573 138.251  0.00  0.00    +0.000 OA
ATOM     32  C   UNL     1     114.124 124.737 137.349  0.00  0.00    +0.000 C 
ATOM     33  C   UNL     1     113.413 124.518 136.994  0.00  0.00    +0.000 C 
ATOM     34  C   UNL     1     112.717 124.917 137.185  0.00  0.00    +0.000 C 
ATOM     35  C   UNL     1     114.140 125.355 137.896  0.00  0.00    +0.000 C 
ATOM     36  C   UNL     1     113.444 125.754 138.087  0.00  0.00    +0.000 C 
BRANCH  34  38
ATOM     37  O   UNL     1     111.320 124.631 137.287  0.00  0.00    +0.000 OA
ATOM     38  C   UNL     1     112.005 124.699 136.830  0.00  0.00    +0.000 C 
ENDBRANCH  34  38
ENDBRANCH  27  36
ENDBRANCH   1  27
TORSDOF 8
ENDMDL
MODEL 10
REMARK VINA RESULT:      -7.9      1.709      2.198
REMARK  Name = 44259828
REMARK  8 active torsions:
REMARK  status: ('A' for Active; 'I' for Inactive)
REMARK    1  A    between atoms: O_2  and  C_18
REMARK    2  A    between atoms: O_2  and  C_20
REMARK    3  A    between atoms: O_7  and  C_21
REMARK    4  A    between atoms: O_9  and  C_27
REMARK    5  A    between atoms: O_10  and  C_33
REMARK    6  A    between atoms: O_13  and  C_35
REMARK    7  A    between atoms: C_16  and  C_19
REMARK    8  A    between atoms: C_23  and  C_26
REMARK                            x       y       z     vdW  Elec       q    Type
REMARK                         _______ _______ _______ _____ _____    ______ ____
ROOT
ATOM      1  C   UNL     1     112.296 130.485 137.606  0.00  0.00    +0.000 A 
ATOM      2  C   UNL     1     112.896 130.146 138.059  0.00  0.00    +0.000 A 
ATOM      3  C   UNL     1     111.776 130.005 137.183  0.00  0.00    +0.000 A 
ATOM      4  C   UNL     1     112.456 128.844 137.667  0.00  0.00    +0.000 A 
ATOM      5  C   UNL     1     112.976 129.326 138.089  0.00  0.00    +0.000 A 
ATOM      6  C   UNL     1     111.856 129.184 137.213  0.00  0.00    +0.000 A 
ENDROOT
BRANCH   4  10
ATOM      7  O   UNL     1     113.085 127.645 137.210  0.00  0.00    +0.000 OA
ATOM      8  O   UNL     1     111.680 126.320 138.760  0.00  0.00    +0.000 OA
ATOM      9  O   UNL     1     112.299 125.094 138.317  0.00  0.00    +0.000 OA
ATOM     10  C   UNL     1     112.537 128.024 137.697  0.00  0.00    +0.000 A 
ATOM     11  C   UNL     1     112.069 127.583 138.213  0.00  0.00    +0.000 A 
ATOM     12  C   UNL     1     112.697 126.383 137.757  0.00  0.00    +0.000 A 
ATOM     13  C   UNL     1     113.165 126.824 137.241  0.00  0.00    +0.000 A 
ATOM     14  C   UNL     1     112.149 126.762 138.243  0.00  0.00    +0.000 A 
ATOM     15  C   UNL     1     112.771 125.528 137.798  0.00  0.00    +0.000 A 
ATOM     16  C   UNL     1     113.740 126.440 136.729  0.00  0.00    +0.000 A 
ATOM     17  C   UNL     1     113.341 125.126 137.294  0.00  0.00    +0.000 A 
ATOM     18  C   UNL     1     113.828 125.586 136.757  0.00  0.00    +0.000 A 
BRANCH  11  19
ATOM     19  O   UNL     1     111.520 127.961 138.699  0.00  0.00    +0.000 OA
ATOM     20  C   UNL     1     111.238 127.584 139.376  0.00  0.00    +0.000 C 
ENDBRANCH  11  19
BRANCH  17  21
ATOM     21  O   UNL     1     113.419 124.306 137.327  0.00  0.00    +0.000 OA
ATOM     22  C   UNL     1     112.882 123.824 136.925  0.00  0.00    +0.000 C 
ENDBRANCH  17  21
BRANCH  18  23
ATOM     23  O   UNL     1     114.377 125.210 136.269  0.00  0.00    +0.000 OA
ATOM     24  C   UNL     1     115.042 125.621 136.003  0.00  0.00    +0.000 C 
ENDBRANCH  18  23
ENDBRANCH   4  10
BRANCH   2  25
ATOM     25  O   UNL     1     113.416 130.627 138.482  0.00  0.00    +0.000 OA
ATOM     26  C   UNL     1     114.124 130.317 138.768  0.00  0.00    +0.000 C 
ENDBRANCH   2  25
BRANCH   1  27
ATOM     27  O   UNL     1     112.216 131.306 137.576  0.00  0.00    +0.000 OA
BRANCH  27  36
ATOM     28  O   UNL     1     111.075 131.448 138.425  0.00  0.00    +0.000 OA
ATOM     29  O   UNL     1     110.125 133.121 136.868  0.00  0.00    +0.000 OA
ATOM     30  O   UNL     1     109.302 132.705 138.235  0.00  0.00    +0.000 OA
ATOM     31  O   UNL     1     111.582 132.421 136.538  0.00  0.00    +0.000 OA
ATOM     32  C   UNL     1     110.442 132.563 137.387  0.00  0.00    +0.000 C 
ATOM     33  C   UNL     1     110.030 132.356 138.070  0.00  0.00    +0.000 C 
ATOM     34  C   UNL     1     110.347 131.798 138.589  0.00  0.00    +0.000 C 
ATOM     35  C   UNL     1     111.171 132.214 137.221  0.00  0.00    +0.000 C 
ATOM     36  C   UNL     1     111.487 131.656 137.740  0.00  0.00    +0.000 C 
BRANCH  34  38
ATOM     37  O   UNL     1     110.323 131.586 140.002  0.00  0.00    +0.000 OA
ATOM     38  C   UNL     1     109.936 131.590 139.273  0.00  0.00    +0.000 C 
ENDBRANCH  34  38
ENDBRANCH  27  36
ENDBRANCH   1  27
TORSDOF 8
ENDMDL
