MODEL 1
REMARK VINA RESULT:     -10.7      0.000      0.000
REMARK  Name = 44257996
REMARK  10 active torsions:
REMARK  status: ('A' for Active; 'I' for Inactive)
REMARK    1  A    between atoms: O_1  and  C_21
REMARK    2  A    between atoms: O_1  and  C_26
REMARK    3  A    between atoms: O_4  and  C_31
REMARK    4  A    between atoms: O_4  and  C_32
REMARK    5  A    between atoms: O_6  and  C_25
REMARK    6  A    between atoms: O_6  and  C_39
REMARK    7  A    between atoms: O_20  and  C_53
REMARK    8  A    between atoms: C_24  and  C_31
REMARK    9  A    between atoms: C_30  and  C_37
REMARK   10  A    between atoms: C_40  and  C_43
REMARK                            x       y       z     vdW  Elec       q    Type
REMARK                         _______ _______ _______ _____ _____    ______ ____
ROOT
ATOM      1  O   UNL     1     111.098 128.558 138.060  0.00  0.00    +0.000 OA
ATOM      2  O   UNL     1     108.939 129.750 138.267  0.00  0.00    +0.000 OA
ATOM      3  O   UNL     1     108.993 128.256 137.568  0.00  0.00    +0.000 OA
ATOM      4  C   UNL     1     110.351 129.703 138.479  0.00  0.00    +0.000 C 
ATOM      5  C   UNL     1     109.658 129.352 138.198  0.00  0.00    +0.000 C 
ATOM      6  C   UNL     1     109.686 128.606 137.849  0.00  0.00    +0.000 C 
ATOM      7  C   UNL     1     110.405 128.209 137.780  0.00  0.00    +0.000 C 
ATOM      8  C   UNL     1     111.071 129.306 138.410  0.00  0.00    +0.000 C 
ENDROOT
BRANCH   4   9
ATOM      9  O   UNL     1     110.324 130.449 138.828  0.00  0.00    +0.000 OA
BRANCH   9  14
ATOM     10  O   UNL     1     110.331 131.056 137.534  0.00  0.00    +0.000 OA
ATOM     11  O   UNL     1     110.195 131.939 139.525  0.00  0.00    +0.000 OA
ATOM     12  O   UNL     1     110.137 133.290 138.580  0.00  0.00    +0.000 OA
ATOM     13  O   UNL     1     110.208 133.151 136.937  0.00  0.00    +0.000 OA
ATOM     14  C   UNL     1     110.295 131.125 138.355  0.00  0.00    +0.000 C 
ATOM     15  C   UNL     1     110.230 131.870 138.704  0.00  0.00    +0.000 C 
ATOM     16  C   UNL     1     110.201 132.546 138.231  0.00  0.00    +0.000 C 
ATOM     17  C   UNL     1     110.237 132.476 137.410  0.00  0.00    +0.000 C 
ATOM     18  C   UNL     1     110.302 131.732 137.061  0.00  0.00    +0.000 C 
BRANCH  18  20
ATOM     19  O   UNL     1     109.664 131.452 135.814  0.00  0.00    +0.000 OA
ATOM     20  C   UNL     1     110.338 131.661 136.240  0.00  0.00    +0.000 C 
ENDBRANCH  18  20
ENDBRANCH   9  14
ENDBRANCH   4   9
BRANCH   8  21
ATOM     21  O   UNL     1     111.763 129.655 138.690  0.00  0.00    +0.000 OA
BRANCH  21  26
ATOM     22  O   UNL     1     113.661 128.710 139.209  0.00  0.00    +0.000 OA
ATOM     23  O   UNL     1     111.331 128.811 140.041  0.00  0.00    +0.000 OA
ATOM     24  O   UNL     1     111.652 127.926 141.134  0.00  0.00    +0.000 OA
ATOM     25  O   UNL     1     114.381 126.920 141.391  0.00  0.00    +0.000 OA
ATOM     26  C   UNL     1     112.324 129.199 139.088  0.00  0.00    +0.000 A 
ATOM     27  C   UNL     1     113.100 129.165 138.811  0.00  0.00    +0.000 A 
ATOM     28  C   UNL     1     112.108 128.778 139.763  0.00  0.00    +0.000 A 
ATOM     29  C   UNL     1     112.668 128.322 140.162  0.00  0.00    +0.000 A 
ATOM     30  C   UNL     1     113.445 128.287 139.885  0.00  0.00    +0.000 A 
ATOM     31  C   UNL     1     112.431 127.886 140.864  0.00  0.00    +0.000 A 
ATOM     32  C   UNL     1     114.037 127.816 140.291  0.00  0.00    +0.000 A 
ATOM     33  C   UNL     1     113.010 127.410 141.284  0.00  0.00    +0.000 A 
ATOM     34  C   UNL     1     113.819 127.375 140.995  0.00  0.00    +0.000 A 
BRANCH  27  35
ATOM     35  C   UNL     1     113.316 129.587 138.136  0.00  0.00    +0.000 A 
ATOM     36  C   UNL     1     113.330 129.211 137.402  0.00  0.00    +0.000 A 
ATOM     37  C   UNL     1     113.518 130.385 138.194  0.00  0.00    +0.000 A 
ATOM     38  C   UNL     1     113.547 129.632 136.726  0.00  0.00    +0.000 A 
ATOM     39  C   UNL     1     113.734 130.806 137.519  0.00  0.00    +0.000 A 
ATOM     40  C   UNL     1     113.748 130.430 136.785  0.00  0.00    +0.000 A 
BRANCH  40  41
ATOM     41  O   UNL     1     113.965 130.852 136.109  0.00  0.00    +0.000 OA
ATOM     42  C   UNL     1     114.739 130.811 135.828  0.00  0.00    +0.000 C 
ENDBRANCH  40  41
ENDBRANCH  27  35
ENDBRANCH  21  26
ENDBRANCH   8  21
BRANCH   7  43
ATOM     43  C   UNL     1     110.433 127.462 137.430  0.00  0.00    +0.000 C 
BRANCH  43  44
ATOM     44  O   UNL     1     110.792 126.834 137.828  0.00  0.00    +0.000 OA
BRANCH  44  49
ATOM     45  O   UNL     1     110.883 126.103 136.603  0.00  0.00    +0.000 OA
ATOM     46  O   UNL     1     111.298 125.503 138.661  0.00  0.00    +0.000 OA
ATOM     47  O   UNL     1     111.643 124.106 137.853  0.00  0.00    +0.000 OA
ATOM     48  O   UNL     1     111.481 124.040 136.212  0.00  0.00    +0.000 OA
ATOM     49  C   UNL     1     110.964 126.135 137.424  0.00  0.00    +0.000 C 
ATOM     50  C   UNL     1     111.217 125.469 137.840  0.00  0.00    +0.000 C 
ATOM     51  C   UNL     1     111.389 124.772 137.436  0.00  0.00    +0.000 C 
ATOM     52  C   UNL     1     111.308 124.739 136.617  0.00  0.00    +0.000 C 
ATOM     53  C   UNL     1     111.055 125.404 136.200  0.00  0.00    +0.000 C 
ATOM     54  C   UNL     1     110.974 125.371 135.379  0.00  0.00    +0.000 C 
ENDBRANCH  44  49
ENDBRANCH  43  44
ENDBRANCH   7  43
TORSDOF 10
ENDMDL
MODEL 2
REMARK VINA RESULT:     -10.7      1.761      5.548
REMARK  Name = 44257996
REMARK  10 active torsions:
REMARK  status: ('A' for Active; 'I' for Inactive)
REMARK    1  A    between atoms: O_1  and  C_21
REMARK    2  A    between atoms: O_1  and  C_26
REMARK    3  A    between atoms: O_4  and  C_31
REMARK    4  A    between atoms: O_4  and  C_32
REMARK    5  A    between atoms: O_6  and  C_25
REMARK    6  A    between atoms: O_6  and  C_39
REMARK    7  A    between atoms: O_20  and  C_53
REMARK    8  A    between atoms: C_24  and  C_31
REMARK    9  A    between atoms: C_30  and  C_37
REMARK   10  A    between atoms: C_40  and  C_43
REMARK                            x       y       z     vdW  Elec       q    Type
REMARK                         _______ _______ _______ _____ _____    ______ ____
ROOT
ATOM      1  O   UNL     1     112.488 128.073 138.895  0.00  0.00    +0.000 OA
ATOM      2  O   UNL     1     112.159 125.702 139.524  0.00  0.00    +0.000 OA
ATOM      3  O   UNL     1     112.923 126.732 140.562  0.00  0.00    +0.000 OA
ATOM      4  C   UNL     1     111.996 126.767 138.586  0.00  0.00    +0.000 C 
ATOM      5  C   UNL     1     112.268 126.492 139.314  0.00  0.00    +0.000 C 
ATOM      6  C   UNL     1     112.650 127.007 139.833  0.00  0.00    +0.000 C 
ATOM      7  C   UNL     1     112.760 127.797 139.624  0.00  0.00    +0.000 C 
ATOM      8  C   UNL     1     112.105 127.557 138.376  0.00  0.00    +0.000 C 
ENDROOT
BRANCH   4   9
ATOM      9  O   UNL     1     111.614 126.252 138.067  0.00  0.00    +0.000 OA
BRANCH   9  14
ATOM     10  O   UNL     1     112.877 125.716 137.664  0.00  0.00    +0.000 OA
ATOM     11  O   UNL     1     110.842 125.131 137.135  0.00  0.00    +0.000 OA
ATOM     12  O   UNL     1     111.718 124.035 136.267  0.00  0.00    +0.000 OA
ATOM     13  O   UNL     1     113.367 124.060 136.331  0.00  0.00    +0.000 OA
ATOM     14  C   UNL     1     112.052 125.704 137.633  0.00  0.00    +0.000 C 
ATOM     15  C   UNL     1     111.666 125.143 137.166  0.00  0.00    +0.000 C 
ATOM     16  C   UNL     1     112.104 124.595 136.733  0.00  0.00    +0.000 C 
ATOM     17  C   UNL     1     112.929 124.608 136.765  0.00  0.00    +0.000 C 
ATOM     18  C   UNL     1     113.315 125.168 137.231  0.00  0.00    +0.000 C 
BRANCH  18  20
ATOM     19  O   UNL     1     114.560 125.757 136.848  0.00  0.00    +0.000 OA
ATOM     20  C   UNL     1     114.139 125.182 137.263  0.00  0.00    +0.000 C 
ENDBRANCH  18  20
ENDBRANCH   9  14
ENDBRANCH   4   9
BRANCH   8  21
ATOM     21  O   UNL     1     111.833 127.833 137.648  0.00  0.00    +0.000 OA
BRANCH  21  26
ATOM     22  O   UNL     1     111.333 129.875 137.063  0.00  0.00    +0.000 OA
ATOM     23  O   UNL     1     110.467 128.085 138.537  0.00  0.00    +0.000 OA
ATOM     24  O   UNL     1     109.369 128.922 138.956  0.00  0.00    +0.000 OA
ATOM     25  O   UNL     1     109.142 131.620 137.862  0.00  0.00    +0.000 OA
ATOM     26  C   UNL     1     111.439 128.556 137.601  0.00  0.00    +0.000 A 
ATOM     27  C   UNL     1     111.727 129.152 137.109  0.00  0.00    +0.000 A 
ATOM     28  C   UNL     1     110.756 128.682 138.046  0.00  0.00    +0.000 A 
ATOM     29  C   UNL     1     110.361 129.405 137.999  0.00  0.00    +0.000 A 
ATOM     30  C   UNL     1     110.649 130.001 137.508  0.00  0.00    +0.000 A 
ATOM     31  C   UNL     1     109.650 129.525 138.467  0.00  0.00    +0.000 A 
ATOM     32  C   UNL     1     110.246 130.758 137.451  0.00  0.00    +0.000 A 
ATOM     33  C   UNL     1     109.234 130.275 138.423  0.00  0.00    +0.000 A 
ATOM     34  C   UNL     1     109.535 130.896 137.911  0.00  0.00    +0.000 A 
BRANCH  27  35
ATOM     35  C   UNL     1     112.410 129.026 136.665  0.00  0.00    +0.000 A 
ATOM     36  C   UNL     1     113.134 129.324 136.927  0.00  0.00    +0.000 A 
ATOM     37  C   UNL     1     112.371 128.602 135.958  0.00  0.00    +0.000 A 
ATOM     38  C   UNL     1     113.818 129.198 136.482  0.00  0.00    +0.000 A 
ATOM     39  C   UNL     1     113.053 128.476 135.513  0.00  0.00    +0.000 A 
ATOM     40  C   UNL     1     113.777 128.774 135.775  0.00  0.00    +0.000 A 
BRANCH  40  41
ATOM     41  O   UNL     1     114.461 128.648 135.330  0.00  0.00    +0.000 OA
ATOM     42  C   UNL     1     114.696 129.205 134.769  0.00  0.00    +0.000 C 
ENDBRANCH  40  41
ENDBRANCH  27  35
ENDBRANCH  21  26
ENDBRANCH   8  21
BRANCH   7  43
ATOM     43  C   UNL     1     113.142 128.313 140.143  0.00  0.00    +0.000 C 
BRANCH  43  44
ATOM     44  O   UNL     1     112.777 129.018 140.366  0.00  0.00    +0.000 OA
BRANCH  44  49
ATOM     45  O   UNL     1     114.008 129.740 140.434  0.00  0.00    +0.000 OA
ATOM     46  O   UNL     1     112.117 130.039 141.481  0.00  0.00    +0.000 OA
ATOM     47  O   UNL     1     113.018 131.272 142.107  0.00  0.00    +0.000 OA
ATOM     48  O   UNL     1     114.580 131.482 141.618  0.00  0.00    +0.000 OA
ATOM     49  C   UNL     1     113.228 129.635 140.679  0.00  0.00    +0.000 C 
ATOM     50  C   UNL     1     112.898 130.145 141.237  0.00  0.00    +0.000 C 
ATOM     51  C   UNL     1     113.348 130.761 141.549  0.00  0.00    +0.000 C 
ATOM     52  C   UNL     1     114.129 130.866 141.305  0.00  0.00    +0.000 C 
ATOM     53  C   UNL     1     114.459 130.356 140.747  0.00  0.00    +0.000 C 
ATOM     54  C   UNL     1     115.240 130.461 140.502  0.00  0.00    +0.000 C 
ENDBRANCH  44  49
ENDBRANCH  43  44
ENDBRANCH   7  43
TORSDOF 10
ENDMDL
MODEL 3
REMARK VINA RESULT:     -10.4      1.917      4.882
REMARK  Name = 44257996
REMARK  10 active torsions:
REMARK  status: ('A' for Active; 'I' for Inactive)
REMARK    1  A    between atoms: O_1  and  C_21
REMARK    2  A    between atoms: O_1  and  C_26
REMARK    3  A    between atoms: O_4  and  C_31
REMARK    4  A    between atoms: O_4  and  C_32
REMARK    5  A    between atoms: O_6  and  C_25
REMARK    6  A    between atoms: O_6  and  C_39
REMARK    7  A    between atoms: O_20  and  C_53
REMARK    8  A    between atoms: C_24  and  C_31
REMARK    9  A    between atoms: C_30  and  C_37
REMARK   10  A    between atoms: C_40  and  C_43
REMARK                            x       y       z     vdW  Elec       q    Type
REMARK                         _______ _______ _______ _____ _____    ______ ____
ROOT
ATOM      1  O   UNL     1     111.444 128.098 139.307  0.00  0.00    +0.000 OA
ATOM      2  O   UNL     1     111.193 125.642 139.486  0.00  0.00    +0.000 OA
ATOM      3  O   UNL     1     110.156 126.638 140.295  0.00  0.00    +0.000 OA
ATOM      4  C   UNL     1     111.879 126.780 138.962  0.00  0.00    +0.000 C 
ATOM      5  C   UNL     1     111.277 126.461 139.426  0.00  0.00    +0.000 C 
ATOM      6  C   UNL     1     110.758 126.958 139.830  0.00  0.00    +0.000 C 
ATOM      7  C   UNL     1     110.842 127.777 139.770  0.00  0.00    +0.000 C 
ATOM      8  C   UNL     1     111.963 127.599 138.902  0.00  0.00    +0.000 C 
ENDROOT
BRANCH   4   9
ATOM      9  O   UNL     1     112.398 126.283 138.558  0.00  0.00    +0.000 OA
BRANCH   9  14
ATOM     10  O   UNL     1     111.387 126.020 137.583  0.00  0.00    +0.000 OA
ATOM     11  O   UNL     1     113.433 125.282 137.753  0.00  0.00    +0.000 OA
ATOM     12  O   UNL     1     112.940 124.520 136.375  0.00  0.00    +0.000 OA
ATOM     13  O   UNL     1     111.410 124.758 135.803  0.00  0.00    +0.000 OA
ATOM     14  C   UNL     1     112.151 125.901 137.870  0.00  0.00    +0.000 C 
ATOM     15  C   UNL     1     112.669 125.401 137.466  0.00  0.00    +0.000 C 
ATOM     16  C   UNL     1     112.422 125.019 136.778  0.00  0.00    +0.000 C 
ATOM     17  C   UNL     1     111.657 125.139 136.492  0.00  0.00    +0.000 C 
ATOM     18  C   UNL     1     111.140 125.639 136.894  0.00  0.00    +0.000 C 
BRANCH  18  20
ATOM     19  O   UNL     1     110.163 126.487 136.287  0.00  0.00    +0.000 OA
ATOM     20  C   UNL     1     110.375 125.758 136.609  0.00  0.00    +0.000 C 
ENDBRANCH  18  20
ENDBRANCH   9  14
ENDBRANCH   4   9
BRANCH   8  21
ATOM     21  O   UNL     1     112.565 127.920 138.438  0.00  0.00    +0.000 OA
BRANCH  21  26
ATOM     22  O   UNL     1     113.439 129.919 138.468  0.00  0.00    +0.000 OA
ATOM     23  O   UNL     1     113.270 127.929 139.930  0.00  0.00    +0.000 OA
ATOM     24  O   UNL     1     114.038 128.585 140.961  0.00  0.00    +0.000 OA
ATOM     25  O   UNL     1     114.994 131.306 140.504  0.00  0.00    +0.000 OA
ATOM     26  C   UNL     1     112.974 128.588 138.697  0.00  0.00    +0.000 A 
ATOM     27  C   UNL     1     113.030 129.251 138.209  0.00  0.00    +0.000 A 
ATOM     28  C   UNL     1     113.326 128.592 139.442  0.00  0.00    +0.000 A 
ATOM     29  C   UNL     1     113.736 129.260 139.701  0.00  0.00    +0.000 A 
ATOM     30  C   UNL     1     113.793 129.924 139.214  0.00  0.00    +0.000 A 
ATOM     31  C   UNL     1     114.099 129.253 140.480  0.00  0.00    +0.000 A 
ATOM     32  C   UNL     1     114.216 130.625 139.473  0.00  0.00    +0.000 A 
ATOM     33  C   UNL     1     114.527 129.945 140.756  0.00  0.00    +0.000 A 
ATOM     34  C   UNL     1     114.585 130.636 140.247  0.00  0.00    +0.000 A 
BRANCH  27  35
ATOM     35  C   UNL     1     112.678 129.247 137.464  0.00  0.00    +0.000 A 
ATOM     36  C   UNL     1     111.936 129.592 137.357  0.00  0.00    +0.000 A 
ATOM     37  C   UNL     1     113.066 128.897 136.825  0.00  0.00    +0.000 A 
ATOM     38  C   UNL     1     111.583 129.588 136.610  0.00  0.00    +0.000 A 
ATOM     39  C   UNL     1     112.714 128.893 136.080  0.00  0.00    +0.000 A 
ATOM     40  C   UNL     1     111.972 129.238 135.973  0.00  0.00    +0.000 A 
BRANCH  40  41
ATOM     41  O   UNL     1     111.619 129.234 135.226  0.00  0.00    +0.000 OA
ATOM     42  C   UNL     1     111.922 128.753 134.629  0.00  0.00    +0.000 C 
ENDBRANCH  40  41
ENDBRANCH  27  35
ENDBRANCH  21  26
ENDBRANCH   8  21
BRANCH   7  43
ATOM     43  C   UNL     1     110.323 128.276 140.175  0.00  0.00    +0.000 C 
BRANCH  43  44
ATOM     44  O   UNL     1     109.985 128.920 139.787  0.00  0.00    +0.000 OA
BRANCH  44  49
ATOM     45  O   UNL     1     109.887 129.701 140.980  0.00  0.00    +0.000 OA
ATOM     46  O   UNL     1     108.708 129.744 139.143  0.00  0.00    +0.000 OA
ATOM     47  O   UNL     1     107.972 130.936 140.015  0.00  0.00    +0.000 OA
ATOM     48  O   UNL     1     108.513 131.305 141.529  0.00  0.00    +0.000 OA
ATOM     49  C   UNL     1     109.617 129.517 140.223  0.00  0.00    +0.000 C 
ATOM     50  C   UNL     1     108.978 129.929 139.901  0.00  0.00    +0.000 C 
ATOM     51  C   UNL     1     108.610 130.524 140.336  0.00  0.00    +0.000 C 
ATOM     52  C   UNL     1     108.880 130.709 141.093  0.00  0.00    +0.000 C 
ATOM     53  C   UNL     1     109.519 130.297 141.415  0.00  0.00    +0.000 C 
ATOM     54  C   UNL     1     109.790 130.481 142.173  0.00  0.00    +0.000 C 
ENDBRANCH  44  49
ENDBRANCH  43  44
ENDBRANCH   7  43
TORSDOF 10
ENDMDL
MODEL 4
REMARK VINA RESULT:     -10.4      1.392      5.121
REMARK  Name = 44257996
REMARK  10 active torsions:
REMARK  status: ('A' for Active; 'I' for Inactive)
REMARK    1  A    between atoms: O_1  and  C_21
REMARK    2  A    between atoms: O_1  and  C_26
REMARK    3  A    between atoms: O_4  and  C_31
REMARK    4  A    between atoms: O_4  and  C_32
REMARK    5  A    between atoms: O_6  and  C_25
REMARK    6  A    between atoms: O_6  and  C_39
REMARK    7  A    between atoms: O_20  and  C_53
REMARK    8  A    between atoms: C_24  and  C_31
REMARK    9  A    between atoms: C_30  and  C_37
REMARK   10  A    between atoms: C_40  and  C_43
REMARK                            x       y       z     vdW  Elec       q    Type
REMARK                         _______ _______ _______ _____ _____    ______ ____
ROOT
ATOM      1  O   UNL     1     111.476 129.540 137.857  0.00  0.00    +0.000 OA
ATOM      2  O   UNL     1     111.421 129.763 140.322  0.00  0.00    +0.000 OA
ATOM      3  O   UNL     1     110.441 130.704 139.386  0.00  0.00    +0.000 OA
ATOM      4  C   UNL     1     111.948 129.143 139.147  0.00  0.00    +0.000 C 
ATOM      5  C   UNL     1     111.439 129.688 139.500  0.00  0.00    +0.000 C 
ATOM      6  C   UNL     1     110.949 130.159 139.033  0.00  0.00    +0.000 C 
ATOM      7  C   UNL     1     110.968 130.085 138.211  0.00  0.00    +0.000 C 
ATOM      8  C   UNL     1     111.966 129.069 138.325  0.00  0.00    +0.000 C 
ENDROOT
BRANCH   4   9
ATOM      9  O   UNL     1     112.438 128.673 139.614  0.00  0.00    +0.000 OA
BRANCH   9  14
ATOM     10  O   UNL     1     111.333 127.814 139.907  0.00  0.00    +0.000 OA
ATOM     11  O   UNL     1     113.420 127.724 140.540  0.00  0.00    +0.000 OA
ATOM     12  O   UNL     1     112.807 126.392 141.296  0.00  0.00    +0.000 OA
ATOM     13  O   UNL     1     111.211 126.008 141.125  0.00  0.00    +0.000 OA
ATOM     14  C   UNL     1     112.131 128.006 139.992  0.00  0.00    +0.000 C 
ATOM     15  C   UNL     1     112.622 127.532 140.455  0.00  0.00    +0.000 C 
ATOM     16  C   UNL     1     112.316 126.865 140.833  0.00  0.00    +0.000 C 
ATOM     17  C   UNL     1     111.518 126.674 140.748  0.00  0.00    +0.000 C 
ATOM     18  C   UNL     1     111.027 127.147 140.285  0.00  0.00    +0.000 C 
BRANCH  18  20
ATOM     19  O   UNL     1     109.923 126.783 139.453  0.00  0.00    +0.000 OA
ATOM     20  C   UNL     1     110.229 126.956 140.199  0.00  0.00    +0.000 C 
ENDBRANCH  18  20
ENDBRANCH   9  14
ENDBRANCH   4   9
BRANCH   8  21
ATOM     21  O   UNL     1     112.474 128.524 137.971  0.00  0.00    +0.000 OA
BRANCH  21  26
ATOM     22  O   UNL     1     113.308 128.492 135.954  0.00  0.00    +0.000 OA
ATOM     23  O   UNL     1     113.422 129.875 138.004  0.00  0.00    +0.000 OA
ATOM     24  O   UNL     1     114.341 130.789 137.371  0.00  0.00    +0.000 OA
ATOM     25  O   UNL     1     115.160 130.295 134.613  0.00  0.00    +0.000 OA
ATOM     26  C   UNL     1     112.910 128.739 137.304  0.00  0.00    +0.000 A 
ATOM     27  C   UNL     1     112.872 128.278 136.621  0.00  0.00    +0.000 A 
ATOM     28  C   UNL     1     113.383 129.414 137.321  0.00  0.00    +0.000 A 
ATOM     29  C   UNL     1     113.819 129.628 136.654  0.00  0.00    +0.000 A 
ATOM     30  C   UNL     1     113.782 129.168 135.971  0.00  0.00    +0.000 A 
ATOM     31  C   UNL     1     114.309 130.334 136.683  0.00  0.00    +0.000 A 
ATOM     32  C   UNL     1     114.231 129.381 135.270  0.00  0.00    +0.000 A 
ATOM     33  C   UNL     1     114.765 130.563 135.993  0.00  0.00    +0.000 A 
ATOM     34  C   UNL     1     114.725 130.083 135.281  0.00  0.00    +0.000 A 
BRANCH  27  35
ATOM     35  C   UNL     1     112.399 127.603 136.605  0.00  0.00    +0.000 A 
ATOM     36  C   UNL     1     111.645 127.636 136.271  0.00  0.00    +0.000 A 
ATOM     37  C   UNL     1     112.678 126.894 136.921  0.00  0.00    +0.000 A 
ATOM     38  C   UNL     1     111.170 126.960 136.254  0.00  0.00    +0.000 A 
ATOM     39  C   UNL     1     112.205 126.219 136.905  0.00  0.00    +0.000 A 
ATOM     40  C   UNL     1     111.451 126.252 136.571  0.00  0.00    +0.000 A 
BRANCH  40  41
ATOM     41  O   UNL     1     110.977 125.577 136.554  0.00  0.00    +0.000 OA
ATOM     42  C   UNL     1     111.026 125.053 135.918  0.00  0.00    +0.000 C 
ENDBRANCH  40  41
ENDBRANCH  27  35
ENDBRANCH  21  26
ENDBRANCH   8  21
BRANCH   7  43
ATOM     43  C   UNL     1     110.477 130.556 137.743  0.00  0.00    +0.000 C 
BRANCH  43  44
ATOM     44  O   UNL     1     109.963 130.205 137.202  0.00  0.00    +0.000 OA
BRANCH  44  49
ATOM     45  O   UNL     1     109.727 131.418 136.484  0.00  0.00    +0.000 OA
ATOM     46  O   UNL     1     108.464 129.662 136.778  0.00  0.00    +0.000 OA
ATOM     47  O   UNL     1     107.478 130.604 135.848  0.00  0.00    +0.000 OA
ATOM     48  O   UNL     1     107.992 132.088 135.342  0.00  0.00    +0.000 OA
ATOM     49  C   UNL     1     109.470 130.676 136.737  0.00  0.00    +0.000 C 
ATOM     50  C   UNL     1     108.720 130.404 136.525  0.00  0.00    +0.000 C 
ATOM     51  C   UNL     1     108.228 130.875 136.060  0.00  0.00    +0.000 C 
ATOM     52  C   UNL     1     108.484 131.616 135.807  0.00  0.00    +0.000 C 
ATOM     53  C   UNL     1     109.234 131.888 136.019  0.00  0.00    +0.000 C 
ATOM     54  C   UNL     1     109.491 132.631 135.766  0.00  0.00    +0.000 C 
ENDBRANCH  44  49
ENDBRANCH  43  44
ENDBRANCH   7  43
TORSDOF 10
ENDMDL
MODEL 5
REMARK VINA RESULT:     -10.2      1.631      5.320
REMARK  Name = 44257996
REMARK  10 active torsions:
REMARK  status: ('A' for Active; 'I' for Inactive)
REMARK    1  A    between atoms: O_1  and  C_21
REMARK    2  A    between atoms: O_1  and  C_26
REMARK    3  A    between atoms: O_4  and  C_31
REMARK    4  A    between atoms: O_4  and  C_32
REMARK    5  A    between atoms: O_6  and  C_25
REMARK    6  A    between atoms: O_6  and  C_39
REMARK    7  A    between atoms: O_20  and  C_53
REMARK    8  A    between atoms: C_24  and  C_31
REMARK    9  A    between atoms: C_30  and  C_37
REMARK   10  A    between atoms: C_40  and  C_43
REMARK                            x       y       z     vdW  Elec       q    Type
REMARK                         _______ _______ _______ _____ _____    ______ ____
ROOT
ATOM      1  O   UNL     1     111.915 128.902 138.170  0.00  0.00    +0.000 OA
ATOM      2  O   UNL     1     112.501 127.732 136.069  0.00  0.00    +0.000 OA
ATOM      3  O   UNL     1     111.466 129.017 136.037  0.00  0.00    +0.000 OA
ATOM      4  C   UNL     1     112.628 127.869 137.486  0.00  0.00    +0.000 C 
ATOM      5  C   UNL     1     112.305 128.122 136.769  0.00  0.00    +0.000 C 
ATOM      6  C   UNL     1     111.789 128.764 136.753  0.00  0.00    +0.000 C 
ATOM      7  C   UNL     1     111.593 129.154 137.453  0.00  0.00    +0.000 C 
ATOM      8  C   UNL     1     112.433 128.259 138.186  0.00  0.00    +0.000 C 
ENDROOT
BRANCH   4   9
ATOM      9  O   UNL     1     113.145 127.227 137.502  0.00  0.00    +0.000 OA
BRANCH   9  14
ATOM     10  O   UNL     1     112.037 126.332 137.380  0.00  0.00    +0.000 OA
ATOM     11  O   UNL     1     114.180 125.942 137.524  0.00  0.00    +0.000 OA
ATOM     12  O   UNL     1     113.589 124.405 137.414  0.00  0.00    +0.000 OA
ATOM     13  O   UNL     1     111.964 124.153 137.281  0.00  0.00    +0.000 OA
ATOM     14  C   UNL     1     112.850 126.458 137.447  0.00  0.00    +0.000 C 
ATOM     15  C   UNL     1     113.367 125.815 137.458  0.00  0.00    +0.000 C 
ATOM     16  C   UNL     1     113.072 125.047 137.403  0.00  0.00    +0.000 C 
ATOM     17  C   UNL     1     112.259 124.921 137.336  0.00  0.00    +0.000 C 
ATOM     18  C   UNL     1     111.742 125.563 137.325  0.00  0.00    +0.000 C 
BRANCH  18  20
ATOM     19  O   UNL     1     110.428 125.639 137.881  0.00  0.00    +0.000 OA
ATOM     20  C   UNL     1     110.929 125.438 137.259  0.00  0.00    +0.000 C 
ENDBRANCH  18  20
ENDBRANCH   9  14
ENDBRANCH   4   9
BRANCH   8  21
ATOM     21  O   UNL     1     112.754 128.007 138.902  0.00  0.00    +0.000 OA
BRANCH  21  26
ATOM     22  O   UNL     1     113.002 129.069 140.793  0.00  0.00    +0.000 OA
ATOM     23  O   UNL     1     113.797 129.204 138.453  0.00  0.00    +0.000 OA
ATOM     24  O   UNL     1     114.591 130.369 138.759  0.00  0.00    +0.000 OA
ATOM     25  O   UNL     1     114.581 131.417 141.484  0.00  0.00    +0.000 OA
ATOM     26  C   UNL     1     113.011 128.561 139.458  0.00  0.00    +0.000 A 
ATOM     27  C   UNL     1     112.746 128.515 140.238  0.00  0.00    +0.000 A 
ATOM     28  C   UNL     1     113.532 129.159 139.233  0.00  0.00    +0.000 A 
ATOM     29  C   UNL     1     113.788 129.712 139.788  0.00  0.00    +0.000 A 
ATOM     30  C   UNL     1     113.524 129.668 140.568  0.00  0.00    +0.000 A 
ATOM     31  C   UNL     1     114.331 130.332 139.542  0.00  0.00    +0.000 A 
ATOM     32  C   UNL     1     113.783 130.239 141.155  0.00  0.00    +0.000 A 
ATOM     33  C   UNL     1     114.602 130.912 140.115  0.00  0.00    +0.000 A 
ATOM     34  C   UNL     1     114.326 130.864 140.927  0.00  0.00    +0.000 A 
BRANCH  27  35
ATOM     35  C   UNL     1     112.225 127.917 140.463  0.00  0.00    +0.000 A 
ATOM     36  C   UNL     1     112.515 127.170 140.658  0.00  0.00    +0.000 A 
ATOM     37  C   UNL     1     111.413 128.065 140.492  0.00  0.00    +0.000 A 
ATOM     38  C   UNL     1     111.993 126.571 140.884  0.00  0.00    +0.000 A 
ATOM     39  C   UNL     1     110.893 127.467 140.717  0.00  0.00    +0.000 A 
ATOM     40  C   UNL     1     111.183 126.720 140.913  0.00  0.00    +0.000 A 
BRANCH  40  41
ATOM     41  O   UNL     1     110.661 126.120 141.138  0.00  0.00    +0.000 OA
ATOM     42  C   UNL     1     109.850 126.267 141.164  0.00  0.00    +0.000 C 
ENDBRANCH  40  41
ENDBRANCH  27  35
ENDBRANCH  21  26
ENDBRANCH   8  21
BRANCH   7  43
ATOM     43  C   UNL     1     111.076 129.797 137.437  0.00  0.00    +0.000 C 
BRANCH  43  44
ATOM     44  O   UNL     1     110.473 129.854 137.998  0.00  0.00    +0.000 OA
BRANCH  44  49
ATOM     45  O   UNL     1     110.386 131.273 137.846  0.00  0.00    +0.000 OA
ATOM     46  O   UNL     1     108.937 129.824 138.598  0.00  0.00    +0.000 OA
ATOM     47  O   UNL     1     108.081 131.227 138.745  0.00  0.00    +0.000 OA
ATOM     48  O   UNL     1     108.762 132.660 138.293  0.00  0.00    +0.000 OA
ATOM     49  C   UNL     1     110.045 130.556 138.072  0.00  0.00    +0.000 C 
ATOM     50  C   UNL     1     109.277 130.541 138.372  0.00  0.00    +0.000 C 
ATOM     51  C   UNL     1     108.849 131.242 138.445  0.00  0.00    +0.000 C 
ATOM     52  C   UNL     1     109.189 131.958 138.219  0.00  0.00    +0.000 C 
ATOM     53  C   UNL     1     109.957 131.974 137.920  0.00  0.00    +0.000 C 
ATOM     54  C   UNL     1     110.298 132.691 137.693  0.00  0.00    +0.000 C 
ENDBRANCH  44  49
ENDBRANCH  43  44
ENDBRANCH   7  43
TORSDOF 10
ENDMDL
MODEL 6
REMARK VINA RESULT:     -10.2      1.729      3.757
REMARK  Name = 44257996
REMARK  10 active torsions:
REMARK  status: ('A' for Active; 'I' for Inactive)
REMARK    1  A    between atoms: O_1  and  C_21
REMARK    2  A    between atoms: O_1  and  C_26
REMARK    3  A    between atoms: O_4  and  C_31
REMARK    4  A    between atoms: O_4  and  C_32
REMARK    5  A    between atoms: O_6  and  C_25
REMARK    6  A    between atoms: O_6  and  C_39
REMARK    7  A    between atoms: O_20  and  C_53
REMARK    8  A    between atoms: C_24  and  C_31
REMARK    9  A    between atoms: C_30  and  C_37
REMARK   10  A    between atoms: C_40  and  C_43
REMARK                            x       y       z     vdW  Elec       q    Type
REMARK                         _______ _______ _______ _____ _____    ______ ____
ROOT
ATOM      1  O   UNL     1     112.664 128.079 138.711  0.00  0.00    +0.000 OA
ATOM      2  O   UNL     1     112.797 128.326 141.170  0.00  0.00    +0.000 OA
ATOM      3  O   UNL     1     113.118 126.867 140.469  0.00  0.00    +0.000 OA
ATOM      4  C   UNL     1     112.548 128.891 139.881  0.00  0.00    +0.000 C 
ATOM      5  C   UNL     1     112.753 128.243 140.350  0.00  0.00    +0.000 C 
ATOM      6  C   UNL     1     112.913 127.515 140.000  0.00  0.00    +0.000 C 
ATOM      7  C   UNL     1     112.869 127.432 139.180  0.00  0.00    +0.000 C 
ATOM      8  C   UNL     1     112.503 128.809 139.062  0.00  0.00    +0.000 C 
ENDROOT
BRANCH   4   9
ATOM      9  O   UNL     1     112.387 129.620 140.232  0.00  0.00    +0.000 OA
BRANCH   9  14
ATOM     10  O   UNL     1     113.768 129.988 140.257  0.00  0.00    +0.000 OA
ATOM     11  O   UNL     1     112.083 130.676 141.462  0.00  0.00    +0.000 OA
ATOM     12  O   UNL     1     113.311 131.572 142.103  0.00  0.00    +0.000 OA
ATOM     13  O   UNL     1     114.844 131.412 141.513  0.00  0.00    +0.000 OA
ATOM     14  C   UNL     1     113.001 130.068 140.552  0.00  0.00    +0.000 C 
ATOM     15  C   UNL     1     112.849 130.596 141.168  0.00  0.00    +0.000 C 
ATOM     16  C   UNL     1     113.464 131.044 141.488  0.00  0.00    +0.000 C 
ATOM     17  C   UNL     1     114.230 130.964 141.192  0.00  0.00    +0.000 C 
ATOM     18  C   UNL     1     114.382 130.436 140.578  0.00  0.00    +0.000 C 
BRANCH  18  20
ATOM     19  O   UNL     1     115.609 129.708 140.501  0.00  0.00    +0.000 OA
ATOM     20  C   UNL     1     115.148 130.355 140.282  0.00  0.00    +0.000 C 
ENDBRANCH  18  20
ENDBRANCH   9  14
ENDBRANCH   4   9
BRANCH   8  21
ATOM     21  O   UNL     1     112.299 129.455 138.592  0.00  0.00    +0.000 OA
BRANCH  21  26
ATOM     22  O   UNL     1     111.446 129.469 136.583  0.00  0.00    +0.000 OA
ATOM     23  O   UNL     1     110.786 128.869 138.892  0.00  0.00    +0.000 OA
ATOM     24  O   UNL     1     109.473 128.472 138.444  0.00  0.00    +0.000 OA
ATOM     25  O   UNL     1     108.816 128.687 135.607  0.00  0.00    +0.000 OA
ATOM     26  C   UNL     1     111.762 129.362 137.973  0.00  0.00    +0.000 A 
ATOM     27  C   UNL     1     111.983 129.562 137.203  0.00  0.00    +0.000 A 
ATOM     28  C   UNL     1     111.006 129.069 138.122  0.00  0.00    +0.000 A 
ATOM     29  C   UNL     1     110.470 128.976 137.503  0.00  0.00    +0.000 A 
ATOM     30  C   UNL     1     110.689 129.176 136.733  0.00  0.00    +0.000 A 
ATOM     31  C   UNL     1     109.684 128.669 137.671  0.00  0.00    +0.000 A 
ATOM     32  C   UNL     1     110.139 129.083 136.079  0.00  0.00    +0.000 A 
ATOM     33  C   UNL     1     109.121 128.570 137.030  0.00  0.00    +0.000 A 
ATOM     34  C   UNL     1     109.351 128.779 136.229  0.00  0.00    +0.000 A 
BRANCH  27  35
ATOM     35  C   UNL     1     112.738 129.855 137.053  0.00  0.00    +0.000 A 
ATOM     36  C   UNL     1     113.326 129.353 136.764  0.00  0.00    +0.000 A 
ATOM     37  C   UNL     1     112.908 130.651 137.191  0.00  0.00    +0.000 A 
ATOM     38  C   UNL     1     114.083 129.646 136.614  0.00  0.00    +0.000 A 
ATOM     39  C   UNL     1     113.664 130.944 137.041  0.00  0.00    +0.000 A 
ATOM     40  C   UNL     1     114.251 130.441 136.753  0.00  0.00    +0.000 A 
BRANCH  40  41
ATOM     41  O   UNL     1     115.009 130.734 136.602  0.00  0.00    +0.000 OA
ATOM     42  C   UNL     1     115.304 130.739 135.832  0.00  0.00    +0.000 C 
ENDBRANCH  40  41
ENDBRANCH  27  35
ENDBRANCH  21  26
ENDBRANCH   8  21
BRANCH   7  43
ATOM     43  C   UNL     1     113.030 126.702 138.829  0.00  0.00    +0.000 C 
BRANCH  43  44
ATOM     44  O   UNL     1     112.468 126.348 138.340  0.00  0.00    +0.000 OA
BRANCH  44  49
ATOM     45  O   UNL     1     113.476 125.516 137.763  0.00  0.00    +0.000 OA
ATOM     46  O   UNL     1     111.300 125.441 137.608  0.00  0.00    +0.000 OA
ATOM     47  O   UNL     1     111.724 124.156 136.664  0.00  0.00    +0.000 OA
ATOM     48  O   UNL     1     113.316 123.777 136.452  0.00  0.00    +0.000 OA
ATOM     49  C   UNL     1     112.680 125.705 137.868  0.00  0.00    +0.000 C 
ATOM     50  C   UNL     1     112.096 125.251 137.502  0.00  0.00    +0.000 C 
ATOM     51  C   UNL     1     112.308 124.609 137.030  0.00  0.00    +0.000 C 
ATOM     52  C   UNL     1     113.103 124.420 136.924  0.00  0.00    +0.000 C 
ATOM     53  C   UNL     1     113.687 124.873 137.290  0.00  0.00    +0.000 C 
ATOM     54  C   UNL     1     114.484 124.684 137.185  0.00  0.00    +0.000 C 
ENDBRANCH  44  49
ENDBRANCH  43  44
ENDBRANCH   7  43
TORSDOF 10
ENDMDL
MODEL 7
REMARK VINA RESULT:     -10.2      2.023      4.779
REMARK  Name = 44257996
REMARK  10 active torsions:
REMARK  status: ('A' for Active; 'I' for Inactive)
REMARK    1  A    between atoms: O_1  and  C_21
REMARK    2  A    between atoms: O_1  and  C_26
REMARK    3  A    between atoms: O_4  and  C_31
REMARK    4  A    between atoms: O_4  and  C_32
REMARK    5  A    between atoms: O_6  and  C_25
REMARK    6  A    between atoms: O_6  and  C_39
REMARK    7  A    between atoms: O_20  and  C_53
REMARK    8  A    between atoms: C_24  and  C_31
REMARK    9  A    between atoms: C_30  and  C_37
REMARK   10  A    between atoms: C_40  and  C_43
REMARK                            x       y       z     vdW  Elec       q    Type
REMARK                         _______ _______ _______ _____ _____    ______ ____
ROOT
ATOM      1  O   UNL     1     111.413 127.483 138.047  0.00  0.00    +0.000 OA
ATOM      2  O   UNL     1     108.981 127.023 138.088  0.00  0.00    +0.000 OA
ATOM      3  O   UNL     1     109.588 128.164 137.062  0.00  0.00    +0.000 OA
ATOM      4  C   UNL     1     110.298 126.759 138.574  0.00  0.00    +0.000 C 
ATOM      5  C   UNL     1     109.792 127.177 138.074  0.00  0.00    +0.000 C 
ATOM      6  C   UNL     1     110.095 127.746 137.562  0.00  0.00    +0.000 C 
ATOM      7  C   UNL     1     110.905 127.900 137.548  0.00  0.00    +0.000 C 
ATOM      8  C   UNL     1     111.109 126.912 138.561  0.00  0.00    +0.000 C 
ENDROOT
BRANCH   4   9
ATOM      9  O   UNL     1     109.995 126.189 139.087  0.00  0.00    +0.000 OA
BRANCH   9  14
ATOM     10  O   UNL     1     109.602 127.217 139.998  0.00  0.00    +0.000 OA
ATOM     11  O   UNL     1     109.436 125.046 140.137  0.00  0.00    +0.000 OA
ATOM     12  O   UNL     1     108.763 125.502 141.573  0.00  0.00    +0.000 OA
ATOM     13  O   UNL     1     108.650 127.102 141.959  0.00  0.00    +0.000 OA
ATOM     14  C   UNL     1     109.659 126.417 139.805  0.00  0.00    +0.000 C 
ATOM     15  C   UNL     1     109.379 125.845 140.330  0.00  0.00    +0.000 C 
ATOM     16  C   UNL     1     109.043 126.074 141.048  0.00  0.00    +0.000 C 
ATOM     17  C   UNL     1     108.986 126.874 141.241  0.00  0.00    +0.000 C 
ATOM     18  C   UNL     1     109.265 127.446 140.716  0.00  0.00    +0.000 C 
BRANCH  18  20
ATOM     19  O   UNL     1     108.596 128.703 140.600  0.00  0.00    +0.000 OA
ATOM     20  C   UNL     1     109.209 128.246 140.909  0.00  0.00    +0.000 C 
ENDBRANCH  18  20
ENDBRANCH   9  14
ENDBRANCH   4   9
BRANCH   8  21
ATOM     21  O   UNL     1     111.616 126.495 139.060  0.00  0.00    +0.000 OA
BRANCH  21  26
ATOM     22  O   UNL     1     113.774 126.208 138.898  0.00  0.00    +0.000 OA
ATOM     23  O   UNL     1     111.703 125.533 137.723  0.00  0.00    +0.000 OA
ATOM     24  O   UNL     1     112.463 124.780 136.755  0.00  0.00    +0.000 OA
ATOM     25  O   UNL     1     115.373 124.710 136.981  0.00  0.00    +0.000 OA
ATOM     26  C   UNL     1     112.350 126.239 138.783  0.00  0.00    +0.000 A 
ATOM     27  C   UNL     1     113.040 126.465 139.175  0.00  0.00    +0.000 A 
ATOM     28  C   UNL     1     112.393 125.758 138.115  0.00  0.00    +0.000 A 
ATOM     29  C   UNL     1     113.126 125.502 137.838  0.00  0.00    +0.000 A 
ATOM     30  C   UNL     1     113.817 125.726 138.229  0.00  0.00    +0.000 A 
ATOM     31  C   UNL     1     113.159 125.000 137.140  0.00  0.00    +0.000 A 
ATOM     32  C   UNL     1     114.587 125.466 137.950  0.00  0.00    +0.000 A 
ATOM     33  C   UNL     1     113.920 124.730 136.847  0.00  0.00    +0.000 A 
ATOM     34  C   UNL     1     114.638 124.965 137.255  0.00  0.00    +0.000 A 
BRANCH  27  35
ATOM     35  C   UNL     1     112.997 126.946 139.843  0.00  0.00    +0.000 A 
ATOM     36  C   UNL     1     113.124 127.758 139.775  0.00  0.00    +0.000 A 
ATOM     37  C   UNL     1     112.827 126.615 140.580  0.00  0.00    +0.000 A 
ATOM     38  C   UNL     1     113.081 128.240 140.444  0.00  0.00    +0.000 A 
ATOM     39  C   UNL     1     112.784 127.096 141.248  0.00  0.00    +0.000 A 
ATOM     40  C   UNL     1     112.911 127.909 141.180  0.00  0.00    +0.000 A 
BRANCH  40  41
ATOM     41  O   UNL     1     112.868 128.391 141.849  0.00  0.00    +0.000 OA
ATOM     42  C   UNL     1     112.568 129.157 141.787  0.00  0.00    +0.000 C 
ENDBRANCH  40  41
ENDBRANCH  27  35
ENDBRANCH  21  26
ENDBRANCH   8  21
BRANCH   7  43
ATOM     43  C   UNL     1     111.209 128.470 137.035  0.00  0.00    +0.000 C 
BRANCH  43  44
ATOM     44  O   UNL     1     111.602 129.130 137.338  0.00  0.00    +0.000 OA
BRANCH  44  49
ATOM     45  O   UNL     1     112.694 128.985 136.427  0.00  0.00    +0.000 OA
ATOM     46  O   UNL     1     111.951 130.734 137.501  0.00  0.00    +0.000 OA
ATOM     47  O   UNL     1     113.217 131.391 136.672  0.00  0.00    +0.000 OA
ATOM     48  O   UNL     1     114.134 130.445 135.680  0.00  0.00    +0.000 OA
ATOM     49  C   UNL     1     112.235 129.459 136.923  0.00  0.00    +0.000 C 
ATOM     50  C   UNL     1     112.410 130.261 137.005  0.00  0.00    +0.000 C 
ATOM     51  C   UNL     1     113.042 130.589 136.590  0.00  0.00    +0.000 C 
ATOM     52  C   UNL     1     113.501 130.116 136.095  0.00  0.00    +0.000 C 
ATOM     53  C   UNL     1     113.326 129.314 136.013  0.00  0.00    +0.000 C 
ATOM     54  C   UNL     1     113.785 128.840 135.516  0.00  0.00    +0.000 C 
ENDBRANCH  44  49
ENDBRANCH  43  44
ENDBRANCH   7  43
TORSDOF 10
ENDMDL
MODEL 8
REMARK VINA RESULT:     -10.2      1.494      4.798
REMARK  Name = 44257996
REMARK  10 active torsions:
REMARK  status: ('A' for Active; 'I' for Inactive)
REMARK    1  A    between atoms: O_1  and  C_21
REMARK    2  A    between atoms: O_1  and  C_26
REMARK    3  A    between atoms: O_4  and  C_31
REMARK    4  A    between atoms: O_4  and  C_32
REMARK    5  A    between atoms: O_6  and  C_25
REMARK    6  A    between atoms: O_6  and  C_39
REMARK    7  A    between atoms: O_20  and  C_53
REMARK    8  A    between atoms: C_24  and  C_31
REMARK    9  A    between atoms: C_30  and  C_37
REMARK   10  A    between atoms: C_40  and  C_43
REMARK                            x       y       z     vdW  Elec       q    Type
REMARK                         _______ _______ _______ _____ _____    ______ ____
ROOT
ATOM      1  O   UNL     1     111.203 129.337 137.696  0.00  0.00    +0.000 OA
ATOM      2  O   UNL     1     111.408 129.383 140.162  0.00  0.00    +0.000 OA
ATOM      3  O   UNL     1     110.355 130.401 139.402  0.00  0.00    +0.000 OA
ATOM      4  C   UNL     1     111.798 128.843 138.898  0.00  0.00    +0.000 C 
ATOM      5  C   UNL     1     111.339 129.368 139.340  0.00  0.00    +0.000 C 
ATOM      6  C   UNL     1     110.813 129.876 138.960  0.00  0.00    +0.000 C 
ATOM      7  C   UNL     1     110.745 129.861 138.138  0.00  0.00    +0.000 C 
ATOM      8  C   UNL     1     111.730 128.828 138.076  0.00  0.00    +0.000 C 
ENDROOT
BRANCH   4   9
ATOM      9  O   UNL     1     112.324 128.334 139.277  0.00  0.00    +0.000 OA
BRANCH   9  14
ATOM     10  O   UNL     1     113.253 129.405 139.457  0.00  0.00    +0.000 OA
ATOM     11  O   UNL     1     113.221 127.388 140.290  0.00  0.00    +0.000 OA
ATOM     12  O   UNL     1     114.597 127.987 140.975  0.00  0.00    +0.000 OA
ATOM     13  O   UNL     1     115.078 129.531 140.647  0.00  0.00    +0.000 OA
ATOM     14  C   UNL     1     113.013 128.633 139.620  0.00  0.00    +0.000 C 
ATOM     15  C   UNL     1     113.461 128.160 140.126  0.00  0.00    +0.000 C 
ATOM     16  C   UNL     1     114.150 128.459 140.469  0.00  0.00    +0.000 C 
ATOM     17  C   UNL     1     114.389 129.232 140.305  0.00  0.00    +0.000 C 
ATOM     18  C   UNL     1     113.942 129.705 139.799  0.00  0.00    +0.000 C 
BRANCH  18  20
ATOM     19  O   UNL     1     114.515 130.659 138.904  0.00  0.00    +0.000 OA
ATOM     20  C   UNL     1     114.181 130.477 139.635  0.00  0.00    +0.000 C 
ENDBRANCH  18  20
ENDBRANCH   9  14
ENDBRANCH   4   9
BRANCH   8  21
ATOM     21  O   UNL     1     112.188 128.303 137.633  0.00  0.00    +0.000 OA
BRANCH  21  26
ATOM     22  O   UNL     1     111.830 127.520 135.628  0.00  0.00    +0.000 OA
ATOM     23  O   UNL     1     110.868 127.351 137.902  0.00  0.00    +0.000 OA
ATOM     24  O   UNL     1     109.847 126.445 137.434  0.00  0.00    +0.000 OA
ATOM     25  O   UNL     1     109.801 125.695 134.612  0.00  0.00    +0.000 OA
ATOM     26  C   UNL     1     111.849 127.884 137.010  0.00  0.00    +0.000 A 
ATOM     27  C   UNL     1     112.170 127.940 136.252  0.00  0.00    +0.000 A 
ATOM     28  C   UNL     1     111.189 127.408 137.144  0.00  0.00    +0.000 A 
ATOM     29  C   UNL     1     110.849 126.988 136.520  0.00  0.00    +0.000 A 
ATOM     30  C   UNL     1     111.170 127.044 135.762  0.00  0.00    +0.000 A 
ATOM     31  C   UNL     1     110.161 126.495 136.672  0.00  0.00    +0.000 A 
ATOM     32  C   UNL     1     110.825 126.611 135.105  0.00  0.00    +0.000 A 
ATOM     33  C   UNL     1     109.803 126.055 136.027  0.00  0.00    +0.000 A 
ATOM     34  C   UNL     1     110.138 126.114 135.238  0.00  0.00    +0.000 A 
BRANCH  27  35
ATOM     35  C   UNL     1     112.830 128.416 136.117  0.00  0.00    +0.000 A 
ATOM     36  C   UNL     1     113.585 128.132 136.289  0.00  0.00    +0.000 A 
ATOM     37  C   UNL     1     112.735 129.176 135.811  0.00  0.00    +0.000 A 
ATOM     38  C   UNL     1     114.246 128.608 136.155  0.00  0.00    +0.000 A 
ATOM     39  C   UNL     1     113.395 129.652 135.677  0.00  0.00    +0.000 A 
ATOM     40  C   UNL     1     114.150 129.368 135.849  0.00  0.00    +0.000 A 
BRANCH  40  41
ATOM     41  O   UNL     1     114.811 129.844 135.714  0.00  0.00    +0.000 OA
ATOM     42  C   UNL     1     114.713 130.633 135.495  0.00  0.00    +0.000 C 
ENDBRANCH  40  41
ENDBRANCH  27  35
ENDBRANCH  21  26
ENDBRANCH   8  21
BRANCH   7  43
ATOM     43  C   UNL     1     110.218 130.370 137.758  0.00  0.00    +0.000 C 
BRANCH  43  44
ATOM     44  O   UNL     1     109.667 130.069 137.224  0.00  0.00    +0.000 OA
BRANCH  44  49
ATOM     45  O   UNL     1     109.543 131.326 136.555  0.00  0.00    +0.000 OA
ATOM     46  O   UNL     1     108.197 129.609 136.631  0.00  0.00    +0.000 OA
ATOM     47  O   UNL     1     107.338 130.635 135.667  0.00  0.00    +0.000 OA
ATOM     48  O   UNL     1     107.949 132.122 135.294  0.00  0.00    +0.000 OA
ATOM     49  C   UNL     1     109.237 130.582 136.741  0.00  0.00    +0.000 C 
ATOM     50  C   UNL     1     108.502 130.352 136.445  0.00  0.00    +0.000 C 
ATOM     51  C   UNL     1     108.073 130.865 135.963  0.00  0.00    +0.000 C 
ATOM     52  C   UNL     1     108.378 131.608 135.777  0.00  0.00    +0.000 C 
ATOM     53  C   UNL     1     109.113 131.839 136.073  0.00  0.00    +0.000 C 
ATOM     54  C   UNL     1     109.419 132.583 135.887  0.00  0.00    +0.000 C 
ENDBRANCH  44  49
ENDBRANCH  43  44
ENDBRANCH   7  43
TORSDOF 10
ENDMDL
MODEL 9
REMARK VINA RESULT:     -10.2      1.299      3.707
REMARK  Name = 44257996
REMARK  10 active torsions:
REMARK  status: ('A' for Active; 'I' for Inactive)
REMARK    1  A    between atoms: O_1  and  C_21
REMARK    2  A    between atoms: O_1  and  C_26
REMARK    3  A    between atoms: O_4  and  C_31
REMARK    4  A    between atoms: O_4  and  C_32
REMARK    5  A    between atoms: O_6  and  C_25
REMARK    6  A    between atoms: O_6  and  C_39
REMARK    7  A    between atoms: O_20  and  C_53
REMARK    8  A    between atoms: C_24  and  C_31
REMARK    9  A    between atoms: C_30  and  C_37
REMARK   10  A    between atoms: C_40  and  C_43
REMARK                            x       y       z     vdW  Elec       q    Type
REMARK                         _______ _______ _______ _____ _____    ______ ____
ROOT
ATOM      1  O   UNL     1     111.345 128.370 138.087  0.00  0.00    +0.000 OA
ATOM      2  O   UNL     1     109.131 129.444 138.350  0.00  0.00    +0.000 OA
ATOM      3  O   UNL     1     110.126 129.274 139.656  0.00  0.00    +0.000 OA
ATOM      4  C   UNL     1     110.109 128.813 137.522  0.00  0.00    +0.000 C 
ATOM      5  C   UNL     1     109.869 129.086 138.262  0.00  0.00    +0.000 C 
ATOM      6  C   UNL     1     110.366 129.001 138.915  0.00  0.00    +0.000 C 
ATOM      7  C   UNL     1     111.104 128.643 138.827  0.00  0.00    +0.000 C 
ATOM      8  C   UNL     1     110.848 128.455 137.434  0.00  0.00    +0.000 C 
ENDROOT
BRANCH   4   9
ATOM      9  O   UNL     1     109.612 128.898 136.869  0.00  0.00    +0.000 OA
BRANCH   9  14
ATOM     10  O   UNL     1     109.978 130.276 136.766  0.00  0.00    +0.000 OA
ATOM     11  O   UNL     1     108.514 129.099 135.655  0.00  0.00    +0.000 OA
ATOM     12  O   UNL     1     108.331 130.577 134.944  0.00  0.00    +0.000 OA
ATOM     13  O   UNL     1     109.247 131.854 135.448  0.00  0.00    +0.000 OA
ATOM     14  C   UNL     1     109.521 129.637 136.514  0.00  0.00    +0.000 C 
ATOM     15  C   UNL     1     108.971 129.738 135.906  0.00  0.00    +0.000 C 
ATOM     16  C   UNL     1     108.880 130.477 135.551  0.00  0.00    +0.000 C 
ATOM     17  C   UNL     1     109.338 131.115 135.803  0.00  0.00    +0.000 C 
ATOM     18  C   UNL     1     109.887 131.014 136.410  0.00  0.00    +0.000 C 
BRANCH  18  20
ATOM     19  O   UNL     1     111.160 131.650 136.540  0.00  0.00    +0.000 OA
ATOM     20  C   UNL     1     110.345 131.653 136.663  0.00  0.00    +0.000 C 
ENDBRANCH  18  20
ENDBRANCH   9  14
ENDBRANCH   4   9
BRANCH   8  21
ATOM     21  O   UNL     1     111.089 128.182 136.694  0.00  0.00    +0.000 OA
BRANCH  21  26
ATOM     22  O   UNL     1     112.589 126.679 136.192  0.00  0.00    +0.000 OA
ATOM     23  O   UNL     1     110.377 126.820 137.294  0.00  0.00    +0.000 OA
ATOM     24  O   UNL     1     110.377 125.398 137.541  0.00  0.00    +0.000 OA
ATOM     25  O   UNL     1     112.659 123.805 136.657  0.00  0.00    +0.000 OA
ATOM     26  C   UNL     1     111.470 127.454 136.627  0.00  0.00    +0.000 A 
ATOM     27  C   UNL     1     112.208 127.407 136.259  0.00  0.00    +0.000 A 
ATOM     28  C   UNL     1     111.114 126.773 136.926  0.00  0.00    +0.000 A 
ATOM     29  C   UNL     1     111.496 126.045 136.859  0.00  0.00    +0.000 A 
ATOM     30  C   UNL     1     112.233 125.997 136.492  0.00  0.00    +0.000 A 
ATOM     31  C   UNL     1     111.115 125.341 137.176  0.00  0.00    +0.000 A 
ATOM     32  C   UNL     1     112.640 125.244 136.416  0.00  0.00    +0.000 A 
ATOM     33  C   UNL     1     111.507 124.580 137.109  0.00  0.00    +0.000 A 
ATOM     34  C   UNL     1     112.275 124.532 136.726  0.00  0.00    +0.000 A 
BRANCH  27  35
ATOM     35  C   UNL     1     112.563 128.088 135.959  0.00  0.00    +0.000 A 
ATOM     36  C   UNL     1     113.163 128.461 136.385  0.00  0.00    +0.000 A 
ATOM     37  C   UNL     1     112.320 128.396 135.233  0.00  0.00    +0.000 A 
ATOM     38  C   UNL     1     113.519 129.143 136.085  0.00  0.00    +0.000 A 
ATOM     39  C   UNL     1     112.676 129.076 134.934  0.00  0.00    +0.000 A 
ATOM     40  C   UNL     1     113.275 129.450 135.359  0.00  0.00    +0.000 A 
BRANCH  40  41
ATOM     41  O   UNL     1     113.632 130.132 135.059  0.00  0.00    +0.000 OA
ATOM     42  C   UNL     1     114.447 130.151 134.936  0.00  0.00    +0.000 C 
ENDBRANCH  40  41
ENDBRANCH  27  35
ENDBRANCH  21  26
ENDBRANCH   8  21
BRANCH   7  43
ATOM     43  C   UNL     1     111.602 128.558 139.480  0.00  0.00    +0.000 C 
BRANCH  43  44
ATOM     44  O   UNL     1     112.340 128.927 139.486  0.00  0.00    +0.000 OA
BRANCH  44  49
ATOM     45  O   UNL     1     113.018 127.749 139.927  0.00  0.00    +0.000 OA
ATOM     46  O   UNL     1     113.525 129.860 140.156  0.00  0.00    +0.000 OA
ATOM     47  O   UNL     1     114.795 129.148 140.932  0.00  0.00    +0.000 OA
ATOM     48  O   UNL     1     114.881 127.504 141.038  0.00  0.00    +0.000 OA
ATOM     49  C   UNL     1     112.976 128.571 139.875  0.00  0.00    +0.000 C 
ATOM     50  C   UNL     1     113.568 129.038 140.210  0.00  0.00    +0.000 C 
ATOM     51  C   UNL     1     114.203 128.682 140.597  0.00  0.00    +0.000 C 
ATOM     52  C   UNL     1     114.246 127.861 140.650  0.00  0.00    +0.000 C 
ATOM     53  C   UNL     1     113.653 127.394 140.315  0.00  0.00    +0.000 C 
ATOM     54  C   UNL     1     113.696 126.571 140.368  0.00  0.00    +0.000 C 
ENDBRANCH  44  49
ENDBRANCH  43  44
ENDBRANCH   7  43
TORSDOF 10
ENDMDL
MODEL 10
REMARK VINA RESULT:     -10.1      1.655      5.493
REMARK  Name = 44257996
REMARK  10 active torsions:
REMARK  status: ('A' for Active; 'I' for Inactive)
REMARK    1  A    between atoms: O_1  and  C_21
REMARK    2  A    between atoms: O_1  and  C_26
REMARK    3  A    between atoms: O_4  and  C_31
REMARK    4  A    between atoms: O_4  and  C_32
REMARK    5  A    between atoms: O_6  and  C_25
REMARK    6  A    between atoms: O_6  and  C_39
REMARK    7  A    between atoms: O_20  and  C_53
REMARK    8  A    between atoms: C_24  and  C_31
REMARK    9  A    between atoms: C_30  and  C_37
REMARK   10  A    between atoms: C_40  and  C_43
REMARK                            x       y       z     vdW  Elec       q    Type
REMARK                         _______ _______ _______ _____ _____    ______ ____
ROOT
ATOM      1  O   UNL     1     111.366 128.458 136.340  0.00  0.00    +0.000 OA
ATOM      2  O   UNL     1     111.025 126.248 135.280  0.00  0.00    +0.000 OA
ATOM      3  O   UNL     1     109.958 127.474 134.994  0.00  0.00    +0.000 OA
ATOM      4  C   UNL     1     111.786 127.108 136.130  0.00  0.00    +0.000 C 
ATOM      5  C   UNL     1     111.139 126.985 135.633  0.00  0.00    +0.000 C 
ATOM      6  C   UNL     1     110.606 127.597 135.490  0.00  0.00    +0.000 C 
ATOM      7  C   UNL     1     110.720 128.334 135.844  0.00  0.00    +0.000 C 
ATOM      8  C   UNL     1     111.900 127.845 136.483  0.00  0.00    +0.000 C 
ENDROOT
BRANCH   4   9
ATOM      9  O   UNL     1     112.319 126.495 136.273  0.00  0.00    +0.000 OA
BRANCH   9  14
ATOM     10  O   UNL     1     111.489 125.936 137.293  0.00  0.00    +0.000 OA
ATOM     11  O   UNL     1     113.073 125.040 136.088  0.00  0.00    +0.000 OA
ATOM     12  O   UNL     1     112.621 123.752 137.016  0.00  0.00    +0.000 OA
ATOM     13  O   UNL     1     111.414 123.921 138.128  0.00  0.00    +0.000 OA
ATOM     14  C   UNL     1     112.093 125.852 136.737  0.00  0.00    +0.000 C 
ATOM     15  C   UNL     1     112.470 125.123 136.644  0.00  0.00    +0.000 C 
ATOM     16  C   UNL     1     112.244 124.480 137.108  0.00  0.00    +0.000 C 
ATOM     17  C   UNL     1     111.640 124.565 137.664  0.00  0.00    +0.000 C 
ATOM     18  C   UNL     1     111.263 125.292 137.757  0.00  0.00    +0.000 C 
BRANCH  18  20
ATOM     19  O   UNL     1     110.806 125.762 139.027  0.00  0.00    +0.000 OA
ATOM     20  C   UNL     1     110.659 125.377 138.313  0.00  0.00    +0.000 C 
ENDBRANCH  18  20
ENDBRANCH   9  14
ENDBRANCH   4   9
BRANCH   8  21
ATOM     21  O   UNL     1     112.547 127.969 136.980  0.00  0.00    +0.000 OA
BRANCH  21  26
ATOM     22  O   UNL     1     113.662 129.794 137.415  0.00  0.00    +0.000 OA
ATOM     23  O   UNL     1     113.182 128.308 135.495  0.00  0.00    +0.000 OA
ATOM     24  O   UNL     1     113.979 129.133 134.620  0.00  0.00    +0.000 OA
ATOM     25  O   UNL     1     115.286 131.506 135.709  0.00  0.00    +0.000 OA
ATOM     26  C   UNL     1     113.024 128.634 136.877  0.00  0.00    +0.000 A 
ATOM     27  C   UNL     1     113.184 129.129 137.518  0.00  0.00    +0.000 A 
ATOM     28  C   UNL     1     113.342 128.803 136.135  0.00  0.00    +0.000 A 
ATOM     29  C   UNL     1     113.819 129.468 136.033  0.00  0.00    +0.000 A 
ATOM     30  C   UNL     1     113.980 129.963 136.672  0.00  0.00    +0.000 A 
ATOM     31  C   UNL     1     114.145 129.634 135.255  0.00  0.00    +0.000 A 
ATOM     32  C   UNL     1     114.476 130.659 136.578  0.00  0.00    +0.000 A 
ATOM     33  C   UNL     1     114.643 130.325 135.141  0.00  0.00    +0.000 A 
ATOM     34  C   UNL     1     114.809 130.840 135.809  0.00  0.00    +0.000 A 
BRANCH  27  35
ATOM     35  C   UNL     1     112.867 128.960 138.260  0.00  0.00    +0.000 A 
ATOM     36  C   UNL     1     113.231 128.401 138.746  0.00  0.00    +0.000 A 
ATOM     37  C   UNL     1     112.186 129.348 138.516  0.00  0.00    +0.000 A 
ATOM     38  C   UNL     1     112.914 128.232 139.489  0.00  0.00    +0.000 A 
ATOM     39  C   UNL     1     111.869 129.179 139.258  0.00  0.00    +0.000 A 
ATOM     40  C   UNL     1     112.233 128.621 139.745  0.00  0.00    +0.000 A 
BRANCH  40  41
ATOM     41  O   UNL     1     111.915 128.451 140.488  0.00  0.00    +0.000 OA
ATOM     42  C   UNL     1     112.203 128.838 141.157  0.00  0.00    +0.000 C 
ENDBRANCH  40  41
ENDBRANCH  27  35
ENDBRANCH  21  26
ENDBRANCH   8  21
BRANCH   7  43
ATOM     43  C   UNL     1     110.186 128.948 135.701  0.00  0.00    +0.000 C 
BRANCH  43  44
ATOM     44  O   UNL     1     109.827 129.337 136.333  0.00  0.00    +0.000 OA
BRANCH  44  49
ATOM     45  O   UNL     1     109.426 130.405 135.473  0.00  0.00    +0.000 OA
ATOM     46  O   UNL     1     108.820 129.907 137.510  0.00  0.00    +0.000 OA
ATOM     47  O   UNL     1     107.917 131.261 137.238  0.00  0.00    +0.000 OA
ATOM     48  O   UNL     1     108.019 132.044 135.789  0.00  0.00    +0.000 OA
ATOM     49  C   UNL     1     109.374 130.014 136.197  0.00  0.00    +0.000 C 
ATOM     50  C   UNL     1     108.871 130.299 136.785  0.00  0.00    +0.000 C 
ATOM     51  C   UNL     1     108.420 130.975 136.649  0.00  0.00    +0.000 C 
ATOM     52  C   UNL     1     108.471 131.367 135.925  0.00  0.00    +0.000 C 
ATOM     53  C   UNL     1     108.974 131.082 135.337  0.00  0.00    +0.000 C 
ATOM     54  C   UNL     1     109.026 131.473 134.612  0.00  0.00    +0.000 C 
ENDBRANCH  44  49
ENDBRANCH  43  44
ENDBRANCH   7  43
TORSDOF 10
ENDMDL
