MODEL 1
REMARK VINA RESULT:      -8.6      0.000      0.000
REMARK  Name = 131752378
REMARK  3 active torsions:
REMARK  status: ('A' for Active; 'I' for Inactive)
REMARK    1  A    between atoms: O_4  and  C_21
REMARK    2  A    between atoms: O_8  and  C_22
REMARK    3  A    between atoms: C_11  and  C_12
REMARK                            x       y       z     vdW  Elec       q    Type
REMARK                         _______ _______ _______ _____ _____    ______ ____
ROOT
ATOM      1  O   UNL     1     105.111 124.387 147.436  0.00  0.00    +0.000 OA
ATOM      2  O   UNL     1     107.459 125.562 146.216  0.00  0.00    +0.000 OA
ATOM      3  O   UNL     1     105.960 124.261 148.852  0.00  0.00    +0.000 OA
ATOM      4  O   UNL     1     108.275 125.421 147.643  0.00  0.00    +0.000 OA
ATOM      5  O   UNL     1     107.525 124.771 148.961  0.00  0.00    +0.000 OA
ATOM      6  O   UNL     1     106.270 125.387 145.418  0.00  0.00    +0.000 OA
ATOM      7  C   UNL     1     106.301 124.982 146.821  0.00  0.00    +0.000 A 
ATOM      8  C   UNL     1     105.927 124.657 147.480  0.00  0.00    +0.000 A 
ATOM      9  C   UNL     1     104.682 124.458 146.695  0.00  0.00    +0.000 A 
ATOM     10  C   UNL     1     105.887 125.061 146.072  0.00  0.00    +0.000 A 
ATOM     11  C   UNL     1     107.084 125.237 146.875  0.00  0.00    +0.000 A 
ATOM     12  C   UNL     1     105.072 124.797 146.009  0.00  0.00    +0.000 A 
ATOM     13  C   UNL     1     106.335 124.586 148.193  0.00  0.00    +0.000 A 
ATOM     14  C   UNL     1     107.491 125.166 147.589  0.00  0.00    +0.000 A 
ATOM     15  C   UNL     1     107.117 124.841 148.248  0.00  0.00    +0.000 A 
ENDROOT
BRANCH   9  16
ATOM     16  C   UNL     1     103.899 124.203 146.644  0.00  0.00    +0.000 A 
ATOM     17  C   UNL     1     103.299 124.634 147.011  0.00  0.00    +0.000 A 
ATOM     18  C   UNL     1     103.716 123.516 146.224  0.00  0.00    +0.000 A 
ATOM     19  C   UNL     1     102.516 124.378 146.959  0.00  0.00    +0.000 A 
ATOM     20  C   UNL     1     102.333 123.692 146.540  0.00  0.00    +0.000 A 
ATOM     21  C   UNL     1     102.933 123.261 146.173  0.00  0.00    +0.000 A 
BRANCH  19  22
ATOM     22  O   UNL     1     101.916 124.809 147.326  0.00  0.00    +0.000 OA
ATOM     23  C   UNL     1     102.095 125.310 147.957  0.00  0.00    +0.000 C 
ENDBRANCH  19  22
BRANCH  20  24
ATOM     24  O   UNL     1     101.550 123.436 146.489  0.00  0.00    +0.000 OA
ATOM     25  C   UNL     1     101.351 122.819 145.978  0.00  0.00    +0.000 C 
ENDBRANCH  20  24
ENDBRANCH   9  16
TORSDOF 3
ENDMDL
MODEL 2
REMARK VINA RESULT:      -8.4      0.956      4.664
REMARK  Name = 131752378
REMARK  3 active torsions:
REMARK  status: ('A' for Active; 'I' for Inactive)
REMARK    1  A    between atoms: O_4  and  C_21
REMARK    2  A    between atoms: O_8  and  C_22
REMARK    3  A    between atoms: C_11  and  C_12
REMARK                            x       y       z     vdW  Elec       q    Type
REMARK                         _______ _______ _______ _____ _____    ______ ____
ROOT
ATOM      1  O   UNL     1     104.686 123.996 146.756  0.00  0.00    +0.000 OA
ATOM      2  O   UNL     1     101.860 124.583 146.977  0.00  0.00    +0.000 OA
ATOM      3  O   UNL     1     104.333 122.965 145.509  0.00  0.00    +0.000 OA
ATOM      4  O   UNL     1     101.545 123.549 145.731  0.00  0.00    +0.000 OA
ATOM      5  O   UNL     1     102.781 122.740 144.997  0.00  0.00    +0.000 OA
ATOM      6  O   UNL     1     102.782 125.233 147.877  0.00  0.00    +0.000 OA
ATOM      7  C   UNL     1     103.255 124.291 146.866  0.00  0.00    +0.000 A 
ATOM      8  C   UNL     1     103.873 123.886 146.498  0.00  0.00    +0.000 A 
ATOM      9  C   UNL     1     104.857 124.533 147.404  0.00  0.00    +0.000 A 
ATOM     10  C   UNL     1     103.407 124.832 147.516  0.00  0.00    +0.000 A 
ATOM     11  C   UNL     1     102.479 124.179 146.610  0.00  0.00    +0.000 A 
ATOM     12  C   UNL     1     104.213 124.954 147.786  0.00  0.00    +0.000 A 
ATOM     13  C   UNL     1     103.715 123.370 145.876  0.00  0.00    +0.000 A 
ATOM     14  C   UNL     1     102.321 123.661 145.987  0.00  0.00    +0.000 A 
ATOM     15  C   UNL     1     102.940 123.257 145.620  0.00  0.00    +0.000 A 
ENDROOT
BRANCH   9  16
ATOM     16  C   UNL     1     105.634 124.644 147.658  0.00  0.00    +0.000 A 
ATOM     17  C   UNL     1     106.145 125.124 147.224  0.00  0.00    +0.000 A 
ATOM     18  C   UNL     1     105.900 124.274 148.346  0.00  0.00    +0.000 A 
ATOM     19  C   UNL     1     106.922 125.235 147.478  0.00  0.00    +0.000 A 
ATOM     20  C   UNL     1     107.189 124.866 148.165  0.00  0.00    +0.000 A 
ATOM     21  C   UNL     1     106.677 124.386 148.599  0.00  0.00    +0.000 A 
BRANCH  19  22
ATOM     22  O   UNL     1     107.433 125.716 147.043  0.00  0.00    +0.000 OA
ATOM     23  C   UNL     1     107.128 126.280 146.524  0.00  0.00    +0.000 C 
ENDBRANCH  19  22
BRANCH  20  24
ATOM     24  O   UNL     1     107.966 124.977 148.419  0.00  0.00    +0.000 OA
ATOM     25  C   UNL     1     108.242 124.580 149.087  0.00  0.00    +0.000 C 
ENDBRANCH  20  24
ENDBRANCH   9  16
TORSDOF 3
ENDMDL
MODEL 3
REMARK VINA RESULT:      -8.2      0.873      1.877
REMARK  Name = 131752378
REMARK  3 active torsions:
REMARK  status: ('A' for Active; 'I' for Inactive)
REMARK    1  A    between atoms: O_4  and  C_21
REMARK    2  A    between atoms: O_8  and  C_22
REMARK    3  A    between atoms: C_11  and  C_12
REMARK                            x       y       z     vdW  Elec       q    Type
REMARK                         _______ _______ _______ _____ _____    ______ ____
ROOT
ATOM      1  O   UNL     1     104.406 124.729 145.970  0.00  0.00    +0.000 OA
ATOM      2  O   UNL     1     106.772 125.002 147.615  0.00  0.00    +0.000 OA
ATOM      3  O   UNL     1     105.207 125.519 144.755  0.00  0.00    +0.000 OA
ATOM      4  O   UNL     1     107.541 125.786 146.383  0.00  0.00    +0.000 OA
ATOM      5  O   UNL     1     106.758 126.044 144.953  0.00  0.00    +0.000 OA
ATOM      6  O   UNL     1     105.614 124.337 148.160  0.00  0.00    +0.000 OA
ATOM      7  C   UNL     1     105.605 124.869 146.800  0.00  0.00    +0.000 A 
ATOM      8  C   UNL     1     105.214 124.998 146.085  0.00  0.00    +0.000 A 
ATOM      9  C   UNL     1     104.000 124.320 146.608  0.00  0.00    +0.000 A 
ATOM     10  C   UNL     1     105.215 124.462 147.449  0.00  0.00    +0.000 A 
ATOM     11  C   UNL     1     106.381 125.131 146.900  0.00  0.00    +0.000 A 
ATOM     12  C   UNL     1     104.407 124.186 147.352  0.00  0.00    +0.000 A 
ATOM     13  C   UNL     1     105.598 125.390 145.470  0.00  0.00    +0.000 A 
ATOM     14  C   UNL     1     106.765 125.523 146.284  0.00  0.00    +0.000 A 
ATOM     15  C   UNL     1     106.373 125.652 145.569  0.00  0.00    +0.000 A 
ENDROOT
BRANCH   9  16
ATOM     16  C   UNL     1     103.224 124.058 146.506  0.00  0.00    +0.000 A 
ATOM     17  C   UNL     1     102.602 124.465 146.863  0.00  0.00    +0.000 A 
ATOM     18  C   UNL     1     103.071 123.390 146.048  0.00  0.00    +0.000 A 
ATOM     19  C   UNL     1     101.826 124.203 146.761  0.00  0.00    +0.000 A 
ATOM     20  C   UNL     1     101.672 123.535 146.303  0.00  0.00    +0.000 A 
ATOM     21  C   UNL     1     102.295 123.128 145.946  0.00  0.00    +0.000 A 
BRANCH  19  22
ATOM     22  O   UNL     1     101.203 124.610 147.118  0.00  0.00    +0.000 OA
ATOM     23  C   UNL     1     101.342 125.074 147.787  0.00  0.00    +0.000 C 
ENDBRANCH  19  22
BRANCH  20  24
ATOM     24  O   UNL     1     100.897 123.273 146.201  0.00  0.00    +0.000 OA
ATOM     25  C   UNL     1     100.717 122.739 145.599  0.00  0.00    +0.000 C 
ENDBRANCH  20  24
ENDBRANCH   9  16
TORSDOF 3
ENDMDL
MODEL 4
REMARK VINA RESULT:      -8.1      7.188      8.142
REMARK  Name = 131752378
REMARK  3 active torsions:
REMARK  status: ('A' for Active; 'I' for Inactive)
REMARK    1  A    between atoms: O_4  and  C_21
REMARK    2  A    between atoms: O_8  and  C_22
REMARK    3  A    between atoms: C_11  and  C_12
REMARK                            x       y       z     vdW  Elec       q    Type
REMARK                         _______ _______ _______ _____ _____    ______ ____
ROOT
ATOM      1  O   UNL     1     104.360 123.488 139.519  0.00  0.00    +0.000 OA
ATOM      2  O   UNL     1     106.435 125.223 140.548  0.00  0.00    +0.000 OA
ATOM      3  O   UNL     1     104.266 122.781 141.013  0.00  0.00    +0.000 OA
ATOM      4  O   UNL     1     106.316 124.496 142.024  0.00  0.00    +0.000 OA
ATOM      5  O   UNL     1     105.231 123.274 142.257  0.00  0.00    +0.000 OA
ATOM      6  O   UNL     1     106.027 125.362 139.172  0.00  0.00    +0.000 OA
ATOM      7  C   UNL     1     105.410 124.365 140.043  0.00  0.00    +0.000 A 
ATOM      8  C   UNL     1     104.868 123.755 140.159  0.00  0.00    +0.000 A 
ATOM      9  C   UNL     1     104.417 123.863 138.748  0.00  0.00    +0.000 A 
ATOM     10  C   UNL     1     105.482 124.752 139.278  0.00  0.00    +0.000 A 
ATOM     11  C   UNL     1     105.893 124.613 140.664  0.00  0.00    +0.000 A 
ATOM     12  C   UNL     1     104.982 124.499 138.627  0.00  0.00    +0.000 A 
ATOM     13  C   UNL     1     104.808 123.391 140.897  0.00  0.00    +0.000 A 
ATOM     14  C   UNL     1     105.833 124.249 141.402  0.00  0.00    +0.000 A 
ATOM     15  C   UNL     1     105.291 123.638 141.518  0.00  0.00    +0.000 A 
ENDROOT
BRANCH   9  16
ATOM     16  C   UNL     1     103.933 123.614 138.128  0.00  0.00    +0.000 A 
ATOM     17  C   UNL     1     103.113 123.627 138.214  0.00  0.00    +0.000 A 
ATOM     18  C   UNL     1     104.270 123.352 137.422  0.00  0.00    +0.000 A 
ATOM     19  C   UNL     1     102.629 123.378 137.594  0.00  0.00    +0.000 A 
ATOM     20  C   UNL     1     102.965 123.116 136.888  0.00  0.00    +0.000 A 
ATOM     21  C   UNL     1     103.785 123.103 136.802  0.00  0.00    +0.000 A 
BRANCH  19  22
ATOM     22  O   UNL     1     101.809 123.392 137.680  0.00  0.00    +0.000 OA
ATOM     23  C   UNL     1     101.465 123.165 138.396  0.00  0.00    +0.000 C 
ENDBRANCH  19  22
BRANCH  20  24
ATOM     24  O   UNL     1     102.481 122.867 136.268  0.00  0.00    +0.000 OA
ATOM     25  C   UNL     1     102.803 122.739 135.519  0.00  0.00    +0.000 C 
ENDBRANCH  20  24
ENDBRANCH   9  16
TORSDOF 3
ENDMDL
MODEL 5
REMARK VINA RESULT:      -8.0      8.816     10.034
REMARK  Name = 131752378
REMARK  3 active torsions:
REMARK  status: ('A' for Active; 'I' for Inactive)
REMARK    1  A    between atoms: O_4  and  C_21
REMARK    2  A    between atoms: O_8  and  C_22
REMARK    3  A    between atoms: C_11  and  C_12
REMARK                            x       y       z     vdW  Elec       q    Type
REMARK                         _______ _______ _______ _____ _____    ______ ____
ROOT
ATOM      1  O   UNL     1     102.921 131.987 141.225  0.00  0.00    +0.000 OA
ATOM      2  O   UNL     1     100.766 133.643 142.222  0.00  0.00    +0.000 OA
ATOM      3  O   UNL     1     103.637 133.353 140.621  0.00  0.00    +0.000 OA
ATOM      4  O   UNL     1     101.508 134.983 141.608  0.00  0.00    +0.000 OA
ATOM      5  O   UNL     1     102.943 134.838 140.807  0.00  0.00    +0.000 OA
ATOM      6  O   UNL     1     100.718 132.220 142.451  0.00  0.00    +0.000 OA
ATOM      7  C   UNL     1     101.831 132.828 141.728  0.00  0.00    +0.000 A 
ATOM      8  C   UNL     1     102.549 132.756 141.328  0.00  0.00    +0.000 A 
ATOM      9  C   UNL     1     102.539 131.286 141.542  0.00  0.00    +0.000 A 
ATOM     10  C   UNL     1     101.435 132.138 142.053  0.00  0.00    +0.000 A 
ATOM     11  C   UNL     1     101.484 133.571 141.822  0.00  0.00    +0.000 A 
ATOM     12  C   UNL     1     101.792 131.362 141.959  0.00  0.00    +0.000 A 
ATOM     13  C   UNL     1     102.920 133.425 141.021  0.00  0.00    +0.000 A 
ATOM     14  C   UNL     1     101.855 134.240 141.514  0.00  0.00    +0.000 A 
ATOM     15  C   UNL     1     102.573 134.167 141.114  0.00  0.00    +0.000 A 
ENDROOT
BRANCH   9  16
ATOM     16  C   UNL     1     102.889 130.545 141.448  0.00  0.00    +0.000 A 
ATOM     17  C   UNL     1     102.737 130.101 140.769  0.00  0.00    +0.000 A 
ATOM     18  C   UNL     1     103.389 130.247 142.032  0.00  0.00    +0.000 A 
ATOM     19  C   UNL     1     103.087 129.360 140.674  0.00  0.00    +0.000 A 
ATOM     20  C   UNL     1     103.587 129.061 141.258  0.00  0.00    +0.000 A 
ATOM     21  C   UNL     1     103.738 129.505 141.937  0.00  0.00    +0.000 A 
BRANCH  19  22
ATOM     22  O   UNL     1     102.935 128.916 139.995  0.00  0.00    +0.000 OA
ATOM     23  C   UNL     1     102.257 129.063 139.548  0.00  0.00    +0.000 C 
ENDBRANCH  19  22
BRANCH  20  24
ATOM     24  O   UNL     1     103.936 128.320 141.163  0.00  0.00    +0.000 OA
ATOM     25  C   UNL     1     104.531 128.075 141.680  0.00  0.00    +0.000 C 
ENDBRANCH  20  24
ENDBRANCH   9  16
TORSDOF 3
ENDMDL
MODEL 6
REMARK VINA RESULT:      -8.0     11.397     13.094
REMARK  Name = 131752378
REMARK  3 active torsions:
REMARK  status: ('A' for Active; 'I' for Inactive)
REMARK    1  A    between atoms: O_4  and  C_21
REMARK    2  A    between atoms: O_8  and  C_22
REMARK    3  A    between atoms: C_11  and  C_12
REMARK                            x       y       z     vdW  Elec       q    Type
REMARK                         _______ _______ _______ _____ _____    ______ ____
ROOT
ATOM      1  O   UNL     1     110.104 127.225 136.190  0.00  0.00    +0.000 OA
ATOM      2  O   UNL     1     110.534 129.633 134.642  0.00  0.00    +0.000 OA
ATOM      3  O   UNL     1     108.559 127.740 136.488  0.00  0.00    +0.000 OA
ATOM      4  O   UNL     1     108.988 130.116 134.959  0.00  0.00    +0.000 OA
ATOM      5  O   UNL     1     108.000 129.169 135.882  0.00  0.00    +0.000 OA
ATOM      6  O   UNL     1     111.612 128.684 134.773  0.00  0.00    +0.000 OA
ATOM      7  C   UNL     1     110.318 128.445 135.407  0.00  0.00    +0.000 A 
ATOM      8  C   UNL     1     109.824 127.971 135.868  0.00  0.00    +0.000 A 
ATOM      9  C   UNL     1     110.907 126.968 136.028  0.00  0.00    +0.000 A 
ATOM     10  C   UNL     1     111.125 128.204 135.235  0.00  0.00    +0.000 A 
ATOM     11  C   UNL     1     110.040 129.160 135.104  0.00  0.00    +0.000 A 
ATOM     12  C   UNL     1     111.421 127.461 135.548  0.00  0.00    +0.000 A 
ATOM     13  C   UNL     1     109.052 128.213 136.027  0.00  0.00    +0.000 A 
ATOM     14  C   UNL     1     109.267 129.401 135.263  0.00  0.00    +0.000 A 
ATOM     15  C   UNL     1     108.773 128.927 135.724  0.00  0.00    +0.000 A 
ENDROOT
BRANCH   9  16
ATOM     16  C   UNL     1     111.184 126.253 136.332  0.00  0.00    +0.000 A 
ATOM     17  C   UNL     1     111.451 126.212 137.112  0.00  0.00    +0.000 A 
ATOM     18  C   UNL     1     111.193 125.578 135.857  0.00  0.00    +0.000 A 
ATOM     19  C   UNL     1     111.728 125.496 137.416  0.00  0.00    +0.000 A 
ATOM     20  C   UNL     1     111.737 124.822 136.942  0.00  0.00    +0.000 A 
ATOM     21  C   UNL     1     111.470 124.863 136.162  0.00  0.00    +0.000 A 
BRANCH  19  22
ATOM     22  O   UNL     1     111.995 125.456 138.195  0.00  0.00    +0.000 OA
ATOM     23  C   UNL     1     111.994 126.132 138.669  0.00  0.00    +0.000 C 
ENDBRANCH  19  22
BRANCH  20  24
ATOM     24  O   UNL     1     112.014 124.107 137.246  0.00  0.00    +0.000 OA
ATOM     25  C   UNL     1     112.036 123.436 136.766  0.00  0.00    +0.000 C 
ENDBRANCH  20  24
ENDBRANCH   9  16
TORSDOF 3
ENDMDL
MODEL 7
REMARK VINA RESULT:      -8.0      7.725      8.770
REMARK  Name = 131752378
REMARK  3 active torsions:
REMARK  status: ('A' for Active; 'I' for Inactive)
REMARK    1  A    between atoms: O_4  and  C_21
REMARK    2  A    between atoms: O_8  and  C_22
REMARK    3  A    between atoms: C_11  and  C_12
REMARK                            x       y       z     vdW  Elec       q    Type
REMARK                         _______ _______ _______ _____ _____    ______ ____
ROOT
ATOM      1  O   UNL     1     103.286 130.296 141.986  0.00  0.00    +0.000 OA
ATOM      2  O   UNL     1     103.704 127.962 140.325  0.00  0.00    +0.000 OA
ATOM      3  O   UNL     1     104.367 129.668 143.071  0.00  0.00    +0.000 OA
ATOM      4  O   UNL     1     104.776 127.366 141.429  0.00  0.00    +0.000 OA
ATOM      5  O   UNL     1     105.108 128.219 142.802  0.00  0.00    +0.000 OA
ATOM      6  O   UNL     1     102.783 128.980 139.882  0.00  0.00    +0.000 OA
ATOM      7  C   UNL     1     103.500 129.113 141.147  0.00  0.00    +0.000 A 
ATOM      8  C   UNL     1     103.665 129.540 141.834  0.00  0.00    +0.000 A 
ATOM      9  C   UNL     1     102.726 130.611 141.415  0.00  0.00    +0.000 A 
ATOM     10  C   UNL     1     102.943 129.413 140.565  0.00  0.00    +0.000 A 
ATOM     11  C   UNL     1     103.870 128.388 141.012  0.00  0.00    +0.000 A 
ATOM     12  C   UNL     1     102.554 130.167 140.700  0.00  0.00    +0.000 A 
ATOM     13  C   UNL     1     104.201 129.242 142.385  0.00  0.00    +0.000 A 
ATOM     14  C   UNL     1     104.406 128.091 141.564  0.00  0.00    +0.000 A 
ATOM     15  C   UNL     1     104.571 128.517 142.250  0.00  0.00    +0.000 A 
ENDROOT
BRANCH   9  16
ATOM     16  C   UNL     1     102.357 131.336 141.552  0.00  0.00    +0.000 A 
ATOM     17  C   UNL     1     102.712 132.035 141.293  0.00  0.00    +0.000 A 
ATOM     18  C   UNL     1     101.634 131.363 141.948  0.00  0.00    +0.000 A 
ATOM     19  C   UNL     1     102.343 132.760 141.431  0.00  0.00    +0.000 A 
ATOM     20  C   UNL     1     101.620 132.787 141.827  0.00  0.00    +0.000 A 
ATOM     21  C   UNL     1     101.265 132.088 142.085  0.00  0.00    +0.000 A 
BRANCH  19  22
ATOM     22  O   UNL     1     102.697 133.459 141.172  0.00  0.00    +0.000 OA
ATOM     23  C   UNL     1     103.504 133.473 140.999  0.00  0.00    +0.000 C 
ENDBRANCH  19  22
BRANCH  20  24
ATOM     24  O   UNL     1     101.251 133.512 141.964  0.00  0.00    +0.000 OA
ATOM     25  C   UNL     1     100.710 133.589 142.583  0.00  0.00    +0.000 C 
ENDBRANCH  20  24
ENDBRANCH   9  16
TORSDOF 3
ENDMDL
MODEL 8
REMARK VINA RESULT:      -7.9      2.430      4.214
REMARK  Name = 131752378
REMARK  3 active torsions:
REMARK  status: ('A' for Active; 'I' for Inactive)
REMARK    1  A    between atoms: O_4  and  C_21
REMARK    2  A    between atoms: O_8  and  C_22
REMARK    3  A    between atoms: C_11  and  C_12
REMARK                            x       y       z     vdW  Elec       q    Type
REMARK                         _______ _______ _______ _____ _____    ______ ____
ROOT
ATOM      1  O   UNL     1     106.356 125.112 145.775  0.00  0.00    +0.000 OA
ATOM      2  O   UNL     1     106.035 127.365 143.987  0.00  0.00    +0.000 OA
ATOM      3  O   UNL     1     105.957 124.109 144.519  0.00  0.00    +0.000 OA
ATOM      4  O   UNL     1     105.642 126.337 142.757  0.00  0.00    +0.000 OA
ATOM      5  O   UNL     1     105.602 124.709 143.024  0.00  0.00    +0.000 OA
ATOM      6  O   UNL     1     106.414 127.608 145.357  0.00  0.00    +0.000 OA
ATOM      7  C   UNL     1     106.193 126.250 144.867  0.00  0.00    +0.000 A 
ATOM      8  C   UNL     1     106.173 125.436 145.000  0.00  0.00    +0.000 A 
ATOM      9  C   UNL     1     106.562 125.642 146.419  0.00  0.00    +0.000 A 
ATOM     10  C   UNL     1     106.397 126.796 145.500  0.00  0.00    +0.000 A 
ATOM     11  C   UNL     1     106.016 126.551 144.120  0.00  0.00    +0.000 A 
ATOM     12  C   UNL     1     106.582 126.489 146.280  0.00  0.00    +0.000 A 
ATOM     13  C   UNL     1     105.977 124.923 144.386  0.00  0.00    +0.000 A 
ATOM     14  C   UNL     1     105.819 126.037 143.506  0.00  0.00    +0.000 A 
ATOM     15  C   UNL     1     105.799 125.223 143.639  0.00  0.00    +0.000 A 
ENDROOT
BRANCH   9  16
ATOM     16  C   UNL     1     106.739 125.339 147.166  0.00  0.00    +0.000 A 
ATOM     17  C   UNL     1     106.130 125.111 147.673  0.00  0.00    +0.000 A 
ATOM     18  C   UNL     1     107.525 125.264 147.405  0.00  0.00    +0.000 A 
ATOM     19  C   UNL     1     106.307 124.809 148.420  0.00  0.00    +0.000 A 
ATOM     20  C   UNL     1     107.092 124.733 148.660  0.00  0.00    +0.000 A 
ATOM     21  C   UNL     1     107.701 124.961 148.152  0.00  0.00    +0.000 A 
BRANCH  19  22
ATOM     22  O   UNL     1     105.697 124.581 148.928  0.00  0.00    +0.000 OA
ATOM     23  C   UNL     1     104.915 124.774 148.747  0.00  0.00    +0.000 C 
ENDBRANCH  19  22
BRANCH  20  24
ATOM     24  O   UNL     1     107.269 124.430 149.407  0.00  0.00    +0.000 OA
ATOM     25  C   UNL     1     108.052 124.270 149.612  0.00  0.00    +0.000 C 
ENDBRANCH  20  24
ENDBRANCH   9  16
TORSDOF 3
ENDMDL
MODEL 9
REMARK VINA RESULT:      -7.9     11.659     13.043
REMARK  Name = 131752378
REMARK  3 active torsions:
REMARK  status: ('A' for Active; 'I' for Inactive)
REMARK    1  A    between atoms: O_4  and  C_21
REMARK    2  A    between atoms: O_8  and  C_22
REMARK    3  A    between atoms: C_11  and  C_12
REMARK                            x       y       z     vdW  Elec       q    Type
REMARK                         _______ _______ _______ _____ _____    ______ ____
ROOT
ATOM      1  O   UNL     1     111.005 126.292 136.722  0.00  0.00    +0.000 OA
ATOM      2  O   UNL     1     108.751 126.596 134.931  0.00  0.00    +0.000 OA
ATOM      3  O   UNL     1     110.379 127.511 137.652  0.00  0.00    +0.000 OA
ATOM      4  O   UNL     1     108.156 127.807 135.881  0.00  0.00    +0.000 OA
ATOM      5  O   UNL     1     108.970 128.264 137.241  0.00  0.00    +0.000 OA
ATOM      6  O   UNL     1     109.749 125.597 134.636  0.00  0.00    +0.000 OA
ATOM      7  C   UNL     1     109.863 126.449 135.817  0.00  0.00    +0.000 A 
ATOM      8  C   UNL     1     110.270 126.677 136.497  0.00  0.00    +0.000 A 
ATOM      9  C   UNL     1     111.320 125.661 136.231  0.00  0.00    +0.000 A 
ATOM     10  C   UNL     1     110.163 125.819 135.314  0.00  0.00    +0.000 A 
ATOM     11  C   UNL     1     109.158 126.825 135.611  0.00  0.00    +0.000 A 
ATOM     12  C   UNL     1     110.896 125.423 135.523  0.00  0.00    +0.000 A 
ATOM     13  C   UNL     1     109.972 127.282 136.972  0.00  0.00    +0.000 A 
ATOM     14  C   UNL     1     108.861 127.430 136.087  0.00  0.00    +0.000 A 
ATOM     15  C   UNL     1     109.268 127.659 136.767  0.00  0.00    +0.000 A 
ENDROOT
BRANCH   9  16
ATOM     16  C   UNL     1     112.025 125.286 136.439  0.00  0.00    +0.000 A 
ATOM     17  C   UNL     1     112.011 124.514 136.728  0.00  0.00    +0.000 A 
ATOM     18  C   UNL     1     112.743 125.683 136.356  0.00  0.00    +0.000 A 
ATOM     19  C   UNL     1     112.716 124.139 136.936  0.00  0.00    +0.000 A 
ATOM     20  C   UNL     1     113.434 124.535 136.854  0.00  0.00    +0.000 A 
ATOM     21  C   UNL     1     113.448 125.307 136.564  0.00  0.00    +0.000 A 
BRANCH  19  22
ATOM     22  O   UNL     1     112.702 123.366 137.226  0.00  0.00    +0.000 OA
ATOM     23  C   UNL     1     111.985 122.964 137.298  0.00  0.00    +0.000 C 
ENDBRANCH  19  22
BRANCH  20  24
ATOM     24  O   UNL     1     114.139 124.160 137.062  0.00  0.00    +0.000 OA
ATOM     25  C   UNL     1     114.822 124.605 137.186  0.00  0.00    +0.000 C 
ENDBRANCH  20  24
ENDBRANCH   9  16
TORSDOF 3
ENDMDL
MODEL 10
REMARK VINA RESULT:      -7.9     12.883     14.142
REMARK  Name = 131752378
REMARK  3 active torsions:
REMARK  status: ('A' for Active; 'I' for Inactive)
REMARK    1  A    between atoms: O_4  and  C_21
REMARK    2  A    between atoms: O_8  and  C_22
REMARK    3  A    between atoms: C_11  and  C_12
REMARK                            x       y       z     vdW  Elec       q    Type
REMARK                         _______ _______ _______ _____ _____    ______ ____
ROOT
ATOM      1  O   UNL     1     112.636 126.841 136.235  0.00  0.00    +0.000 OA
ATOM      2  O   UNL     1     113.424 124.178 137.051  0.00  0.00    +0.000 OA
ATOM      3  O   UNL     1     111.176 126.220 135.761  0.00  0.00    +0.000 OA
ATOM      4  O   UNL     1     111.959 123.593 136.568  0.00  0.00    +0.000 OA
ATOM      5  O   UNL     1     110.835 124.614 135.923  0.00  0.00    +0.000 OA
ATOM      6  O   UNL     1     114.355 125.266 137.224  0.00  0.00    +0.000 OA
ATOM      7  C   UNL     1     113.032 125.491 136.647  0.00  0.00    +0.000 A 
ATOM      8  C   UNL     1     112.470 126.002 136.325  0.00  0.00    +0.000 A 
ATOM      9  C   UNL     1     113.397 127.151 136.485  0.00  0.00    +0.000 A 
ATOM     10  C   UNL     1     113.799 125.784 136.903  0.00  0.00    +0.000 A 
ATOM     11  C   UNL     1     112.862 124.688 136.729  0.00  0.00    +0.000 A 
ATOM     12  C   UNL     1     113.982 126.620 136.821  0.00  0.00    +0.000 A 
ATOM     13  C   UNL     1     111.738 125.709 136.083  0.00  0.00    +0.000 A 
ATOM     14  C   UNL     1     112.130 124.397 136.487  0.00  0.00    +0.000 A 
ATOM     15  C   UNL     1     111.568 124.907 136.164  0.00  0.00    +0.000 A 
ENDROOT
BRANCH   9  16
ATOM     16  C   UNL     1     113.565 127.955 136.402  0.00  0.00    +0.000 A 
ATOM     17  C   UNL     1     113.292 128.493 136.965  0.00  0.00    +0.000 A 
ATOM     18  C   UNL     1     114.006 128.220 135.757  0.00  0.00    +0.000 A 
ATOM     19  C   UNL     1     113.460 129.296 136.883  0.00  0.00    +0.000 A 
ATOM     20  C   UNL     1     113.901 129.562 136.239  0.00  0.00    +0.000 A 
ATOM     21  C   UNL     1     114.173 129.024 135.676  0.00  0.00    +0.000 A 
BRANCH  19  22
ATOM     22  O   UNL     1     113.187 129.834 137.446  0.00  0.00    +0.000 OA
ATOM     23  C   UNL     1     112.600 129.610 137.981  0.00  0.00    +0.000 C 
ENDBRANCH  19  22
BRANCH  20  24
ATOM     24  O   UNL     1     114.068 130.366 136.156  0.00  0.00    +0.000 OA
ATOM     25  C   UNL     1     114.642 130.614 135.618  0.00  0.00    +0.000 C 
ENDBRANCH  20  24
ENDBRANCH   9  16
TORSDOF 3
ENDMDL
