MODEL 1
REMARK VINA RESULT:      -8.8      0.000      0.000
REMARK  Name = 44259824
REMARK  7 active torsions:
REMARK  status: ('A' for Active; 'I' for Inactive)
REMARK    1  A    between atoms: O_2  and  C_18
REMARK    2  A    between atoms: O_2  and  C_20
REMARK    3  A    between atoms: O_8  and  C_22
REMARK    4  A    between atoms: O_10  and  C_28
REMARK    5  A    between atoms: O_12  and  C_33
REMARK    6  A    between atoms: C_17  and  C_19
REMARK    7  A    between atoms: C_27  and  C_29
REMARK                            x       y       z     vdW  Elec       q    Type
REMARK                         _______ _______ _______ _____ _____    ______ ____
ROOT
ATOM      1  O   UNL     1     103.384 130.261 142.521  0.00  0.00    +0.000 OA
ATOM      2  O   UNL     1     104.504 127.904 141.282  0.00  0.00    +0.000 OA
ATOM      3  O   UNL     1     103.568 128.745 140.573  0.00  0.00    +0.000 OA
ATOM      4  C   UNL     1     104.900 128.237 142.647  0.00  0.00    +0.000 A 
ATOM      5  C   UNL     1     104.448 128.404 141.935  0.00  0.00    +0.000 A 
ATOM      6  C   UNL     1     104.836 128.764 143.322  0.00  0.00    +0.000 A 
ATOM      7  C   UNL     1     103.938 129.095 141.908  0.00  0.00    +0.000 A 
ATOM      8  C   UNL     1     103.877 129.601 142.558  0.00  0.00    +0.000 A 
ATOM      9  C   UNL     1     104.321 129.451 143.277  0.00  0.00    +0.000 A 
ATOM     10  C   UNL     1     103.507 129.250 141.222  0.00  0.00    +0.000 A 
ATOM     11  C   UNL     1     102.953 130.416 141.835  0.00  0.00    +0.000 A 
ATOM     12  C   UNL     1     103.014 129.911 141.186  0.00  0.00    +0.000 A 
ENDROOT
BRANCH  11  14
ATOM     13  O   UNL     1     100.982 133.059 141.687  0.00  0.00    +0.000 OA
ATOM     14  C   UNL     1     102.460 131.077 141.798  0.00  0.00    +0.000 A 
ATOM     15  C   UNL     1     102.758 131.800 141.535  0.00  0.00    +0.000 A 
ATOM     16  C   UNL     1     101.670 131.015 142.023  0.00  0.00    +0.000 A 
ATOM     17  C   UNL     1     102.266 132.461 141.497  0.00  0.00    +0.000 A 
ATOM     18  C   UNL     1     101.177 131.675 141.987  0.00  0.00    +0.000 A 
ATOM     19  C   UNL     1     101.475 132.399 141.723  0.00  0.00    +0.000 A 
BRANCH  17  20
ATOM     20  O   UNL     1     102.564 133.183 141.234  0.00  0.00    +0.000 OA
ATOM     21  C   UNL     1     103.310 133.435 141.482  0.00  0.00    +0.000 C 
ENDBRANCH  17  20
ENDBRANCH  11  14
BRANCH   6  22
ATOM     22  O   UNL     1     105.266 128.612 144.010  0.00  0.00    +0.000 OA
ATOM     23  C   UNL     1     105.028 128.943 144.727  0.00  0.00    +0.000 C 
ENDBRANCH   6  22
BRANCH  12  24
ATOM     24  O   UNL     1     102.583 130.065 140.500  0.00  0.00    +0.000 OA
ATOM     25  C   UNL     1     102.372 129.446 139.997  0.00  0.00    +0.000 C 
ENDBRANCH  12  24
BRANCH   4  26
ATOM     26  O   UNL     1     105.393 127.576 142.681  0.00  0.00    +0.000 OA
BRANCH  26  35
ATOM     27  O   UNL     1     106.476 128.356 142.171  0.00  0.00    +0.000 OA
ATOM     28  O   UNL     1     107.964 126.383 142.316  0.00  0.00    +0.000 OA
ATOM     29  O   UNL     1     108.551 127.820 141.757  0.00  0.00    +0.000 OA
ATOM     30  O   UNL     1     106.385 126.261 142.778  0.00  0.00    +0.000 OA
ATOM     31  C   UNL     1     107.468 127.041 142.267  0.00  0.00    +0.000 C 
ATOM     32  C   UNL     1     107.761 127.760 141.988  0.00  0.00    +0.000 C 
ATOM     33  C   UNL     1     106.678 126.980 142.498  0.00  0.00    +0.000 C 
ATOM     34  C   UNL     1     107.265 128.417 141.940  0.00  0.00    +0.000 C 
ATOM     35  C   UNL     1     106.182 127.637 142.450  0.00  0.00    +0.000 C 
BRANCH  34  37
ATOM     36  O   UNL     1     107.331 129.414 140.918  0.00  0.00    +0.000 OA
ATOM     37  C   UNL     1     107.559 129.135 141.660  0.00  0.00    +0.000 C 
ENDBRANCH  34  37
ENDBRANCH  26  35
ENDBRANCH   4  26
TORSDOF 7
ENDMDL
MODEL 2
REMARK VINA RESULT:      -8.8      7.431     10.632
REMARK  Name = 44259824
REMARK  7 active torsions:
REMARK  status: ('A' for Active; 'I' for Inactive)
REMARK    1  A    between atoms: O_2  and  C_18
REMARK    2  A    between atoms: O_2  and  C_20
REMARK    3  A    between atoms: O_8  and  C_22
REMARK    4  A    between atoms: O_10  and  C_28
REMARK    5  A    between atoms: O_12  and  C_33
REMARK    6  A    between atoms: C_17  and  C_19
REMARK    7  A    between atoms: C_27  and  C_29
REMARK                            x       y       z     vdW  Elec       q    Type
REMARK                         _______ _______ _______ _____ _____    ______ ____
ROOT
ATOM      1  O   UNL     1     112.845 127.128 136.644  0.00  0.00    +0.000 OA
ATOM      2  O   UNL     1     111.068 128.985 137.963  0.00  0.00    +0.000 OA
ATOM      3  O   UNL     1     111.602 127.841 138.662  0.00  0.00    +0.000 OA
ATOM      4  C   UNL     1     111.421 129.221 136.566  0.00  0.00    +0.000 A 
ATOM      5  C   UNL     1     111.478 128.754 137.286  0.00  0.00    +0.000 A 
ATOM      6  C   UNL     1     111.853 128.973 135.866  0.00  0.00    +0.000 A 
ATOM      7  C   UNL     1     111.966 128.047 137.296  0.00  0.00    +0.000 A 
ATOM      8  C   UNL     1     112.380 127.809 136.623  0.00  0.00    +0.000 A 
ATOM      9  C   UNL     1     112.335 128.262 135.895  0.00  0.00    +0.000 A 
ATOM     10  C   UNL     1     112.016 127.603 137.989  0.00  0.00    +0.000 A 
ATOM     11  C   UNL     1     112.895 126.684 137.338  0.00  0.00    +0.000 A 
ATOM     12  C   UNL     1     112.481 126.922 138.010  0.00  0.00    +0.000 A 
ENDROOT
BRANCH  11  14
ATOM     13  O   UNL     1     114.754 123.959 137.421  0.00  0.00    +0.000 OA
ATOM     14  C   UNL     1     113.360 126.003 137.359  0.00  0.00    +0.000 A 
ATOM     15  C   UNL     1     113.067 125.294 137.056  0.00  0.00    +0.000 A 
ATOM     16  C   UNL     1     114.118 126.031 137.682  0.00  0.00    +0.000 A 
ATOM     17  C   UNL     1     113.531 124.612 137.076  0.00  0.00    +0.000 A 
ATOM     18  C   UNL     1     114.583 125.349 137.703  0.00  0.00    +0.000 A 
ATOM     19  C   UNL     1     114.289 124.640 137.400  0.00  0.00    +0.000 A 
BRANCH  17  20
ATOM     20  O   UNL     1     113.237 123.904 136.774  0.00  0.00    +0.000 OA
ATOM     21  C   UNL     1     112.423 123.797 136.692  0.00  0.00    +0.000 C 
ENDBRANCH  17  20
ENDBRANCH  11  14
BRANCH   6  22
ATOM     22  O   UNL     1     111.804 129.414 135.171  0.00  0.00    +0.000 OA
ATOM     23  C   UNL     1     112.413 129.376 134.615  0.00  0.00    +0.000 C 
ENDBRANCH   6  22
BRANCH  12  24
ATOM     24  O   UNL     1     112.531 126.479 138.704  0.00  0.00    +0.000 OA
ATOM     25  C   UNL     1     111.920 126.507 139.257  0.00  0.00    +0.000 C 
ENDBRANCH  12  24
BRANCH   4  26
ATOM     26  O   UNL     1     110.956 129.902 136.548  0.00  0.00    +0.000 OA
BRANCH  26  35
ATOM     27  O   UNL     1     109.825 129.124 136.150  0.00  0.00    +0.000 OA
ATOM     28  O   UNL     1     108.377 131.120 136.364  0.00  0.00    +0.000 OA
ATOM     29  O   UNL     1     107.730 129.678 135.894  0.00  0.00    +0.000 OA
ATOM     30  O   UNL     1     109.990 131.232 136.691  0.00  0.00    +0.000 OA
ATOM     31  C   UNL     1     108.860 130.455 136.293  0.00  0.00    +0.000 C 
ATOM     32  C   UNL     1     108.536 129.733 136.058  0.00  0.00    +0.000 C 
ATOM     33  C   UNL     1     109.667 130.511 136.456  0.00  0.00    +0.000 C 
ATOM     34  C   UNL     1     109.019 129.068 135.986  0.00  0.00    +0.000 C 
ATOM     35  C   UNL     1     110.150 129.845 136.385  0.00  0.00    +0.000 C 
BRANCH  34  37
ATOM     36  O   UNL     1     108.543 127.760 136.311  0.00  0.00    +0.000 OA
ATOM     37  C   UNL     1     108.695 128.347 135.752  0.00  0.00    +0.000 C 
ENDBRANCH  34  37
ENDBRANCH  26  35
ENDBRANCH   4  26
TORSDOF 7
ENDMDL
MODEL 3
REMARK VINA RESULT:      -8.8      3.618      6.955
REMARK  Name = 44259824
REMARK  7 active torsions:
REMARK  status: ('A' for Active; 'I' for Inactive)
REMARK    1  A    between atoms: O_2  and  C_18
REMARK    2  A    between atoms: O_2  and  C_20
REMARK    3  A    between atoms: O_8  and  C_22
REMARK    4  A    between atoms: O_10  and  C_28
REMARK    5  A    between atoms: O_12  and  C_33
REMARK    6  A    between atoms: C_17  and  C_19
REMARK    7  A    between atoms: C_27  and  C_29
REMARK                            x       y       z     vdW  Elec       q    Type
REMARK                         _______ _______ _______ _____ _____    ______ ____
ROOT
ATOM      1  O   UNL     1     106.545 125.238 146.080  0.00  0.00    +0.000 OA
ATOM      2  O   UNL     1     105.530 127.607 144.773  0.00  0.00    +0.000 OA
ATOM      3  O   UNL     1     105.975 127.646 146.146  0.00  0.00    +0.000 OA
ATOM      4  C   UNL     1     105.588 126.357 144.019  0.00  0.00    +0.000 A 
ATOM      5  C   UNL     1     105.718 126.804 144.743  0.00  0.00    +0.000 A 
ATOM      6  C   UNL     1     105.786 125.522 143.997  0.00  0.00    +0.000 A 
ATOM      7  C   UNL     1     106.043 126.409 145.433  0.00  0.00    +0.000 A 
ATOM      8  C   UNL     1     106.233 125.607 145.411  0.00  0.00    +0.000 A 
ATOM      9  C   UNL     1     106.111 125.144 144.697  0.00  0.00    +0.000 A 
ATOM     10  C   UNL     1     106.165 126.843 146.124  0.00  0.00    +0.000 A 
ATOM     11  C   UNL     1     106.667 125.673 146.771  0.00  0.00    +0.000 A 
ATOM     12  C   UNL     1     106.477 126.475 146.793  0.00  0.00    +0.000 A 
ENDROOT
BRANCH  11  14
ATOM     13  O   UNL     1     107.914 124.199 149.447  0.00  0.00    +0.000 OA
ATOM     14  C   UNL     1     106.979 125.304 147.440  0.00  0.00    +0.000 A 
ATOM     15  C   UNL     1     106.479 124.914 147.967  0.00  0.00    +0.000 A 
ATOM     16  C   UNL     1     107.791 125.325 147.581  0.00  0.00    +0.000 A 
ATOM     17  C   UNL     1     106.790 124.546 148.636  0.00  0.00    +0.000 A 
ATOM     18  C   UNL     1     108.103 124.957 148.250  0.00  0.00    +0.000 A 
ATOM     19  C   UNL     1     107.602 124.567 148.778  0.00  0.00    +0.000 A 
BRANCH  17  20
ATOM     20  O   UNL     1     106.289 124.156 149.163  0.00  0.00    +0.000 OA
ATOM     21  C   UNL     1     105.581 124.510 149.396  0.00  0.00    +0.000 C 
ENDBRANCH  17  20
ENDBRANCH  11  14
BRANCH   6  22
ATOM     22  O   UNL     1     105.666 125.084 143.308  0.00  0.00    +0.000 OA
ATOM     23  C   UNL     1     105.642 124.261 143.341  0.00  0.00    +0.000 C 
ENDBRANCH   6  22
BRANCH  12  24
ATOM     24  O   UNL     1     106.599 126.910 147.483  0.00  0.00    +0.000 OA
ATOM     25  C   UNL     1     106.178 127.607 147.611  0.00  0.00    +0.000 C 
ENDBRANCH  12  24
BRANCH   4  26
ATOM     26  O   UNL     1     105.276 126.728 143.352  0.00  0.00    +0.000 OA
BRANCH  26  35
ATOM     27  O   UNL     1     106.583 127.084 142.898  0.00  0.00    +0.000 OA
ATOM     28  O   UNL     1     105.593 128.733 141.340  0.00  0.00    +0.000 OA
ATOM     29  O   UNL     1     107.230 128.539 141.406  0.00  0.00    +0.000 OA
ATOM     30  O   UNL     1     104.616 127.827 142.313  0.00  0.00    +0.000 OA
ATOM     31  C   UNL     1     105.923 128.183 141.859  0.00  0.00    +0.000 C 
ATOM     32  C   UNL     1     106.742 128.086 141.892  0.00  0.00    +0.000 C 
ATOM     33  C   UNL     1     105.434 127.730 142.346  0.00  0.00    +0.000 C 
ATOM     34  C   UNL     1     107.072 127.537 142.412  0.00  0.00    +0.000 C 
ATOM     35  C   UNL     1     105.764 127.181 142.866  0.00  0.00    +0.000 C 
BRANCH  34  37
ATOM     36  O   UNL     1     108.226 126.704 142.285  0.00  0.00    +0.000 OA
ATOM     37  C   UNL     1     107.890 127.440 142.444  0.00  0.00    +0.000 C 
ENDBRANCH  34  37
ENDBRANCH  26  35
ENDBRANCH   4  26
TORSDOF 7
ENDMDL
MODEL 4
REMARK VINA RESULT:      -8.7      8.560     10.033
REMARK  Name = 44259824
REMARK  7 active torsions:
REMARK  status: ('A' for Active; 'I' for Inactive)
REMARK    1  A    between atoms: O_2  and  C_18
REMARK    2  A    between atoms: O_2  and  C_20
REMARK    3  A    between atoms: O_8  and  C_22
REMARK    4  A    between atoms: O_10  and  C_28
REMARK    5  A    between atoms: O_12  and  C_33
REMARK    6  A    between atoms: C_17  and  C_19
REMARK    7  A    between atoms: C_27  and  C_29
REMARK                            x       y       z     vdW  Elec       q    Type
REMARK                         _______ _______ _______ _____ _____    ______ ____
ROOT
ATOM      1  O   UNL     1     113.057 128.813 139.397  0.00  0.00    +0.000 OA
ATOM      2  O   UNL     1     112.737 125.944 139.492  0.00  0.00    +0.000 OA
ATOM      3  O   UNL     1     113.614 126.626 140.413  0.00  0.00    +0.000 OA
ATOM      4  C   UNL     1     111.993 126.702 138.490  0.00  0.00    +0.000 A 
ATOM      5  C   UNL     1     112.546 126.668 139.148  0.00  0.00    +0.000 A 
ATOM      6  C   UNL     1     111.800 127.462 138.138  0.00  0.00    +0.000 A 
ATOM      7  C   UNL     1     112.898 127.394 139.443  0.00  0.00    +0.000 A 
ATOM      8  C   UNL     1     112.712 128.123 139.104  0.00  0.00    +0.000 A 
ATOM      9  C   UNL     1     112.162 128.177 138.447  0.00  0.00    +0.000 A 
ATOM     10  C   UNL     1     113.428 127.355 140.074  0.00  0.00    +0.000 A 
ATOM     11  C   UNL     1     113.587 128.774 140.028  0.00  0.00    +0.000 A 
ATOM     12  C   UNL     1     113.773 128.045 140.367  0.00  0.00    +0.000 A 
ENDROOT
BRANCH  11  14
ATOM     13  O   UNL     1     114.965 131.535 141.198  0.00  0.00    +0.000 OA
ATOM     14  C   UNL     1     113.932 129.464 140.320  0.00  0.00    +0.000 A 
ATOM     15  C   UNL     1     113.538 129.912 140.891  0.00  0.00    +0.000 A 
ATOM     16  C   UNL     1     114.669 129.707 140.043  0.00  0.00    +0.000 A 
ATOM     17  C   UNL     1     113.882 130.602 141.184  0.00  0.00    +0.000 A 
ATOM     18  C   UNL     1     115.013 130.397 140.335  0.00  0.00    +0.000 A 
ATOM     19  C   UNL     1     114.620 130.845 140.906  0.00  0.00    +0.000 A 
BRANCH  17  20
ATOM     20  O   UNL     1     113.489 131.049 141.754  0.00  0.00    +0.000 OA
ATOM     21  C   UNL     1     112.794 130.763 142.095  0.00  0.00    +0.000 C 
ENDBRANCH  17  20
ENDBRANCH  11  14
BRANCH   6  22
ATOM     22  O   UNL     1     111.270 127.504 137.507  0.00  0.00    +0.000 OA
ATOM     23  C   UNL     1     110.870 128.208 137.350  0.00  0.00    +0.000 C 
ENDBRANCH   6  22
BRANCH  12  24
ATOM     24  O   UNL     1     114.302 128.005 140.997  0.00  0.00    +0.000 OA
ATOM     25  C   UNL     1     114.674 127.292 141.181  0.00  0.00    +0.000 C 
ENDBRANCH  12  24
BRANCH   4  26
ATOM     26  O   UNL     1     111.650 126.010 138.200  0.00  0.00    +0.000 OA
BRANCH  26  35
ATOM     27  O   UNL     1     112.722 125.826 137.273  0.00  0.00    +0.000 OA
ATOM     28  O   UNL     1     112.047 123.465 136.962  0.00  0.00    +0.000 OA
ATOM     29  O   UNL     1     113.343 124.068 136.140  0.00  0.00    +0.000 OA
ATOM     30  O   UNL     1     111.199 124.436 137.992  0.00  0.00    +0.000 OA
ATOM     31  C   UNL     1     112.272 124.252 137.065  0.00  0.00    +0.000 C 
ATOM     32  C   UNL     1     112.920 124.554 136.654  0.00  0.00    +0.000 C 
ATOM     33  C   UNL     1     111.848 124.738 137.581  0.00  0.00    +0.000 C 
ATOM     34  C   UNL     1     113.145 125.341 136.758  0.00  0.00    +0.000 C 
ATOM     35  C   UNL     1     112.073 125.525 137.685  0.00  0.00    +0.000 C 
BRANCH  34  37
ATOM     36  O   UNL     1     114.506 125.774 136.740  0.00  0.00    +0.000 OA
ATOM     37  C   UNL     1     113.793 125.641 136.347  0.00  0.00    +0.000 C 
ENDBRANCH  34  37
ENDBRANCH  26  35
ENDBRANCH   4  26
TORSDOF 7
ENDMDL
MODEL 5
REMARK VINA RESULT:      -8.6      6.541     10.212
REMARK  Name = 44259824
REMARK  7 active torsions:
REMARK  status: ('A' for Active; 'I' for Inactive)
REMARK    1  A    between atoms: O_2  and  C_18
REMARK    2  A    between atoms: O_2  and  C_20
REMARK    3  A    between atoms: O_8  and  C_22
REMARK    4  A    between atoms: O_10  and  C_28
REMARK    5  A    between atoms: O_12  and  C_33
REMARK    6  A    between atoms: C_17  and  C_19
REMARK    7  A    between atoms: C_27  and  C_29
REMARK                            x       y       z     vdW  Elec       q    Type
REMARK                         _______ _______ _______ _____ _____    ______ ____
ROOT
ATOM      1  O   UNL     1     111.626 127.202 136.636  0.00  0.00    +0.000 OA
ATOM      2  O   UNL     1     111.044 129.826 135.577  0.00  0.00    +0.000 OA
ATOM      3  O   UNL     1     112.395 129.438 135.904  0.00  0.00    +0.000 OA
ATOM      4  C   UNL     1     109.943 128.889 135.780  0.00  0.00    +0.000 A 
ATOM      5  C   UNL     1     110.780 129.083 135.819  0.00  0.00    +0.000 A 
ATOM      6  C   UNL     1     109.677 128.112 136.034  0.00  0.00    +0.000 A 
ATOM      7  C   UNL     1     111.338 128.500 136.112  0.00  0.00    +0.000 A 
ATOM      8  C   UNL     1     111.081 127.754 136.356  0.00  0.00    +0.000 A 
ATOM      9  C   UNL     1     110.250 127.541 136.324  0.00  0.00    +0.000 A 
ATOM     10  C   UNL     1     112.139 128.692 136.148  0.00  0.00    +0.000 A 
ATOM     11  C   UNL     1     112.428 127.395 136.671  0.00  0.00    +0.000 A 
ATOM     12  C   UNL     1     112.684 128.140 136.427  0.00  0.00    +0.000 A 
ENDROOT
BRANCH  11  14
ATOM     13  O   UNL     1     114.609 125.185 137.790  0.00  0.00    +0.000 OA
ATOM     14  C   UNL     1     112.973 126.842 136.951  0.00  0.00    +0.000 A 
ATOM     15  C   UNL     1     113.111 126.772 137.761  0.00  0.00    +0.000 A 
ATOM     16  C   UNL     1     113.380 126.360 136.420  0.00  0.00    +0.000 A 
ATOM     17  C   UNL     1     113.656 126.220 138.041  0.00  0.00    +0.000 A 
ATOM     18  C   UNL     1     113.925 125.807 136.700  0.00  0.00    +0.000 A 
ATOM     19  C   UNL     1     114.063 125.737 137.510  0.00  0.00    +0.000 A 
BRANCH  17  20
ATOM     20  O   UNL     1     113.793 126.150 138.851  0.00  0.00    +0.000 OA
ATOM     21  C   UNL     1     113.267 126.490 139.389  0.00  0.00    +0.000 C 
ENDBRANCH  17  20
ENDBRANCH  11  14
BRANCH   6  22
ATOM     22  O   UNL     1     108.876 127.916 136.000  0.00  0.00    +0.000 OA
ATOM     23  C   UNL     1     108.647 127.126 135.946  0.00  0.00    +0.000 C 
ENDBRANCH   6  22
BRANCH  12  24
ATOM     24  O   UNL     1     113.485 128.333 136.462  0.00  0.00    +0.000 OA
ATOM     25  C   UNL     1     113.722 129.122 136.412  0.00  0.00    +0.000 C 
ENDBRANCH  12  24
BRANCH   4  26
ATOM     26  O   UNL     1     109.400 129.443 135.500  0.00  0.00    +0.000 OA
BRANCH  26  35
ATOM     27  O   UNL     1     109.248 129.970 136.820  0.00  0.00    +0.000 OA
ATOM     28  O   UNL     1     107.863 131.815 135.923  0.00  0.00    +0.000 OA
ATOM     29  O   UNL     1     108.173 131.727 137.541  0.00  0.00    +0.000 OA
ATOM     30  O   UNL     1     108.477 130.673 134.902  0.00  0.00    +0.000 OA
ATOM     31  C   UNL     1     108.325 131.200 136.222  0.00  0.00    +0.000 C 
ATOM     32  C   UNL     1     108.480 131.156 137.031  0.00  0.00    +0.000 C 
ATOM     33  C   UNL     1     108.632 130.629 135.711  0.00  0.00    +0.000 C 
ATOM     34  C   UNL     1     108.942 130.541 137.330  0.00  0.00    +0.000 C 
ATOM     35  C   UNL     1     109.094 130.014 136.010  0.00  0.00    +0.000 C 
BRANCH  34  37
ATOM     36  O   UNL     1     108.755 129.899 138.593  0.00  0.00    +0.000 OA
ATOM     37  C   UNL     1     109.097 130.497 138.138  0.00  0.00    +0.000 C 
ENDBRANCH  34  37
ENDBRANCH  26  35
ENDBRANCH   4  26
TORSDOF 7
ENDMDL
MODEL 6
REMARK VINA RESULT:      -8.5      6.733      9.886
REMARK  Name = 44259824
REMARK  7 active torsions:
REMARK  status: ('A' for Active; 'I' for Inactive)
REMARK    1  A    between atoms: O_2  and  C_18
REMARK    2  A    between atoms: O_2  and  C_20
REMARK    3  A    between atoms: O_8  and  C_22
REMARK    4  A    between atoms: O_10  and  C_28
REMARK    5  A    between atoms: O_12  and  C_33
REMARK    6  A    between atoms: C_17  and  C_19
REMARK    7  A    between atoms: C_27  and  C_29
REMARK                            x       y       z     vdW  Elec       q    Type
REMARK                         _______ _______ _______ _____ _____    ______ ____
ROOT
ATOM      1  O   UNL     1     110.949 126.521 137.194  0.00  0.00    +0.000 OA
ATOM      2  O   UNL     1     109.015 127.944 135.587  0.00  0.00    +0.000 OA
ATOM      3  O   UNL     1     109.707 126.788 135.069  0.00  0.00    +0.000 OA
ATOM      4  C   UNL     1     109.287 128.415 136.942  0.00  0.00    +0.000 A 
ATOM      5  C   UNL     1     109.425 127.862 136.297  0.00  0.00    +0.000 A 
ATOM      6  C   UNL     1     109.718 128.321 137.679  0.00  0.00    +0.000 A 
ATOM      7  C   UNL     1     109.992 127.226 136.399  0.00  0.00    +0.000 A 
ATOM      8  C   UNL     1     110.406 127.137 137.107  0.00  0.00    +0.000 A 
ATOM      9  C   UNL     1     110.282 127.678 137.762  0.00  0.00    +0.000 A 
ATOM     10  C   UNL     1     110.121 126.699 135.777  0.00  0.00    +0.000 A 
ATOM     11  C   UNL     1     111.078 125.995 136.572  0.00  0.00    +0.000 A 
ATOM     12  C   UNL     1     110.664 126.083 135.864  0.00  0.00    +0.000 A 
ENDROOT
BRANCH  11  14
ATOM     13  O   UNL     1     113.249 123.533 136.916  0.00  0.00    +0.000 OA
ATOM     14  C   UNL     1     111.620 125.379 136.658  0.00  0.00    +0.000 A 
ATOM     15  C   UNL     1     112.413 125.498 136.464  0.00  0.00    +0.000 A 
ATOM     16  C   UNL     1     111.370 124.645 136.938  0.00  0.00    +0.000 A 
ATOM     17  C   UNL     1     112.957 124.883 136.550  0.00  0.00    +0.000 A 
ATOM     18  C   UNL     1     111.913 124.030 137.024  0.00  0.00    +0.000 A 
ATOM     19  C   UNL     1     112.706 124.149 136.830  0.00  0.00    +0.000 A 
BRANCH  17  20
ATOM     20  O   UNL     1     113.749 125.003 136.356  0.00  0.00    +0.000 OA
ATOM     21  C   UNL     1     114.129 125.698 136.585  0.00  0.00    +0.000 C 
ENDBRANCH  17  20
ENDBRANCH  11  14
BRANCH   6  22
ATOM     22  O   UNL     1     109.592 128.847 138.303  0.00  0.00    +0.000 OA
ATOM     23  C   UNL     1     109.812 128.636 139.070  0.00  0.00    +0.000 C 
ENDBRANCH   6  22
BRANCH  12  24
ATOM     24  O   UNL     1     110.792 125.557 135.242  0.00  0.00    +0.000 OA
ATOM     25  C   UNL     1     110.258 125.523 134.613  0.00  0.00    +0.000 C 
ENDBRANCH  12  24
BRANCH   4  26
ATOM     26  O   UNL     1     108.743 129.029 136.853  0.00  0.00    +0.000 OA
BRANCH  26  35
ATOM     27  O   UNL     1     109.748 129.945 136.413  0.00  0.00    +0.000 OA
ATOM     28  O   UNL     1     108.016 131.296 135.272  0.00  0.00    +0.000 OA
ATOM     29  O   UNL     1     109.597 131.761 135.212  0.00  0.00    +0.000 OA
ATOM     30  O   UNL     1     107.589 129.930 136.092  0.00  0.00    +0.000 OA
ATOM     31  C   UNL     1     108.593 130.846 135.652  0.00  0.00    +0.000 C 
ATOM     32  C   UNL     1     109.384 131.078 135.623  0.00  0.00    +0.000 C 
ATOM     33  C   UNL     1     108.380 130.162 136.063  0.00  0.00    +0.000 C 
ATOM     34  C   UNL     1     109.962 130.628 136.003  0.00  0.00    +0.000 C 
ATOM     35  C   UNL     1     108.957 129.712 136.443  0.00  0.00    +0.000 C 
BRANCH  34  37
ATOM     36  O   UNL     1     111.133 131.118 136.658  0.00  0.00    +0.000 OA
ATOM     37  C   UNL     1     110.752 130.861 135.973  0.00  0.00    +0.000 C 
ENDBRANCH  34  37
ENDBRANCH  26  35
ENDBRANCH   4  26
TORSDOF 7
ENDMDL
MODEL 7
REMARK VINA RESULT:      -8.5      7.681     10.066
REMARK  Name = 44259824
REMARK  7 active torsions:
REMARK  status: ('A' for Active; 'I' for Inactive)
REMARK    1  A    between atoms: O_2  and  C_18
REMARK    2  A    between atoms: O_2  and  C_20
REMARK    3  A    between atoms: O_8  and  C_22
REMARK    4  A    between atoms: O_10  and  C_28
REMARK    5  A    between atoms: O_12  and  C_33
REMARK    6  A    between atoms: C_17  and  C_19
REMARK    7  A    between atoms: C_27  and  C_29
REMARK                            x       y       z     vdW  Elec       q    Type
REMARK                         _______ _______ _______ _____ _____    ______ ____
ROOT
ATOM      1  O   UNL     1     113.034 126.277 138.888  0.00  0.00    +0.000 OA
ATOM      2  O   UNL     1     112.727 129.133 139.195  0.00  0.00    +0.000 OA
ATOM      3  O   UNL     1     112.060 128.423 138.131  0.00  0.00    +0.000 OA
ATOM      4  C   UNL     1     113.574 128.410 140.140  0.00  0.00    +0.000 A 
ATOM      5  C   UNL     1     113.056 128.422 139.454  0.00  0.00    +0.000 A 
ATOM      6  C   UNL     1     113.912 127.665 140.402  0.00  0.00    +0.000 A 
ATOM      7  C   UNL     1     112.883 127.690 139.041  0.00  0.00    +0.000 A 
ATOM      8  C   UNL     1     113.207 126.974 139.293  0.00  0.00    +0.000 A 
ATOM      9  C   UNL     1     113.727 126.942 139.976  0.00  0.00    +0.000 A 
ATOM     10  C   UNL     1     112.384 127.707 138.383  0.00  0.00    +0.000 A 
ATOM     11  C   UNL     1     112.535 126.295 138.230  0.00  0.00    +0.000 A 
ATOM     12  C   UNL     1     112.211 127.010 137.978  0.00  0.00    +0.000 A 
ENDROOT
BRANCH  11  14
ATOM     13  O   UNL     1     111.842 123.505 136.609  0.00  0.00    +0.000 OA
ATOM     14  C   UNL     1     112.362 125.597 137.825  0.00  0.00    +0.000 A 
ATOM     15  C   UNL     1     112.912 125.277 137.300  0.00  0.00    +0.000 A 
ATOM     16  C   UNL     1     111.639 125.220 137.945  0.00  0.00    +0.000 A 
ATOM     17  C   UNL     1     112.739 124.580 136.895  0.00  0.00    +0.000 A 
ATOM     18  C   UNL     1     111.465 124.523 137.539  0.00  0.00    +0.000 A 
ATOM     19  C   UNL     1     112.015 124.203 137.015  0.00  0.00    +0.000 A 
BRANCH  17  20
ATOM     20  O   UNL     1     113.290 124.260 136.371  0.00  0.00    +0.000 OA
ATOM     21  C   UNL     1     114.039 124.599 136.304  0.00  0.00    +0.000 C 
ENDBRANCH  17  20
ENDBRANCH  11  14
BRANCH   6  22
ATOM     22  O   UNL     1     114.410 127.644 141.059  0.00  0.00    +0.000 OA
ATOM     23  C   UNL     1     114.933 127.014 141.160  0.00  0.00    +0.000 C 
ENDBRANCH   6  22
BRANCH  12  24
ATOM     24  O   UNL     1     111.713 127.029 137.321  0.00  0.00    +0.000 OA
ATOM     25  C   UNL     1     111.654 127.715 136.867  0.00  0.00    +0.000 C 
ENDBRANCH  12  24
BRANCH   4  26
ATOM     26  O   UNL     1     113.746 129.109 140.543  0.00  0.00    +0.000 OA
BRANCH  26  35
ATOM     27  O   UNL     1     112.634 128.909 141.418  0.00  0.00    +0.000 OA
ATOM     28  O   UNL     1     112.805 131.260 142.173  0.00  0.00    +0.000 OA
ATOM     29  O   UNL     1     111.636 130.277 142.795  0.00  0.00    +0.000 OA
ATOM     30  O   UNL     1     113.860 130.676 141.047  0.00  0.00    +0.000 OA
ATOM     31  C   UNL     1     112.748 130.476 141.921  0.00  0.00    +0.000 C 
ATOM     32  C   UNL     1     112.163 129.984 142.232  0.00  0.00    +0.000 C 
ATOM     33  C   UNL     1     113.276 130.184 141.358  0.00  0.00    +0.000 C 
ATOM     34  C   UNL     1     112.106 129.201 141.980  0.00  0.00    +0.000 C 
ATOM     35  C   UNL     1     113.219 129.401 141.106  0.00  0.00    +0.000 C 
BRANCH  34  37
ATOM     36  O   UNL     1     111.725 128.111 142.822  0.00  0.00    +0.000 OA
ATOM     37  C   UNL     1     111.522 128.709 142.291  0.00  0.00    +0.000 C 
ENDBRANCH  34  37
ENDBRANCH  26  35
ENDBRANCH   4  26
TORSDOF 7
ENDMDL
MODEL 8
REMARK VINA RESULT:      -8.4      6.649      9.548
REMARK  Name = 44259824
REMARK  7 active torsions:
REMARK  status: ('A' for Active; 'I' for Inactive)
REMARK    1  A    between atoms: O_2  and  C_18
REMARK    2  A    between atoms: O_2  and  C_20
REMARK    3  A    between atoms: O_8  and  C_22
REMARK    4  A    between atoms: O_10  and  C_28
REMARK    5  A    between atoms: O_12  and  C_33
REMARK    6  A    between atoms: C_17  and  C_19
REMARK    7  A    between atoms: C_27  and  C_29
REMARK                            x       y       z     vdW  Elec       q    Type
REMARK                         _______ _______ _______ _____ _____    ______ ____
ROOT
ATOM      1  O   UNL     1     110.908 127.196 136.313  0.00  0.00    +0.000 OA
ATOM      2  O   UNL     1     109.064 128.705 137.946  0.00  0.00    +0.000 OA
ATOM      3  O   UNL     1     109.515 127.394 138.348  0.00  0.00    +0.000 OA
ATOM      4  C   UNL     1     109.539 129.291 136.695  0.00  0.00    +0.000 A 
ATOM      5  C   UNL     1     109.526 128.647 137.265  0.00  0.00    +0.000 A 
ATOM      6  C   UNL     1     110.023 129.221 135.989  0.00  0.00    +0.000 A 
ATOM      7  C   UNL     1     109.996 127.943 137.120  0.00  0.00    +0.000 A 
ATOM      8  C   UNL     1     110.461 127.877 136.441  0.00  0.00    +0.000 A 
ATOM      9  C   UNL     1     110.487 128.510 135.861  0.00  0.00    +0.000 A 
ATOM     10  C   UNL     1     109.980 127.328 137.670  0.00  0.00    +0.000 A 
ATOM     11  C   UNL     1     110.892 126.581 136.863  0.00  0.00    +0.000 A 
ATOM     12  C   UNL     1     110.427 126.647 137.541  0.00  0.00    +0.000 A 
ENDROOT
BRANCH  11  14
ATOM     13  O   UNL     1     112.683 123.858 136.349  0.00  0.00    +0.000 OA
ATOM     14  C   UNL     1     111.339 125.900 136.734  0.00  0.00    +0.000 A 
ATOM     15  C   UNL     1     112.124 125.868 136.988  0.00  0.00    +0.000 A 
ATOM     16  C   UNL     1     111.003 125.252 136.352  0.00  0.00    +0.000 A 
ATOM     17  C   UNL     1     112.572 125.187 136.859  0.00  0.00    +0.000 A 
ATOM     18  C   UNL     1     111.451 124.571 136.224  0.00  0.00    +0.000 A 
ATOM     19  C   UNL     1     112.235 124.538 136.477  0.00  0.00    +0.000 A 
BRANCH  17  20
ATOM     20  O   UNL     1     113.356 125.156 137.113  0.00  0.00    +0.000 OA
ATOM     21  C   UNL     1     113.848 125.811 137.013  0.00  0.00    +0.000 C 
ENDBRANCH  17  20
ENDBRANCH  11  14
BRANCH   6  22
ATOM     22  O   UNL     1     110.042 129.834 135.437  0.00  0.00    +0.000 OA
ATOM     23  C   UNL     1     110.230 129.675 134.650  0.00  0.00    +0.000 C 
ENDBRANCH   6  22
BRANCH  12  24
ATOM     24  O   UNL     1     110.410 126.033 138.091  0.00  0.00    +0.000 OA
ATOM     25  C   UNL     1     110.113 126.166 138.850  0.00  0.00    +0.000 C 
ENDBRANCH  12  24
BRANCH   4  26
ATOM     26  O   UNL     1     109.091 129.971 136.827  0.00  0.00    +0.000 OA
BRANCH  26  35
ATOM     27  O   UNL     1     110.176 130.558 137.548  0.00  0.00    +0.000 OA
ATOM     28  O   UNL     1     108.712 132.437 138.221  0.00  0.00    +0.000 OA
ATOM     29  O   UNL     1     110.285 132.397 138.717  0.00  0.00    +0.000 OA
ATOM     30  O   UNL     1     108.115 131.223 137.276  0.00  0.00    +0.000 OA
ATOM     31  C   UNL     1     109.200 131.810 137.997  0.00  0.00    +0.000 C 
ATOM     32  C   UNL     1     109.987 131.790 138.245  0.00  0.00    +0.000 C 
ATOM     33  C   UNL     1     108.901 131.203 137.524  0.00  0.00    +0.000 C 
ATOM     34  C   UNL     1     110.474 131.164 138.020  0.00  0.00    +0.000 C 
ATOM     35  C   UNL     1     109.389 130.577 137.299  0.00  0.00    +0.000 C 
BRANCH  34  37
ATOM     36  O   UNL     1     111.869 131.261 137.723  0.00  0.00    +0.000 OA
ATOM     37  C   UNL     1     111.260 131.144 138.268  0.00  0.00    +0.000 C 
ENDBRANCH  34  37
ENDBRANCH  26  35
ENDBRANCH   4  26
TORSDOF 7
ENDMDL
MODEL 9
REMARK VINA RESULT:      -8.4      6.572     10.028
REMARK  Name = 44259824
REMARK  7 active torsions:
REMARK  status: ('A' for Active; 'I' for Inactive)
REMARK    1  A    between atoms: O_2  and  C_18
REMARK    2  A    between atoms: O_2  and  C_20
REMARK    3  A    between atoms: O_8  and  C_22
REMARK    4  A    between atoms: O_10  and  C_28
REMARK    5  A    between atoms: O_12  and  C_33
REMARK    6  A    between atoms: C_17  and  C_19
REMARK    7  A    between atoms: C_27  and  C_29
REMARK                            x       y       z     vdW  Elec       q    Type
REMARK                         _______ _______ _______ _____ _____    ______ ____
ROOT
ATOM      1  O   UNL     1     111.973 127.464 137.286  0.00  0.00    +0.000 OA
ATOM      2  O   UNL     1     111.291 129.973 136.027  0.00  0.00    +0.000 OA
ATOM      3  O   UNL     1     111.114 128.720 135.334  0.00  0.00    +0.000 OA
ATOM      4  C   UNL     1     111.822 129.990 137.387  0.00  0.00    +0.000 A 
ATOM      5  C   UNL     1     111.578 129.563 136.682  0.00  0.00    +0.000 A 
ATOM      6  C   UNL     1     112.120 129.553 138.064  0.00  0.00    +0.000 A 
ATOM      7  C   UNL     1     111.636 128.706 136.664  0.00  0.00    +0.000 A 
ATOM      8  C   UNL     1     111.922 128.287 137.315  0.00  0.00    +0.000 A 
ATOM      9  C   UNL     1     112.171 128.697 138.028  0.00  0.00    +0.000 A 
ATOM     10  C   UNL     1     111.400 128.301 135.985  0.00  0.00    +0.000 A 
ATOM     11  C   UNL     1     111.737 127.060 136.607  0.00  0.00    +0.000 A 
ATOM     12  C   UNL     1     111.451 127.478 135.956  0.00  0.00    +0.000 A 
ENDROOT
BRANCH  11  14
ATOM     13  O   UNL     1     111.941 123.768 136.492  0.00  0.00    +0.000 OA
ATOM     14  C   UNL     1     111.788 126.237 136.578  0.00  0.00    +0.000 A 
ATOM     15  C   UNL     1     112.506 125.874 136.395  0.00  0.00    +0.000 A 
ATOM     16  C   UNL     1     111.122 125.777 136.732  0.00  0.00    +0.000 A 
ATOM     17  C   UNL     1     112.558 125.051 136.367  0.00  0.00    +0.000 A 
ATOM     18  C   UNL     1     111.172 124.954 136.703  0.00  0.00    +0.000 A 
ATOM     19  C   UNL     1     111.891 124.591 136.520  0.00  0.00    +0.000 A 
BRANCH  17  20
ATOM     20  O   UNL     1     113.276 124.689 136.184  0.00  0.00    +0.000 OA
ATOM     21  C   UNL     1     113.977 124.977 136.510  0.00  0.00    +0.000 C 
ENDBRANCH  17  20
ENDBRANCH  11  14
BRANCH   6  22
ATOM     22  O   UNL     1     112.357 129.955 138.746  0.00  0.00    +0.000 OA
ATOM     23  C   UNL     1     112.907 129.612 139.256  0.00  0.00    +0.000 C 
ENDBRANCH   6  22
BRANCH  12  24
ATOM     24  O   UNL     1     111.215 127.075 135.277  0.00  0.00    +0.000 OA
ATOM     25  C   UNL     1     110.848 127.482 134.660  0.00  0.00    +0.000 C 
ENDBRANCH  12  24
BRANCH   4  26
ATOM     26  O   UNL     1     111.770 130.813 137.413  0.00  0.00    +0.000 OA
BRANCH  26  35
ATOM     27  O   UNL     1     110.453 130.720 137.959  0.00  0.00    +0.000 OA
ATOM     28  O   UNL     1     110.182 133.169 137.721  0.00  0.00    +0.000 OA
ATOM     29  O   UNL     1     108.956 132.260 138.345  0.00  0.00    +0.000 OA
ATOM     30  O   UNL     1     111.590 132.445 137.254  0.00  0.00    +0.000 OA
ATOM     31  C   UNL     1     110.273 132.353 137.800  0.00  0.00    +0.000 C 
ATOM     32  C   UNL     1     109.659 131.898 138.112  0.00  0.00    +0.000 C 
ATOM     33  C   UNL     1     110.977 131.991 137.567  0.00  0.00    +0.000 C 
ATOM     34  C   UNL     1     109.750 131.082 138.192  0.00  0.00    +0.000 C 
ATOM     35  C   UNL     1     111.067 131.174 137.646  0.00  0.00    +0.000 C 
BRANCH  34  37
ATOM     36  O   UNL     1     108.705 130.123 138.014  0.00  0.00    +0.000 OA
ATOM     37  C   UNL     1     109.136 130.628 138.504  0.00  0.00    +0.000 C 
ENDBRANCH  34  37
ENDBRANCH  26  35
ENDBRANCH   4  26
TORSDOF 7
ENDMDL
MODEL 10
REMARK VINA RESULT:      -8.3      6.941      8.653
REMARK  Name = 44259824
REMARK  7 active torsions:
REMARK  status: ('A' for Active; 'I' for Inactive)
REMARK    1  A    between atoms: O_2  and  C_18
REMARK    2  A    between atoms: O_2  and  C_20
REMARK    3  A    between atoms: O_8  and  C_22
REMARK    4  A    between atoms: O_10  and  C_28
REMARK    5  A    between atoms: O_12  and  C_33
REMARK    6  A    between atoms: C_17  and  C_19
REMARK    7  A    between atoms: C_27  and  C_29
REMARK                            x       y       z     vdW  Elec       q    Type
REMARK                         _______ _______ _______ _____ _____    ______ ____
ROOT
ATOM      1  O   UNL     1     110.212 129.745 137.007  0.00  0.00    +0.000 OA
ATOM      2  O   UNL     1     112.118 127.746 136.163  0.00  0.00    +0.000 OA
ATOM      3  O   UNL     1     112.554 129.040 136.631  0.00  0.00    +0.000 OA
ATOM      4  C   UNL     1     110.694 127.427 136.109  0.00  0.00    +0.000 A 
ATOM      5  C   UNL     1     111.335 127.973 136.285  0.00  0.00    +0.000 A 
ATOM      6  C   UNL     1     109.882 127.673 136.240  0.00  0.00    +0.000 A 
ATOM      7  C   UNL     1     111.154 128.756 136.589  0.00  0.00    +0.000 A 
ATOM      8  C   UNL     1     110.373 128.991 136.715  0.00  0.00    +0.000 A 
ATOM      9  C   UNL     1     109.720 128.460 136.545  0.00  0.00    +0.000 A 
ATOM     10  C   UNL     1     111.773 129.275 136.756  0.00  0.00    +0.000 A 
ATOM     11  C   UNL     1     110.831 130.264 137.174  0.00  0.00    +0.000 A 
ATOM     12  C   UNL     1     111.611 130.029 137.049  0.00  0.00    +0.000 A 
ENDROOT
BRANCH  11  14
ATOM     13  O   UNL     1     110.184 133.281 138.346  0.00  0.00    +0.000 OA
ATOM     14  C   UNL     1     110.669 131.018 137.467  0.00  0.00    +0.000 A 
ATOM     15  C   UNL     1     110.569 131.134 138.278  0.00  0.00    +0.000 A 
ATOM     16  C   UNL     1     110.608 131.657 136.950  0.00  0.00    +0.000 A 
ATOM     17  C   UNL     1     110.407 131.888 138.571  0.00  0.00    +0.000 A 
ATOM     18  C   UNL     1     110.446 132.411 137.242  0.00  0.00    +0.000 A 
ATOM     19  C   UNL     1     110.346 132.527 138.053  0.00  0.00    +0.000 A 
BRANCH  17  20
ATOM     20  O   UNL     1     110.307 132.002 139.382  0.00  0.00    +0.000 OA
ATOM     21  C   UNL     1     110.048 131.379 139.857  0.00  0.00    +0.000 C 
ENDBRANCH  17  20
ENDBRANCH  11  14
BRANCH   6  22
ATOM     22  O   UNL     1     109.260 127.156 136.074  0.00  0.00    +0.000 OA
ATOM     23  C   UNL     1     108.517 127.455 135.874  0.00  0.00    +0.000 C 
ENDBRANCH   6  22
BRANCH  12  24
ATOM     24  O   UNL     1     112.231 130.547 137.216  0.00  0.00    +0.000 OA
ATOM     25  C   UNL     1     113.001 130.261 137.288  0.00  0.00    +0.000 C 
ENDBRANCH  12  24
BRANCH   4  26
ATOM     26  O   UNL     1     110.859 126.674 135.817  0.00  0.00    +0.000 OA
BRANCH  26  35
ATOM     27  O   UNL     1     110.986 126.181 137.152  0.00  0.00    +0.000 OA
ATOM     28  O   UNL     1     111.638 123.962 136.272  0.00  0.00    +0.000 OA
ATOM     29  O   UNL     1     111.548 124.210 137.900  0.00  0.00    +0.000 OA
ATOM     30  O   UNL     1     111.294 125.194 135.230  0.00  0.00    +0.000 OA
ATOM     31  C   UNL     1     111.421 124.702 136.565  0.00  0.00    +0.000 C 
ATOM     32  C   UNL     1     111.376 124.826 137.379  0.00  0.00    +0.000 C 
ATOM     33  C   UNL     1     111.248 125.318 136.044  0.00  0.00    +0.000 C 
ATOM     34  C   UNL     1     111.159 125.566 137.673  0.00  0.00    +0.000 C 
ATOM     35  C   UNL     1     111.031 126.058 136.337  0.00  0.00    +0.000 C 
BRANCH  34  37
ATOM     36  O   UNL     1     110.378 125.771 138.852  0.00  0.00    +0.000 OA
ATOM     37  C   UNL     1     111.114 125.689 138.487  0.00  0.00    +0.000 C 
ENDBRANCH  34  37
ENDBRANCH  26  35
ENDBRANCH   4  26
TORSDOF 7
ENDMDL
