MODEL 1
REMARK VINA RESULT:     -10.2      0.000      0.000
REMARK  Name = 74977613
REMARK  7 active torsions:
REMARK  status: ('A' for Active; 'I' for Inactive)
REMARK    1  A    between atoms: O_2  and  C_22
REMARK    2  A    between atoms: O_2  and  C_23
REMARK    3  A    between atoms: O_6  and  C_21
REMARK    4  A    between atoms: O_6  and  C_28
REMARK    5  A    between atoms: O_15  and  C_40
REMARK    6  A    between atoms: C_17  and  C_22
REMARK    7  A    between atoms: C_29  and  C_32
REMARK                            x       y       z     vdW  Elec       q    Type
REMARK                         _______ _______ _______ _____ _____    ______ ____
ROOT
ATOM      1  O   UNL     1     113.602 126.818 136.810  0.00  0.00    +0.000 OA
ATOM      2  O   UNL     1     111.626 125.562 136.006  0.00  0.00    +0.000 OA
ATOM      3  O   UNL     1     112.244 124.307 136.362  0.00  0.00    +0.000 OA
ATOM      4  O   UNL     1     114.910 124.325 137.553  0.00  0.00    +0.000 OA
ATOM      5  C   UNL     1     112.297 126.804 136.227  0.00  0.00    +0.000 A 
ATOM      6  C   UNL     1     112.956 127.223 136.495  0.00  0.00    +0.000 A 
ATOM      7  C   UNL     1     112.285 125.981 136.274  0.00  0.00    +0.000 A 
ATOM      8  C   UNL     1     112.932 125.576 136.589  0.00  0.00    +0.000 A 
ATOM      9  C   UNL     1     113.589 125.994 136.856  0.00  0.00    +0.000 A 
ATOM     10  C   UNL     1     112.907 124.718 136.632  0.00  0.00    +0.000 A 
ATOM     11  C   UNL     1     114.268 125.584 137.186  0.00  0.00    +0.000 A 
ATOM     12  C   UNL     1     113.576 124.290 136.959  0.00  0.00    +0.000 A 
ATOM     13  C   UNL     1     114.263 124.727 137.238  0.00  0.00    +0.000 A 
ENDROOT
BRANCH   6  15
ATOM     14  O   UNL     1     113.002 130.517 136.304  0.00  0.00    +0.000 OA
ATOM     15  C   UNL     1     112.967 128.047 136.448  0.00  0.00    +0.000 A 
ATOM     16  C   UNL     1     112.879 128.501 137.131  0.00  0.00    +0.000 A 
ATOM     17  C   UNL     1     113.068 128.416 135.716  0.00  0.00    +0.000 A 
ATOM     18  C   UNL     1     112.890 129.324 137.082  0.00  0.00    +0.000 A 
ATOM     19  C   UNL     1     113.079 129.239 135.669  0.00  0.00    +0.000 A 
ATOM     20  C   UNL     1     112.991 129.694 136.352  0.00  0.00    +0.000 A 
BRANCH  18  21
ATOM     21  O   UNL     1     112.802 129.779 137.765  0.00  0.00    +0.000 OA
ATOM     22  C   UNL     1     113.007 129.463 138.500  0.00  0.00    +0.000 C 
ENDBRANCH  18  21
ENDBRANCH   6  15
BRANCH   5  23
ATOM     23  O   UNL     1     111.651 127.209 135.912  0.00  0.00    +0.000 OA
BRANCH  23  32
ATOM     24  O   UNL     1     110.811 127.127 137.066  0.00  0.00    +0.000 OA
ATOM     25  O   UNL     1     108.657 126.830 137.247  0.00  0.00    +0.000 OA
ATOM     26  O   UNL     1     108.838 126.804 135.608  0.00  0.00    +0.000 OA
ATOM     27  O   UNL     1     110.335 126.993 134.940  0.00  0.00    +0.000 OA
ATOM     28  C   UNL     1     110.064 127.033 137.399  0.00  0.00    +0.000 C 
ATOM     29  C   UNL     1     109.406 126.925 136.913  0.00  0.00    +0.000 C 
ATOM     30  C   UNL     1     109.496 126.912 136.094  0.00  0.00    +0.000 C 
ATOM     31  C   UNL     1     110.245 127.006 135.760  0.00  0.00    +0.000 C 
ATOM     32  C   UNL     1     110.903 127.114 136.246  0.00  0.00    +0.000 C 
BRANCH  28  33
ATOM     33  C   UNL     1     109.972 127.046 138.220  0.00  0.00    +0.000 C 
BRANCH  33  34
ATOM     34  O   UNL     1     110.570 126.754 138.706  0.00  0.00    +0.000 OA
BRANCH  34  39
ATOM     35  O   UNL     1     110.036 127.455 139.831  0.00  0.00    +0.000 OA
ATOM     36  O   UNL     1     111.510 125.849 139.717  0.00  0.00    +0.000 OA
ATOM     37  O   UNL     1     111.445 126.098 141.347  0.00  0.00    +0.000 OA
ATOM     38  O   UNL     1     110.441 127.252 141.966  0.00  0.00    +0.000 OA
ATOM     39  C   UNL     1     110.537 126.879 139.521  0.00  0.00    +0.000 C 
ATOM     40  C   UNL     1     111.007 126.427 140.027  0.00  0.00    +0.000 C 
ATOM     41  C   UNL     1     110.975 126.551 140.841  0.00  0.00    +0.000 C 
ATOM     42  C   UNL     1     110.473 127.127 141.151  0.00  0.00    +0.000 C 
ATOM     43  C   UNL     1     110.004 127.580 140.645  0.00  0.00    +0.000 C 
ENDBRANCH  34  39
ENDBRANCH  33  34
ENDBRANCH  28  33
ENDBRANCH  23  32
ENDBRANCH   5  23
TORSDOF 7
ENDMDL
MODEL 2
REMARK VINA RESULT:      -9.8      1.594      4.271
REMARK  Name = 74977613
REMARK  7 active torsions:
REMARK  status: ('A' for Active; 'I' for Inactive)
REMARK    1  A    between atoms: O_2  and  C_22
REMARK    2  A    between atoms: O_2  and  C_23
REMARK    3  A    between atoms: O_6  and  C_21
REMARK    4  A    between atoms: O_6  and  C_28
REMARK    5  A    between atoms: O_15  and  C_40
REMARK    6  A    between atoms: C_17  and  C_22
REMARK    7  A    between atoms: C_29  and  C_32
REMARK                            x       y       z     vdW  Elec       q    Type
REMARK                         _______ _______ _______ _____ _____    ______ ____
ROOT
ATOM      1  O   UNL     1     113.035 127.121 136.255  0.00  0.00    +0.000 OA
ATOM      2  O   UNL     1     112.737 128.046 138.532  0.00  0.00    +0.000 OA
ATOM      3  O   UNL     1     113.328 129.299 138.132  0.00  0.00    +0.000 OA
ATOM      4  O   UNL     1     114.238 129.623 135.375  0.00  0.00    +0.000 OA
ATOM      5  C   UNL     1     112.591 126.968 137.606  0.00  0.00    +0.000 A 
ATOM      6  C   UNL     1     112.690 126.660 136.846  0.00  0.00    +0.000 A 
ATOM      7  C   UNL     1     112.836 127.738 137.773  0.00  0.00    +0.000 A 
ATOM      8  C   UNL     1     113.180 128.199 137.182  0.00  0.00    +0.000 A 
ATOM      9  C   UNL     1     113.280 127.891 136.424  0.00  0.00    +0.000 A 
ATOM     10  C   UNL     1     113.432 128.999 137.370  0.00  0.00    +0.000 A 
ATOM     11  C   UNL     1     113.637 128.362 135.800  0.00  0.00    +0.000 A 
ATOM     12  C   UNL     1     113.791 129.485 136.759  0.00  0.00    +0.000 A 
ATOM     13  C   UNL     1     113.894 129.164 135.968  0.00  0.00    +0.000 A 
ENDROOT
BRANCH   6  15
ATOM     14  O   UNL     1     111.711 123.580 136.178  0.00  0.00    +0.000 OA
ATOM     15  C   UNL     1     112.445 125.890 136.679  0.00  0.00    +0.000 A 
ATOM     16  C   UNL     1     111.754 125.762 136.246  0.00  0.00    +0.000 A 
ATOM     17  C   UNL     1     112.891 125.249 136.945  0.00  0.00    +0.000 A 
ATOM     18  C   UNL     1     111.510 124.991 136.079  0.00  0.00    +0.000 A 
ATOM     19  C   UNL     1     112.646 124.479 136.778  0.00  0.00    +0.000 A 
ATOM     20  C   UNL     1     111.955 124.350 136.345  0.00  0.00    +0.000 A 
BRANCH  18  21
ATOM     21  O   UNL     1     110.820 124.863 135.646  0.00  0.00    +0.000 OA
ATOM     22  C   UNL     1     110.489 125.477 135.204  0.00  0.00    +0.000 C 
ENDBRANCH  18  21
ENDBRANCH   6  15
BRANCH   5  23
ATOM     23  O   UNL     1     112.246 126.507 138.196  0.00  0.00    +0.000 OA
BRANCH  23  32
ATOM     24  O   UNL     1     110.992 127.187 138.118  0.00  0.00    +0.000 OA
ATOM     25  O   UNL     1     109.425 127.472 139.610  0.00  0.00    +0.000 OA
ATOM     26  O   UNL     1     110.522 126.594 140.474  0.00  0.00    +0.000 OA
ATOM     27  O   UNL     1     111.933 126.112 139.768  0.00  0.00    +0.000 OA
ATOM     28  C   UNL     1     110.287 127.428 138.470  0.00  0.00    +0.000 C 
ATOM     29  C   UNL     1     110.131 127.231 139.256  0.00  0.00    +0.000 C 
ATOM     30  C   UNL     1     110.679 126.792 139.689  0.00  0.00    +0.000 C 
ATOM     31  C   UNL     1     111.385 126.550 139.335  0.00  0.00    +0.000 C 
ATOM     32  C   UNL     1     111.541 126.748 138.549  0.00  0.00    +0.000 C 
BRANCH  28  33
ATOM     33  C   UNL     1     109.738 127.868 138.039  0.00  0.00    +0.000 C 
BRANCH  33  34
ATOM     34  O   UNL     1     109.907 128.646 137.827  0.00  0.00    +0.000 OA
BRANCH  34  39
ATOM     35  O   UNL     1     109.022 128.549 136.709  0.00  0.00    +0.000 OA
ATOM     36  O   UNL     1     110.043 130.271 137.577  0.00  0.00    +0.000 OA
ATOM     37  O   UNL     1     109.226 130.987 136.334  0.00  0.00    +0.000 OA
ATOM     38  O   UNL     1     108.273 130.077 135.342  0.00  0.00    +0.000 OA
ATOM     39  C   UNL     1     109.498 129.003 137.205  0.00  0.00    +0.000 C 
ATOM     40  C   UNL     1     109.566 129.816 137.080  0.00  0.00    +0.000 C 
ATOM     41  C   UNL     1     109.158 130.174 136.459  0.00  0.00    +0.000 C 
ATOM     42  C   UNL     1     108.682 129.719 135.964  0.00  0.00    +0.000 C 
ATOM     43  C   UNL     1     108.613 128.906 136.088  0.00  0.00    +0.000 C 
ENDBRANCH  34  39
ENDBRANCH  33  34
ENDBRANCH  28  33
ENDBRANCH  23  32
ENDBRANCH   5  23
TORSDOF 7
ENDMDL
MODEL 3
REMARK VINA RESULT:      -9.7      1.733      3.576
REMARK  Name = 74977613
REMARK  7 active torsions:
REMARK  status: ('A' for Active; 'I' for Inactive)
REMARK    1  A    between atoms: O_2  and  C_22
REMARK    2  A    between atoms: O_2  and  C_23
REMARK    3  A    between atoms: O_6  and  C_21
REMARK    4  A    between atoms: O_6  and  C_28
REMARK    5  A    between atoms: O_15  and  C_40
REMARK    6  A    between atoms: C_17  and  C_22
REMARK    7  A    between atoms: C_29  and  C_32
REMARK                            x       y       z     vdW  Elec       q    Type
REMARK                         _______ _______ _______ _____ _____    ______ ____
ROOT
ATOM      1  O   UNL     1     113.889 126.382 138.369  0.00  0.00    +0.000 OA
ATOM      2  O   UNL     1     111.861 124.973 138.191  0.00  0.00    +0.000 OA
ATOM      3  O   UNL     1     112.418 124.264 137.064  0.00  0.00    +0.000 OA
ATOM      4  O   UNL     1     115.076 124.994 136.100  0.00  0.00    +0.000 OA
ATOM      5  C   UNL     1     112.587 126.020 138.837  0.00  0.00    +0.000 A 
ATOM      6  C   UNL     1     113.264 126.490 138.896  0.00  0.00    +0.000 A 
ATOM      7  C   UNL     1     112.537 125.442 138.250  0.00  0.00    +0.000 A 
ATOM      8  C   UNL     1     113.163 125.334 137.723  0.00  0.00    +0.000 A 
ATOM      9  C   UNL     1     113.838 125.803 137.782  0.00  0.00    +0.000 A 
ATOM     10  C   UNL     1     113.098 124.729 137.116  0.00  0.00    +0.000 A 
ATOM     11  C   UNL     1     114.495 125.700 137.239  0.00  0.00    +0.000 A 
ATOM     12  C   UNL     1     113.745 124.611 136.564  0.00  0.00    +0.000 A 
ATOM     13  C   UNL     1     114.450 125.100 136.626  0.00  0.00    +0.000 A 
ENDROOT
BRANCH   6  15
ATOM     14  O   UNL     1     113.464 128.799 141.245  0.00  0.00    +0.000 OA
ATOM     15  C   UNL     1     113.314 127.068 139.483  0.00  0.00    +0.000 A 
ATOM     16  C   UNL     1     113.209 127.863 139.290  0.00  0.00    +0.000 A 
ATOM     17  C   UNL     1     113.468 126.849 140.264  0.00  0.00    +0.000 A 
ATOM     18  C   UNL     1     113.260 128.440 139.877  0.00  0.00    +0.000 A 
ATOM     19  C   UNL     1     113.518 127.427 140.851  0.00  0.00    +0.000 A 
ATOM     20  C   UNL     1     113.414 128.222 140.658  0.00  0.00    +0.000 A 
BRANCH  18  21
ATOM     21  O   UNL     1     113.155 129.235 139.684  0.00  0.00    +0.000 OA
ATOM     22  C   UNL     1     113.521 129.548 139.013  0.00  0.00    +0.000 C 
ENDBRANCH  18  21
ENDBRANCH   6  15
BRANCH   5  23
ATOM     23  O   UNL     1     111.962 126.128 139.364  0.00  0.00    +0.000 OA
BRANCH  23  32
ATOM     24  O   UNL     1     111.114 126.764 138.406  0.00  0.00    +0.000 OA
ATOM     25  O   UNL     1     108.939 126.798 138.223  0.00  0.00    +0.000 OA
ATOM     26  O   UNL     1     109.124 125.862 139.569  0.00  0.00    +0.000 OA
ATOM     27  O   UNL     1     110.635 125.527 140.139  0.00  0.00    +0.000 OA
ATOM     28  C   UNL     1     110.359 126.931 138.120  0.00  0.00    +0.000 C 
ATOM     29  C   UNL     1     109.695 126.631 138.508  0.00  0.00    +0.000 C 
ATOM     30  C   UNL     1     109.787 126.163 139.181  0.00  0.00    +0.000 C 
ATOM     31  C   UNL     1     110.544 125.995 139.466  0.00  0.00    +0.000 C 
ATOM     32  C   UNL     1     111.207 126.296 139.079  0.00  0.00    +0.000 C 
BRANCH  28  33
ATOM     33  C   UNL     1     110.265 127.400 137.447  0.00  0.00    +0.000 C 
BRANCH  33  34
ATOM     34  O   UNL     1     110.572 128.165 137.431  0.00  0.00    +0.000 OA
BRANCH  34  39
ATOM     35  O   UNL     1     110.629 128.200 136.003  0.00  0.00    +0.000 OA
ATOM     36  O   UNL     1     110.470 129.811 137.468  0.00  0.00    +0.000 OA
ATOM     37  O   UNL     1     110.477 130.670 136.059  0.00  0.00    +0.000 OA
ATOM     38  O   UNL     1     110.585 129.882 134.613  0.00  0.00    +0.000 OA
ATOM     39  C   UNL     1     110.575 128.594 136.726  0.00  0.00    +0.000 C 
ATOM     40  C   UNL     1     110.524 129.417 136.744  0.00  0.00    +0.000 C 
ATOM     41  C   UNL     1     110.528 129.847 136.040  0.00  0.00    +0.000 C 
ATOM     42  C   UNL     1     110.582 129.452 135.318  0.00  0.00    +0.000 C 
ATOM     43  C   UNL     1     110.632 128.629 135.299  0.00  0.00    +0.000 C 
ENDBRANCH  34  39
ENDBRANCH  33  34
ENDBRANCH  28  33
ENDBRANCH  23  32
ENDBRANCH   5  23
TORSDOF 7
ENDMDL
MODEL 4
REMARK VINA RESULT:      -9.7      1.656      4.030
REMARK  Name = 74977613
REMARK  7 active torsions:
REMARK  status: ('A' for Active; 'I' for Inactive)
REMARK    1  A    between atoms: O_2  and  C_22
REMARK    2  A    between atoms: O_2  and  C_23
REMARK    3  A    between atoms: O_6  and  C_21
REMARK    4  A    between atoms: O_6  and  C_28
REMARK    5  A    between atoms: O_15  and  C_40
REMARK    6  A    between atoms: C_17  and  C_22
REMARK    7  A    between atoms: C_29  and  C_32
REMARK                            x       y       z     vdW  Elec       q    Type
REMARK                         _______ _______ _______ _____ _____    ______ ____
ROOT
ATOM      1  O   UNL     1     113.546 126.178 138.935  0.00  0.00    +0.000 OA
ATOM      2  O   UNL     1     111.657 126.201 137.334  0.00  0.00    +0.000 OA
ATOM      3  O   UNL     1     112.419 125.431 136.381  0.00  0.00    +0.000 OA
ATOM      4  O   UNL     1     115.142 124.622 137.060  0.00  0.00    +0.000 OA
ATOM      5  C   UNL     1     112.214 126.571 138.597  0.00  0.00    +0.000 A 
ATOM      6  C   UNL     1     112.844 126.564 139.131  0.00  0.00    +0.000 A 
ATOM      7  C   UNL     1     112.287 126.193 137.868  0.00  0.00    +0.000 A 
ATOM      8  C   UNL     1     112.990 125.808 137.671  0.00  0.00    +0.000 A 
ATOM      9  C   UNL     1     113.619 125.800 138.205  0.00  0.00    +0.000 A 
ATOM     10  C   UNL     1     113.054 125.418 136.908  0.00  0.00    +0.000 A 
ATOM     11  C   UNL     1     114.355 125.402 138.012  0.00  0.00    +0.000 A 
ATOM     12  C   UNL     1     113.782 125.015 136.698  0.00  0.00    +0.000 A 
ATOM     13  C   UNL     1     114.438 125.007 137.254  0.00  0.00    +0.000 A 
ENDROOT
BRANCH   6  15
ATOM     14  O   UNL     1     112.547 128.075 142.050  0.00  0.00    +0.000 OA
ATOM     15  C   UNL     1     112.770 126.942 139.860  0.00  0.00    +0.000 A 
ATOM     16  C   UNL     1     113.158 127.657 139.996  0.00  0.00    +0.000 A 
ATOM     17  C   UNL     1     112.307 126.604 140.454  0.00  0.00    +0.000 A 
ATOM     18  C   UNL     1     113.084 128.034 140.726  0.00  0.00    +0.000 A 
ATOM     19  C   UNL     1     112.233 126.982 141.184  0.00  0.00    +0.000 A 
ATOM     20  C   UNL     1     112.621 127.697 141.320  0.00  0.00    +0.000 A 
BRANCH  18  21
ATOM     21  O   UNL     1     113.472 128.749 140.862  0.00  0.00    +0.000 OA
ATOM     22  C   UNL     1     114.169 128.924 140.456  0.00  0.00    +0.000 C 
ENDBRANCH  18  21
ENDBRANCH   6  15
BRANCH   5  23
ATOM     23  O   UNL     1     111.511 126.957 138.793  0.00  0.00    +0.000 OA
BRANCH  23  32
ATOM     24  O   UNL     1     111.783 128.107 137.990  0.00  0.00    +0.000 OA
ATOM     25  O   UNL     1     110.437 129.471 136.945  0.00  0.00    +0.000 OA
ATOM     26  O   UNL     1     109.356 128.428 137.627  0.00  0.00    +0.000 OA
ATOM     27  O   UNL     1     109.893 127.171 138.551  0.00  0.00    +0.000 OA
ATOM     28  C   UNL     1     111.515 128.736 137.529  0.00  0.00    +0.000 C 
ATOM     29  C   UNL     1     110.706 128.842 137.408  0.00  0.00    +0.000 C 
ATOM     30  C   UNL     1     110.165 128.321 137.748  0.00  0.00    +0.000 C 
ATOM     31  C   UNL     1     110.434 127.692 138.210  0.00  0.00    +0.000 C 
ATOM     32  C   UNL     1     111.243 127.585 138.332  0.00  0.00    +0.000 C 
BRANCH  28  33
ATOM     33  C   UNL     1     112.055 129.258 137.188  0.00  0.00    +0.000 C 
BRANCH  33  34
ATOM     34  O   UNL     1     112.664 128.970 136.712  0.00  0.00    +0.000 OA
BRANCH  34  39
ATOM     35  O   UNL     1     113.419 130.166 136.915  0.00  0.00    +0.000 OA
ATOM     36  O   UNL     1     113.683 128.534 135.489  0.00  0.00    +0.000 OA
ATOM     37  O   UNL     1     114.947 129.513 135.081  0.00  0.00    +0.000 OA
ATOM     38  O   UNL     1     115.193 130.927 135.895  0.00  0.00    +0.000 OA
ATOM     39  C   UNL     1     113.296 129.460 136.508  0.00  0.00    +0.000 C 
ATOM     40  C   UNL     1     113.805 129.242 135.897  0.00  0.00    +0.000 C 
ATOM     41  C   UNL     1     114.438 129.730 135.692  0.00  0.00    +0.000 C 
ATOM     42  C   UNL     1     114.560 130.437 136.099  0.00  0.00    +0.000 C 
ATOM     43  C   UNL     1     114.050 130.655 136.711  0.00  0.00    +0.000 C 
ENDBRANCH  34  39
ENDBRANCH  33  34
ENDBRANCH  28  33
ENDBRANCH  23  32
ENDBRANCH   5  23
TORSDOF 7
ENDMDL
MODEL 5
REMARK VINA RESULT:      -9.7      1.743      3.386
REMARK  Name = 74977613
REMARK  7 active torsions:
REMARK  status: ('A' for Active; 'I' for Inactive)
REMARK    1  A    between atoms: O_2  and  C_22
REMARK    2  A    between atoms: O_2  and  C_23
REMARK    3  A    between atoms: O_6  and  C_21
REMARK    4  A    between atoms: O_6  and  C_28
REMARK    5  A    between atoms: O_15  and  C_40
REMARK    6  A    between atoms: C_17  and  C_22
REMARK    7  A    between atoms: C_29  and  C_32
REMARK                            x       y       z     vdW  Elec       q    Type
REMARK                         _______ _______ _______ _____ _____    ______ ____
ROOT
ATOM      1  O   UNL     1     111.777 128.865 135.577  0.00  0.00    +0.000 OA
ATOM      2  O   UNL     1     112.830 126.816 136.484  0.00  0.00    +0.000 OA
ATOM      3  O   UNL     1     114.148 127.339 136.212  0.00  0.00    +0.000 OA
ATOM      4  O   UNL     1     114.403 129.984 134.999  0.00  0.00    +0.000 OA
ATOM      5  C   UNL     1     111.657 127.570 136.171  0.00  0.00    +0.000 A 
ATOM      6  C   UNL     1     111.306 128.253 135.868  0.00  0.00    +0.000 A 
ATOM      7  C   UNL     1     112.479 127.500 136.182  0.00  0.00    +0.000 A 
ATOM      8  C   UNL     1     112.950 128.111 135.890  0.00  0.00    +0.000 A 
ATOM      9  C   UNL     1     112.599 128.793 135.588  0.00  0.00    +0.000 A 
ATOM     10  C   UNL     1     113.805 128.025 135.908  0.00  0.00    +0.000 A 
ATOM     11  C   UNL     1     113.079 129.437 135.282  0.00  0.00    +0.000 A 
ATOM     12  C   UNL     1     114.301 128.659 135.606  0.00  0.00    +0.000 A 
ATOM     13  C   UNL     1     113.935 129.370 135.291  0.00  0.00    +0.000 A 
ENDROOT
BRANCH   6  15
ATOM     14  O   UNL     1     108.018 128.532 135.821  0.00  0.00    +0.000 OA
ATOM     15  C   UNL     1     110.484 128.323 135.857  0.00  0.00    +0.000 A 
ATOM     16  C   UNL     1     110.104 128.810 136.403  0.00  0.00    +0.000 A 
ATOM     17  C   UNL     1     110.043 127.905 135.298  0.00  0.00    +0.000 A 
ATOM     18  C   UNL     1     109.282 128.880 136.391  0.00  0.00    +0.000 A 
ATOM     19  C   UNL     1     109.221 127.976 135.287  0.00  0.00    +0.000 A 
ATOM     20  C   UNL     1     108.840 128.463 135.834  0.00  0.00    +0.000 A 
BRANCH  18  21
ATOM     21  O   UNL     1     108.901 129.367 136.938  0.00  0.00    +0.000 OA
ATOM     22  C   UNL     1     109.302 130.010 137.266  0.00  0.00    +0.000 C 
ENDBRANCH  18  21
ENDBRANCH   6  15
BRANCH   5  23
ATOM     23  O   UNL     1     111.187 126.958 136.462  0.00  0.00    +0.000 OA
BRANCH  23  32
ATOM     24  O   UNL     1     111.368 127.285 137.841  0.00  0.00    +0.000 OA
ATOM     25  O   UNL     1     111.475 126.009 139.609  0.00  0.00    +0.000 OA
ATOM     26  O   UNL     1     111.256 124.882 138.425  0.00  0.00    +0.000 OA
ATOM     27  O   UNL     1     111.112 125.356 136.851  0.00  0.00    +0.000 OA
ATOM     28  C   UNL     1     111.440 127.048 138.627  0.00  0.00    +0.000 C 
ATOM     29  C   UNL     1     111.403 126.247 138.822  0.00  0.00    +0.000 C 
ATOM     30  C   UNL     1     111.293 125.683 138.230  0.00  0.00    +0.000 C 
ATOM     31  C   UNL     1     111.221 125.920 137.443  0.00  0.00    +0.000 C 
ATOM     32  C   UNL     1     111.259 126.721 137.248  0.00  0.00    +0.000 C 
BRANCH  28  33
ATOM     33  C   UNL     1     111.550 127.611 139.220  0.00  0.00    +0.000 C 
BRANCH  33  34
ATOM     34  O   UNL     1     112.101 128.216 139.119  0.00  0.00    +0.000 OA
BRANCH  34  39
ATOM     35  O   UNL     1     111.402 129.038 140.055  0.00  0.00    +0.000 OA
ATOM     36  O   UNL     1     113.377 129.261 139.154  0.00  0.00    +0.000 OA
ATOM     37  O   UNL     1     113.316 130.606 140.108  0.00  0.00    +0.000 OA
ATOM     38  O   UNL     1     111.978 130.906 141.027  0.00  0.00    +0.000 OA
ATOM     39  C   UNL     1     112.070 128.888 139.596  0.00  0.00    +0.000 C 
ATOM     40  C   UNL     1     112.708 129.411 139.614  0.00  0.00    +0.000 C 
ATOM     41  C   UNL     1     112.678 130.083 140.090  0.00  0.00    +0.000 C 
ATOM     42  C   UNL     1     112.009 130.232 140.549  0.00  0.00    +0.000 C 
ATOM     43  C   UNL     1     111.371 129.710 140.532  0.00  0.00    +0.000 C 
ENDBRANCH  34  39
ENDBRANCH  33  34
ENDBRANCH  28  33
ENDBRANCH  23  32
ENDBRANCH   5  23
TORSDOF 7
ENDMDL
MODEL 6
REMARK VINA RESULT:      -9.7      0.993      2.841
REMARK  Name = 74977613
REMARK  7 active torsions:
REMARK  status: ('A' for Active; 'I' for Inactive)
REMARK    1  A    between atoms: O_2  and  C_22
REMARK    2  A    between atoms: O_2  and  C_23
REMARK    3  A    between atoms: O_6  and  C_21
REMARK    4  A    between atoms: O_6  and  C_28
REMARK    5  A    between atoms: O_15  and  C_40
REMARK    6  A    between atoms: C_17  and  C_22
REMARK    7  A    between atoms: C_29  and  C_32
REMARK                            x       y       z     vdW  Elec       q    Type
REMARK                         _______ _______ _______ _____ _____    ______ ____
ROOT
ATOM      1  O   UNL     1     111.437 125.546 136.301  0.00  0.00    +0.000 OA
ATOM      2  O   UNL     1     113.643 126.653 136.489  0.00  0.00    +0.000 OA
ATOM      3  O   UNL     1     114.269 125.407 136.861  0.00  0.00    +0.000 OA
ATOM      4  O   UNL     1     112.631 122.996 137.046  0.00  0.00    +0.000 OA
ATOM      5  C   UNL     1     112.243 126.723 136.212  0.00  0.00    +0.000 A 
ATOM      6  C   UNL     1     111.507 126.354 136.150  0.00  0.00    +0.000 A 
ATOM      7  C   UNL     1     112.908 126.283 136.426  0.00  0.00    +0.000 A 
ATOM      8  C   UNL     1     112.837 125.476 136.578  0.00  0.00    +0.000 A 
ATOM      9  C   UNL     1     112.102 125.107 136.516  0.00  0.00    +0.000 A 
ATOM     10  C   UNL     1     113.537 125.029 136.801  0.00  0.00    +0.000 A 
ATOM     11  C   UNL     1     112.016 124.267 136.671  0.00  0.00    +0.000 A 
ATOM     12  C   UNL     1     113.471 124.188 136.960  0.00  0.00    +0.000 A 
ATOM     13  C   UNL     1     112.704 123.803 136.895  0.00  0.00    +0.000 A 
ENDROOT
BRANCH   6  15
ATOM     14  O   UNL     1     108.850 128.112 135.290  0.00  0.00    +0.000 OA
ATOM     15  C   UNL     1     110.843 126.793 135.935  0.00  0.00    +0.000 A 
ATOM     16  C   UNL     1     110.260 126.959 136.495  0.00  0.00    +0.000 A 
ATOM     17  C   UNL     1     110.762 127.067 135.161  0.00  0.00    +0.000 A 
ATOM     18  C   UNL     1     109.595 127.399 136.279  0.00  0.00    +0.000 A 
ATOM     19  C   UNL     1     110.098 127.506 134.946  0.00  0.00    +0.000 A 
ATOM     20  C   UNL     1     109.515 127.672 135.506  0.00  0.00    +0.000 A 
BRANCH  18  21
ATOM     21  O   UNL     1     109.012 127.565 136.838  0.00  0.00    +0.000 OA
ATOM     22  C   UNL     1     108.982 127.136 137.543  0.00  0.00    +0.000 C 
ENDBRANCH  18  21
ENDBRANCH   6  15
BRANCH   5  23
ATOM     23  O   UNL     1     112.314 127.531 136.060  0.00  0.00    +0.000 OA
BRANCH  23  32
ATOM     24  O   UNL     1     112.339 127.951 137.426  0.00  0.00    +0.000 OA
ATOM     25  O   UNL     1     113.444 129.558 138.406  0.00  0.00    +0.000 OA
ATOM     26  O   UNL     1     113.959 129.731 136.848  0.00  0.00    +0.000 OA
ATOM     27  O   UNL     1     113.394 128.717 135.675  0.00  0.00    +0.000 OA
ATOM     28  C   UNL     1     112.621 128.457 138.012  0.00  0.00    +0.000 C 
ATOM     29  C   UNL     1     113.161 129.051 137.820  0.00  0.00    +0.000 C 
ATOM     30  C   UNL     1     113.419 129.138 137.041  0.00  0.00    +0.000 C 
ATOM     31  C   UNL     1     113.136 128.630 136.454  0.00  0.00    +0.000 C 
ATOM     32  C   UNL     1     112.596 128.037 136.646  0.00  0.00    +0.000 C 
BRANCH  28  33
ATOM     33  C   UNL     1     112.364 128.371 138.791  0.00  0.00    +0.000 C 
BRANCH  33  34
ATOM     34  O   UNL     1     112.258 127.619 139.111  0.00  0.00    +0.000 OA
BRANCH  34  39
ATOM     35  O   UNL     1     111.444 128.157 140.154  0.00  0.00    +0.000 OA
ATOM     36  O   UNL     1     112.306 126.169 139.897  0.00  0.00    +0.000 OA
ATOM     37  O   UNL     1     111.516 125.983 141.334  0.00  0.00    +0.000 OA
ATOM     38  O   UNL     1     110.678 127.246 141.984  0.00  0.00    +0.000 OA
ATOM     39  C   UNL     1     111.863 127.526 139.829  0.00  0.00    +0.000 C 
ATOM     40  C   UNL     1     111.887 126.801 140.222  0.00  0.00    +0.000 C 
ATOM     41  C   UNL     1     111.492 126.707 140.940  0.00  0.00    +0.000 C 
ATOM     42  C   UNL     1     111.073 127.340 141.265  0.00  0.00    +0.000 C 
ATOM     43  C   UNL     1     111.049 128.064 140.872  0.00  0.00    +0.000 C 
ENDBRANCH  34  39
ENDBRANCH  33  34
ENDBRANCH  28  33
ENDBRANCH  23  32
ENDBRANCH   5  23
TORSDOF 7
ENDMDL
MODEL 7
REMARK VINA RESULT:      -9.7      1.375      4.164
REMARK  Name = 74977613
REMARK  7 active torsions:
REMARK  status: ('A' for Active; 'I' for Inactive)
REMARK    1  A    between atoms: O_2  and  C_22
REMARK    2  A    between atoms: O_2  and  C_23
REMARK    3  A    between atoms: O_6  and  C_21
REMARK    4  A    between atoms: O_6  and  C_28
REMARK    5  A    between atoms: O_15  and  C_40
REMARK    6  A    between atoms: C_17  and  C_22
REMARK    7  A    between atoms: C_29  and  C_32
REMARK                            x       y       z     vdW  Elec       q    Type
REMARK                         _______ _______ _______ _____ _____    ______ ____
ROOT
ATOM      1  O   UNL     1     112.999 128.512 138.168  0.00  0.00    +0.000 OA
ATOM      2  O   UNL     1     113.495 127.088 136.204  0.00  0.00    +0.000 OA
ATOM      3  O   UNL     1     114.011 128.221 135.476  0.00  0.00    +0.000 OA
ATOM      4  O   UNL     1     114.027 130.845 136.759  0.00  0.00    +0.000 OA
ATOM      5  C   UNL     1     112.994 127.230 137.535  0.00  0.00    +0.000 A 
ATOM      6  C   UNL     1     112.829 127.705 138.190  0.00  0.00    +0.000 A 
ATOM      7  C   UNL     1     113.330 127.563 136.859  0.00  0.00    +0.000 A 
ATOM      8  C   UNL     1     113.500 128.370 136.837  0.00  0.00    +0.000 A 
ATOM      9  C   UNL     1     113.335 128.844 137.491  0.00  0.00    +0.000 A 
ATOM     10  C   UNL     1     113.849 128.704 136.126  0.00  0.00    +0.000 A 
ATOM     11  C   UNL     1     113.508 129.685 137.479  0.00  0.00    +0.000 A 
ATOM     12  C   UNL     1     114.029 129.543 136.096  0.00  0.00    +0.000 A 
ATOM     13  C   UNL     1     113.857 130.038 136.778  0.00  0.00    +0.000 A 
ENDROOT
BRANCH   6  15
ATOM     14  O   UNL     1     111.490 126.373 140.896  0.00  0.00    +0.000 OA
ATOM     15  C   UNL     1     112.494 127.373 138.866  0.00  0.00    +0.000 A 
ATOM     16  C   UNL     1     111.695 127.492 139.032  0.00  0.00    +0.000 A 
ATOM     17  C   UNL     1     112.958 126.920 139.376  0.00  0.00    +0.000 A 
ATOM     18  C   UNL     1     111.360 127.159 139.709  0.00  0.00    +0.000 A 
ATOM     19  C   UNL     1     112.623 126.587 140.053  0.00  0.00    +0.000 A 
ATOM     20  C   UNL     1     111.824 126.706 140.219  0.00  0.00    +0.000 A 
BRANCH  18  21
ATOM     21  O   UNL     1     110.561 127.278 139.876  0.00  0.00    +0.000 OA
ATOM     22  C   UNL     1     110.193 127.983 139.650  0.00  0.00    +0.000 C 
ENDBRANCH  18  21
ENDBRANCH   6  15
BRANCH   5  23
ATOM     23  O   UNL     1     112.824 126.423 137.557  0.00  0.00    +0.000 OA
BRANCH  23  32
ATOM     24  O   UNL     1     111.733 126.575 136.646  0.00  0.00    +0.000 OA
ATOM     25  O   UNL     1     110.722 125.120 135.372  0.00  0.00    +0.000 OA
ATOM     26  O   UNL     1     111.852 124.164 136.102  0.00  0.00    +0.000 OA
ATOM     27  O   UNL     1     112.903 124.816 137.195  0.00  0.00    +0.000 OA
ATOM     28  C   UNL     1     111.208 126.250 136.101  0.00  0.00    +0.000 C 
ATOM     29  C   UNL     1     111.248 125.446 135.919  0.00  0.00    +0.000 C 
ATOM     30  C   UNL     1     111.812 124.968 136.284  0.00  0.00    +0.000 C 
ATOM     31  C   UNL     1     112.338 125.294 136.830  0.00  0.00    +0.000 C 
ATOM     32  C   UNL     1     112.299 126.098 137.012  0.00  0.00    +0.000 C 
BRANCH  28  33
ATOM     33  C   UNL     1     110.643 126.727 135.735  0.00  0.00    +0.000 C 
BRANCH  33  34
ATOM     34  O   UNL     1     110.130 127.184 136.192  0.00  0.00    +0.000 OA
BRANCH  34  39
ATOM     35  O   UNL     1     110.285 128.372 135.414  0.00  0.00    +0.000 OA
ATOM     36  O   UNL     1     108.573 127.609 136.534  0.00  0.00    +0.000 OA
ATOM     37  O   UNL     1     107.949 129.011 135.927  0.00  0.00    +0.000 OA
ATOM     38  O   UNL     1     108.882 129.987 134.978  0.00  0.00    +0.000 OA
ATOM     39  C   UNL     1     109.819 127.885 135.888  0.00  0.00    +0.000 C 
ATOM     40  C   UNL     1     109.040 128.098 136.059  0.00  0.00    +0.000 C 
ATOM     41  C   UNL     1     108.728 128.798 135.756  0.00  0.00    +0.000 C 
ATOM     42  C   UNL     1     109.195 129.286 135.282  0.00  0.00    +0.000 C 
ATOM     43  C   UNL     1     109.973 129.073 135.111  0.00  0.00    +0.000 C 
ENDBRANCH  34  39
ENDBRANCH  33  34
ENDBRANCH  28  33
ENDBRANCH  23  32
ENDBRANCH   5  23
TORSDOF 7
ENDMDL
MODEL 8
REMARK VINA RESULT:      -9.6      2.078      3.358
REMARK  Name = 74977613
REMARK  7 active torsions:
REMARK  status: ('A' for Active; 'I' for Inactive)
REMARK    1  A    between atoms: O_2  and  C_22
REMARK    2  A    between atoms: O_2  and  C_23
REMARK    3  A    between atoms: O_6  and  C_21
REMARK    4  A    between atoms: O_6  and  C_28
REMARK    5  A    between atoms: O_15  and  C_40
REMARK    6  A    between atoms: C_17  and  C_22
REMARK    7  A    between atoms: C_29  and  C_32
REMARK                            x       y       z     vdW  Elec       q    Type
REMARK                         _______ _______ _______ _____ _____    ______ ____
ROOT
ATOM      1  O   UNL     1     112.436 130.734 136.706  0.00  0.00    +0.000 OA
ATOM      2  O   UNL     1     111.182 129.249 135.172  0.00  0.00    +0.000 OA
ATOM      3  O   UNL     1     112.412 128.710 134.643  0.00  0.00    +0.000 OA
ATOM      4  O   UNL     1     114.957 129.692 135.687  0.00  0.00    +0.000 OA
ATOM      5  C   UNL     1     111.193 130.250 136.192  0.00  0.00    +0.000 A 
ATOM      6  C   UNL     1     111.611 130.745 136.704  0.00  0.00    +0.000 A 
ATOM      7  C   UNL     1     111.600 129.744 135.684  0.00  0.00    +0.000 A 
ATOM      8  C   UNL     1     112.425 129.733 135.686  0.00  0.00    +0.000 A 
ATOM      9  C   UNL     1     112.842 130.228 136.197  0.00  0.00    +0.000 A 
ATOM     10  C   UNL     1     112.838 129.202 135.151  0.00  0.00    +0.000 A 
ATOM     11  C   UNL     1     113.701 130.225 136.209  0.00  0.00    +0.000 A 
ATOM     12  C   UNL     1     113.697 129.185 135.149  0.00  0.00    +0.000 A 
ATOM     13  C   UNL     1     114.132 129.701 135.682  0.00  0.00    +0.000 A 
ENDROOT
BRANCH   6  15
ATOM     14  O   UNL     1     109.979 132.768 138.736  0.00  0.00    +0.000 OA
ATOM     15  C   UNL     1     111.203 131.250 137.212  0.00  0.00    +0.000 A 
ATOM     16  C   UNL     1     111.155 131.076 138.017  0.00  0.00    +0.000 A 
ATOM     17  C   UNL     1     110.842 131.931 136.915  0.00  0.00    +0.000 A 
ATOM     18  C   UNL     1     110.747 131.582 138.525  0.00  0.00    +0.000 A 
ATOM     19  C   UNL     1     110.435 132.436 137.424  0.00  0.00    +0.000 A 
ATOM     20  C   UNL     1     110.387 132.262 138.229  0.00  0.00    +0.000 A 
BRANCH  18  21
ATOM     21  O   UNL     1     110.699 131.408 139.330  0.00  0.00    +0.000 OA
ATOM     22  C   UNL     1     111.161 130.803 139.650  0.00  0.00    +0.000 C 
ENDBRANCH  18  21
ENDBRANCH   6  15
BRANCH   5  23
ATOM     23  O   UNL     1     110.368 130.261 136.190  0.00  0.00    +0.000 OA
BRANCH  23  32
ATOM     24  O   UNL     1     110.210 129.054 136.939  0.00  0.00    +0.000 OA
ATOM     25  O   UNL     1     108.679 127.502 136.841  0.00  0.00    +0.000 OA
ATOM     26  O   UNL     1     108.150 128.535 135.669  0.00  0.00    +0.000 OA
ATOM     27  O   UNL     1     108.994 129.915 135.343  0.00  0.00    +0.000 OA
ATOM     28  C   UNL     1     109.788 128.365 137.101  0.00  0.00    +0.000 C 
ATOM     29  C   UNL     1     109.101 128.192 136.678  0.00  0.00    +0.000 C 
ATOM     30  C   UNL     1     108.837 128.708 136.092  0.00  0.00    +0.000 C 
ATOM     31  C   UNL     1     109.259 129.399 135.929  0.00  0.00    +0.000 C 
ATOM     32  C   UNL     1     109.946 129.571 136.352  0.00  0.00    +0.000 C 
BRANCH  28  33
ATOM     33  C   UNL     1     110.052 127.847 137.688  0.00  0.00    +0.000 C 
BRANCH  33  34
ATOM     34  O   UNL     1     110.837 127.595 137.693  0.00  0.00    +0.000 OA
BRANCH  34  39
ATOM     35  O   UNL     1     110.746 127.289 139.086  0.00  0.00    +0.000 OA
ATOM     36  O   UNL     1     112.295 126.828 137.620  0.00  0.00    +0.000 OA
ATOM     37  O   UNL     1     112.933 126.137 138.975  0.00  0.00    +0.000 OA
ATOM     38  O   UNL     1     112.113 126.214 140.405  0.00  0.00    +0.000 OA
ATOM     39  C   UNL     1     111.155 127.250 138.372  0.00  0.00    +0.000 C 
ATOM     40  C   UNL     1     111.885 126.866 138.335  0.00  0.00    +0.000 C 
ATOM     41  C   UNL     1     112.204 126.521 139.012  0.00  0.00    +0.000 C 
ATOM     42  C   UNL     1     111.793 126.560 139.727  0.00  0.00    +0.000 C 
ATOM     43  C   UNL     1     111.064 126.944 139.763  0.00  0.00    +0.000 C 
ENDBRANCH  34  39
ENDBRANCH  33  34
ENDBRANCH  28  33
ENDBRANCH  23  32
ENDBRANCH   5  23
TORSDOF 7
ENDMDL
MODEL 9
REMARK VINA RESULT:      -9.6      1.688      3.439
REMARK  Name = 74977613
REMARK  7 active torsions:
REMARK  status: ('A' for Active; 'I' for Inactive)
REMARK    1  A    between atoms: O_2  and  C_22
REMARK    2  A    between atoms: O_2  and  C_23
REMARK    3  A    between atoms: O_6  and  C_21
REMARK    4  A    between atoms: O_6  and  C_28
REMARK    5  A    between atoms: O_15  and  C_40
REMARK    6  A    between atoms: C_17  and  C_22
REMARK    7  A    between atoms: C_29  and  C_32
REMARK                            x       y       z     vdW  Elec       q    Type
REMARK                         _______ _______ _______ _____ _____    ______ ____
ROOT
ATOM      1  O   UNL     1     112.594 128.105 135.473  0.00  0.00    +0.000 OA
ATOM      2  O   UNL     1     111.440 130.125 136.320  0.00  0.00    +0.000 OA
ATOM      3  O   UNL     1     112.684 130.854 136.360  0.00  0.00    +0.000 OA
ATOM      4  O   UNL     1     115.142 129.514 135.527  0.00  0.00    +0.000 OA
ATOM      5  C   UNL     1     111.394 128.766 135.882  0.00  0.00    +0.000 A 
ATOM      6  C   UNL     1     111.779 128.092 135.599  0.00  0.00    +0.000 A 
ATOM      7  C   UNL     1     111.825 129.451 136.037  0.00  0.00    +0.000 A 
ATOM      8  C   UNL     1     112.640 129.464 135.911  0.00  0.00    +0.000 A 
ATOM      9  C   UNL     1     113.024 128.792 135.629  0.00  0.00    +0.000 A 
ATOM     10  C   UNL     1     113.077 130.185 136.078  0.00  0.00    +0.000 A 
ATOM     11  C   UNL     1     113.872 128.793 135.494  0.00  0.00    +0.000 A 
ATOM     12  C   UNL     1     113.926 130.205 135.948  0.00  0.00    +0.000 A 
ATOM     13  C   UNL     1     114.327 129.503 135.654  0.00  0.00    +0.000 A 
ENDROOT
BRANCH   6  15
ATOM     14  O   UNL     1     110.053 125.350 134.974  0.00  0.00    +0.000 OA
ATOM     15  C   UNL     1     111.347 127.406 135.443  0.00  0.00    +0.000 A 
ATOM     16  C   UNL     1     111.389 126.766 135.962  0.00  0.00    +0.000 A 
ATOM     17  C   UNL     1     110.874 127.361 134.768  0.00  0.00    +0.000 A 
ATOM     18  C   UNL     1     110.957 126.080 135.805  0.00  0.00    +0.000 A 
ATOM     19  C   UNL     1     110.443 126.676 134.612  0.00  0.00    +0.000 A 
ATOM     20  C   UNL     1     110.484 126.035 135.131  0.00  0.00    +0.000 A 
BRANCH  18  21
ATOM     21  O   UNL     1     110.998 125.440 136.323  0.00  0.00    +0.000 OA
ATOM     22  C   UNL     1     111.718 125.237 136.673  0.00  0.00    +0.000 C 
ENDBRANCH  18  21
ENDBRANCH   6  15
BRANCH   5  23
ATOM     23  O   UNL     1     110.578 128.753 136.008  0.00  0.00    +0.000 OA
BRANCH  23  32
ATOM     24  O   UNL     1     110.678 128.703 137.432  0.00  0.00    +0.000 OA
ATOM     25  O   UNL     1     109.358 129.485 138.985  0.00  0.00    +0.000 OA
ATOM     26  O   UNL     1     108.548 129.949 137.624  0.00  0.00    +0.000 OA
ATOM     27  O   UNL     1     109.159 129.583 136.136  0.00  0.00    +0.000 OA
ATOM     28  C   UNL     1     110.373 128.886 138.176  0.00  0.00    +0.000 C 
ATOM     29  C   UNL     1     109.663 129.301 138.240  0.00  0.00    +0.000 C 
ATOM     30  C   UNL     1     109.258 129.534 137.560  0.00  0.00    +0.000 C 
ATOM     31  C   UNL     1     109.564 129.351 136.816  0.00  0.00    +0.000 C 
ATOM     32  C   UNL     1     110.274 128.935 136.752  0.00  0.00    +0.000 C 
BRANCH  28  33
ATOM     33  C   UNL     1     110.778 128.654 138.857  0.00  0.00    +0.000 C 
BRANCH  33  34
ATOM     34  O   UNL     1     110.954 127.858 138.982  0.00  0.00    +0.000 OA
BRANCH  34  39
ATOM     35  O   UNL     1     112.124 128.136 139.753  0.00  0.00    +0.000 OA
ATOM     36  O   UNL     1     110.760 126.432 139.788  0.00  0.00    +0.000 OA
ATOM     37  O   UNL     1     111.833 125.997 140.964  0.00  0.00    +0.000 OA
ATOM     38  O   UNL     1     113.100 126.987 141.332  0.00  0.00    +0.000 OA
ATOM     39  C   UNL     1     111.491 127.641 139.569  0.00  0.00    +0.000 C 
ATOM     40  C   UNL     1     111.394 126.928 139.973  0.00  0.00    +0.000 C 
ATOM     41  C   UNL     1     111.930 126.710 140.560  0.00  0.00    +0.000 C 
ATOM     42  C   UNL     1     112.564 127.205 140.744  0.00  0.00    +0.000 C 
ATOM     43  C   UNL     1     112.660 127.918 140.340  0.00  0.00    +0.000 C 
ENDBRANCH  34  39
ENDBRANCH  33  34
ENDBRANCH  28  33
ENDBRANCH  23  32
ENDBRANCH   5  23
TORSDOF 7
ENDMDL
MODEL 10
REMARK VINA RESULT:      -9.5      1.628      3.842
REMARK  Name = 74977613
REMARK  7 active torsions:
REMARK  status: ('A' for Active; 'I' for Inactive)
REMARK    1  A    between atoms: O_2  and  C_22
REMARK    2  A    between atoms: O_2  and  C_23
REMARK    3  A    between atoms: O_6  and  C_21
REMARK    4  A    between atoms: O_6  and  C_28
REMARK    5  A    between atoms: O_15  and  C_40
REMARK    6  A    between atoms: C_17  and  C_22
REMARK    7  A    between atoms: C_29  and  C_32
REMARK                            x       y       z     vdW  Elec       q    Type
REMARK                         _______ _______ _______ _____ _____    ______ ____
ROOT
ATOM      1  O   UNL     1     111.818 126.222 136.333  0.00  0.00    +0.000 OA
ATOM      2  O   UNL     1     112.156 128.417 135.238  0.00  0.00    +0.000 OA
ATOM      3  O   UNL     1     110.855 128.339 134.617  0.00  0.00    +0.000 OA
ATOM      4  O   UNL     1     109.183 125.997 135.114  0.00  0.00    +0.000 OA
ATOM      5  C   UNL     1     112.633 127.371 136.087  0.00  0.00    +0.000 A 
ATOM      6  C   UNL     1     112.520 126.639 136.452  0.00  0.00    +0.000 A 
ATOM      7  C   UNL     1     112.043 127.685 135.603  0.00  0.00    +0.000 A 
ATOM      8  C   UNL     1     111.341 127.268 135.484  0.00  0.00    +0.000 A 
ATOM      9  C   UNL     1     111.229 126.537 135.849  0.00  0.00    +0.000 A 
ATOM     10  C   UNL     1     110.734 127.607 134.978  0.00  0.00    +0.000 A 
ATOM     11  C   UNL     1     110.502 126.094 135.733  0.00  0.00    +0.000 A 
ATOM     12  C   UNL     1     110.001 127.178 134.850  0.00  0.00    +0.000 A 
ATOM     13  C   UNL     1     109.884 126.416 135.231  0.00  0.00    +0.000 A 
ENDROOT
BRANCH   6  15
ATOM     14  O   UNL     1     114.882 125.381 138.384  0.00  0.00    +0.000 OA
ATOM     15  C   UNL     1     113.110 126.325 136.935  0.00  0.00    +0.000 A 
ATOM     16  C   UNL     1     113.040 126.372 137.756  0.00  0.00    +0.000 A 
ATOM     17  C   UNL     1     113.771 125.963 136.597  0.00  0.00    +0.000 A 
ATOM     18  C   UNL     1     113.631 126.057 138.238  0.00  0.00    +0.000 A 
ATOM     19  C   UNL     1     114.361 125.649 137.081  0.00  0.00    +0.000 A 
ATOM     20  C   UNL     1     114.291 125.696 137.901  0.00  0.00    +0.000 A 
BRANCH  18  21
ATOM     21  O   UNL     1     113.561 126.104 139.059  0.00  0.00    +0.000 OA
ATOM     22  C   UNL     1     112.833 126.292 139.402  0.00  0.00    +0.000 C 
ENDBRANCH  18  21
ENDBRANCH   6  15
BRANCH   5  23
ATOM     23  O   UNL     1     113.335 127.787 136.206  0.00  0.00    +0.000 OA
BRANCH  23  32
ATOM     24  O   UNL     1     112.780 128.745 137.110  0.00  0.00    +0.000 OA
ATOM     25  O   UNL     1     113.248 130.854 137.422  0.00  0.00    +0.000 OA
ATOM     26  O   UNL     1     114.313 130.473 136.222  0.00  0.00    +0.000 OA
ATOM     27  O   UNL     1     114.357 128.939 135.613  0.00  0.00    +0.000 OA
ATOM     28  C   UNL     1     112.758 129.511 137.414  0.00  0.00    +0.000 C 
ATOM     29  C   UNL     1     113.269 130.087 137.118  0.00  0.00    +0.000 C 
ATOM     30  C   UNL     1     113.802 129.897 136.518  0.00  0.00    +0.000 C 
ATOM     31  C   UNL     1     113.824 129.129 136.213  0.00  0.00    +0.000 C 
ATOM     32  C   UNL     1     113.313 128.553 136.510  0.00  0.00    +0.000 C 
BRANCH  28  33
ATOM     33  C   UNL     1     112.226 129.702 138.015  0.00  0.00    +0.000 C 
BRANCH  33  34
ATOM     34  O   UNL     1     111.423 129.537 137.923  0.00  0.00    +0.000 OA
BRANCH  34  39
ATOM     35  O   UNL     1     111.231 129.611 139.337  0.00  0.00    +0.000 OA
ATOM     36  O   UNL     1     109.789 129.479 137.704  0.00  0.00    +0.000 OA
ATOM     37  O   UNL     1     108.780 129.522 139.009  0.00  0.00    +0.000 OA
ATOM     38  O   UNL     1     109.405 129.625 140.533  0.00  0.00    +0.000 OA
ATOM     39  C   UNL     1     110.919 129.559 138.576  0.00  0.00    +0.000 C 
ATOM     40  C   UNL     1     110.102 129.530 138.467  0.00  0.00    +0.000 C 
ATOM     41  C   UNL     1     109.597 129.552 139.118  0.00  0.00    +0.000 C 
ATOM     42  C   UNL     1     109.910 129.603 139.880  0.00  0.00    +0.000 C 
ATOM     43  C   UNL     1     110.728 129.633 139.989  0.00  0.00    +0.000 C 
ENDBRANCH  34  39
ENDBRANCH  33  34
ENDBRANCH  28  33
ENDBRANCH  23  32
ENDBRANCH   5  23
TORSDOF 7
ENDMDL
