MODEL 1
REMARK VINA RESULT:      -8.8      0.000      0.000
REMARK  Name = 
REMARK  7 active torsions:
REMARK  status: ('A' for Active; 'I' for Inactive)
REMARK    1  A    between atoms: C_1  and  O_27
REMARK    2  A    between atoms: C_3  and  O_26
REMARK    3  A    between atoms: C_9  and  C_11
REMARK    4  A    between atoms: C_14  and  O_29
REMARK    5  A    between atoms: C_15  and  O_28
REMARK    6  A    between atoms: C_20  and  O_26
REMARK    7  A    between atoms: C_22  and  C_30
REMARK                            x       y       z     vdW  Elec       q    Type
REMARK                         _______ _______ _______ _____ _____    ______ ____
ROOT
ATOM      1  C   UNL     1     106.245 125.829 142.044  0.00  0.00    +0.000 A 
ATOM      2  C   UNL     1     106.764 125.986 142.922  0.00  0.00    +0.000 A 
ATOM      3  C   UNL     1     106.561 126.816 143.501  0.00  0.00    +0.000 A 
ATOM      4  C   UNL     1     105.839 127.492 143.205  0.00  0.00    +0.000 A 
ATOM      5  C   UNL     1     105.319 127.332 142.323  0.00  0.00    +0.000 A 
ATOM      6  C   UNL     1     105.522 126.502 141.745  0.00  0.00    +0.000 A 
ATOM      7  C   UNL     1     105.634 128.320 143.780  0.00  0.00    +0.000 C 
ATOM      8  C   UNL     1     104.911 128.993 143.480  0.00  0.00    +0.000 C 
ATOM      9  C   UNL     1     104.392 128.836 142.602  0.00  0.00    +0.000 C 
ATOM     10  O   UNL     1     104.595 128.005 142.023  0.00  0.00    +0.000 OA
ENDROOT
BRANCH   9  11
ATOM     11  C   UNL     1     103.668 129.507 142.300  0.00  0.00    +0.000 A 
ATOM     12  C   UNL     1     103.357 130.262 142.947  0.00  0.00    +0.000 A 
ATOM     13  C   UNL     1     102.627 130.939 142.642  0.00  0.00    +0.000 A 
ATOM     14  C   UNL     1     102.209 130.862 141.692  0.00  0.00    +0.000 A 
ATOM     15  C   UNL     1     102.520 130.109 141.046  0.00  0.00    +0.000 A 
ATOM     16  C   UNL     1     103.250 129.431 141.350  0.00  0.00    +0.000 A 
BRANCH  15  17
ATOM     17  O   UNL     1     102.106 130.032 140.104  0.00  0.00    +0.000 OA
ATOM     18  C   UNL     1     102.234 129.379 139.663  0.00  0.00    +0.000 C 
ENDBRANCH  15  17
BRANCH  14  19
ATOM     19  O   UNL     1     101.486 131.534 141.391  0.00  0.00    +0.000 OA
ATOM     20  C   UNL     1     101.082 132.113 142.026  0.00  0.00    +0.000 C 
ENDBRANCH  14  19
ENDBRANCH   9  11
BRANCH   1  21
ATOM     21  O   UNL     1     106.451 124.998 141.467  0.00  0.00    +0.000 OA
ATOM     22  C   UNL     1     105.843 124.186 141.513  0.00  0.00    +0.000 C 
ENDBRANCH   1  21
BRANCH   3  23
ATOM     23  O   UNL     1     107.073 126.968 144.363  0.00  0.00    +0.000 OA
BRANCH  23  27
ATOM     24  C   UNL     1     106.711 124.860 147.503  0.00  0.00    +0.000 C 
ATOM     25  C   UNL     1     106.082 124.877 146.648  0.00  0.00    +0.000 C 
ATOM     26  C   UNL     1     106.480 125.541 146.032  0.00  0.00    +0.000 C 
ATOM     27  C   UNL     1     106.585 126.045 145.306  0.00  0.00    +0.000 C 
ATOM     28  O   UNL     1     107.050 125.944 146.088  0.00  0.00    +0.000 OA
ATOM     29  C   UNL     1     106.609 125.318 146.584  0.00  0.00    +0.000 C 
ATOM     30  O   UNL     1     106.403 124.239 148.163  0.00  0.00    +0.000 OA
ATOM     31  O   UNL     1     105.958 124.254 147.555  0.00  0.00    +0.000 OA
ATOM     32  O   UNL     1     105.872 125.477 145.343  0.00  0.00    +0.000 OA
BRANCH  29  33
ATOM     33  C   UNL     1     107.142 125.380 147.177  0.00  0.00    +0.000 C 
ATOM     34  O   UNL     1     107.392 124.974 147.324  0.00  0.00    +0.000 OA
ENDBRANCH  29  33
ENDBRANCH  23  27
ENDBRANCH   3  23
TORSDOF 7
ENDMDL
MODEL 2
REMARK VINA RESULT:      -8.7      1.996      6.967
REMARK  Name = 
REMARK  7 active torsions:
REMARK  status: ('A' for Active; 'I' for Inactive)
REMARK    1  A    between atoms: C_1  and  O_27
REMARK    2  A    between atoms: C_3  and  O_26
REMARK    3  A    between atoms: C_9  and  C_11
REMARK    4  A    between atoms: C_14  and  O_29
REMARK    5  A    between atoms: C_15  and  O_28
REMARK    6  A    between atoms: C_20  and  O_26
REMARK    7  A    between atoms: C_22  and  C_30
REMARK                            x       y       z     vdW  Elec       q    Type
REMARK                         _______ _______ _______ _____ _____    ______ ____
ROOT
ATOM      1  C   UNL     1     105.618 127.691 142.285  0.00  0.00    +0.000 A 
ATOM      2  C   UNL     1     105.985 126.955 141.661  0.00  0.00    +0.000 A 
ATOM      3  C   UNL     1     106.160 126.007 142.029  0.00  0.00    +0.000 A 
ATOM      4  C   UNL     1     105.971 125.790 143.020  0.00  0.00    +0.000 A 
ATOM      5  C   UNL     1     105.603 126.530 143.644  0.00  0.00    +0.000 A 
ATOM      6  C   UNL     1     105.427 127.479 143.276  0.00  0.00    +0.000 A 
ATOM      7  C   UNL     1     106.145 124.846 143.388  0.00  0.00    +0.000 C 
ATOM      8  C   UNL     1     105.954 124.633 144.380  0.00  0.00    +0.000 C 
ATOM      9  C   UNL     1     105.587 125.369 145.004  0.00  0.00    +0.000 C 
ATOM     10  O   UNL     1     105.411 126.318 144.637  0.00  0.00    +0.000 OA
ENDROOT
BRANCH   9  11
ATOM     11  C   UNL     1     105.395 125.159 145.997  0.00  0.00    +0.000 A 
ATOM     12  C   UNL     1     104.419 124.973 146.310  0.00  0.00    +0.000 A 
ATOM     13  C   UNL     1     104.226 124.762 147.310  0.00  0.00    +0.000 A 
ATOM     14  C   UNL     1     105.007 124.736 147.998  0.00  0.00    +0.000 A 
ATOM     15  C   UNL     1     105.981 124.922 147.685  0.00  0.00    +0.000 A 
ATOM     16  C   UNL     1     106.176 125.134 146.685  0.00  0.00    +0.000 A 
BRANCH  15  17
ATOM     17  O   UNL     1     106.755 124.897 148.367  0.00  0.00    +0.000 OA
ATOM     18  C   UNL     1     107.510 124.989 148.119  0.00  0.00    +0.000 C 
ENDBRANCH  15  17
BRANCH  14  19
ATOM     19  O   UNL     1     104.814 124.527 148.990  0.00  0.00    +0.000 OA
ATOM     20  C   UNL     1     103.936 124.633 149.335  0.00  0.00    +0.000 C 
ENDBRANCH  14  19
ENDBRANCH   9  11
BRANCH   1  21
ATOM     21  O   UNL     1     105.444 128.639 141.915  0.00  0.00    +0.000 OA
ATOM     22  C   UNL     1     104.492 128.949 141.743  0.00  0.00    +0.000 C 
ENDBRANCH   1  21
BRANCH   3  23
ATOM     23  O   UNL     1     106.521 125.286 141.412  0.00  0.00    +0.000 OA
BRANCH  23  27
ATOM     24  C   UNL     1     104.423 123.597 138.733  0.00  0.00    +0.000 C 
ATOM     25  C   UNL     1     104.328 124.582 139.116  0.00  0.00    +0.000 C 
ATOM     26  C   UNL     1     105.039 124.677 139.797  0.00  0.00    +0.000 C 
ATOM     27  C   UNL     1     105.544 125.053 140.427  0.00  0.00    +0.000 C 
ATOM     28  O   UNL     1     105.529 124.232 140.024  0.00  0.00    +0.000 OA
ATOM     29  C   UNL     1     104.847 124.242 139.418  0.00  0.00    +0.000 C 
ATOM     30  O   UNL     1     103.769 123.409 138.058  0.00  0.00    +0.000 OA
ATOM     31  O   UNL     1     103.705 124.108 138.333  0.00  0.00    +0.000 OA
ATOM     32  O   UNL     1     104.870 125.545 140.058  0.00  0.00    +0.000 OA
BRANCH  29  33
ATOM     33  C   UNL     1     105.002 123.488 139.198  0.00  0.00    +0.000 C 
ATOM     34  O   UNL     1     104.652 123.138 139.265  0.00  0.00    +0.000 OA
ENDBRANCH  29  33
ENDBRANCH  23  27
ENDBRANCH   3  23
TORSDOF 7
ENDMDL
MODEL 3
REMARK VINA RESULT:      -8.6      1.282      6.892
REMARK  Name = 
REMARK  7 active torsions:
REMARK  status: ('A' for Active; 'I' for Inactive)
REMARK    1  A    between atoms: C_1  and  O_27
REMARK    2  A    between atoms: C_3  and  O_26
REMARK    3  A    between atoms: C_9  and  C_11
REMARK    4  A    between atoms: C_14  and  O_29
REMARK    5  A    between atoms: C_15  and  O_28
REMARK    6  A    between atoms: C_20  and  O_26
REMARK    7  A    between atoms: C_22  and  C_30
REMARK                            x       y       z     vdW  Elec       q    Type
REMARK                         _______ _______ _______ _____ _____    ______ ____
ROOT
ATOM      1  C   UNL     1     105.836 125.191 141.855  0.00  0.00    +0.000 A 
ATOM      2  C   UNL     1     105.885 126.207 141.681  0.00  0.00    +0.000 A 
ATOM      3  C   UNL     1     106.008 126.861 142.470  0.00  0.00    +0.000 A 
ATOM      4  C   UNL     1     106.082 126.503 143.435  0.00  0.00    +0.000 A 
ATOM      5  C   UNL     1     106.032 125.483 143.608  0.00  0.00    +0.000 A 
ATOM      6  C   UNL     1     105.910 124.829 142.819  0.00  0.00    +0.000 A 
ATOM      7  C   UNL     1     106.204 127.153 144.223  0.00  0.00    +0.000 C 
ATOM      8  C   UNL     1     106.278 126.791 145.187  0.00  0.00    +0.000 C 
ATOM      9  C   UNL     1     106.229 125.775 145.361  0.00  0.00    +0.000 C 
ATOM     10  O   UNL     1     106.106 125.120 144.572  0.00  0.00    +0.000 OA
ENDROOT
BRANCH   9  11
ATOM     11  C   UNL     1     106.302 125.410 146.324  0.00  0.00    +0.000 A 
ATOM     12  C   UNL     1     107.231 125.365 146.794  0.00  0.00    +0.000 A 
ATOM     13  C   UNL     1     107.305 124.997 147.765  0.00  0.00    +0.000 A 
ATOM     14  C   UNL     1     106.451 124.674 148.266  0.00  0.00    +0.000 A 
ATOM     15  C   UNL     1     105.524 124.718 147.796  0.00  0.00    +0.000 A 
ATOM     16  C   UNL     1     105.449 125.086 146.825  0.00  0.00    +0.000 A 
BRANCH  15  17
ATOM     17  O   UNL     1     104.678 124.398 148.293  0.00  0.00    +0.000 OA
ATOM     18  C   UNL     1     103.959 124.672 148.077  0.00  0.00    +0.000 C 
ENDBRANCH  15  17
BRANCH  14  19
ATOM     19  O   UNL     1     106.526 124.309 149.229  0.00  0.00    +0.000 OA
ATOM     20  C   UNL     1     107.380 124.150 149.611  0.00  0.00    +0.000 C 
ENDBRANCH  14  19
ENDBRANCH   9  11
BRANCH   1  21
ATOM     21  O   UNL     1     105.713 124.539 141.064  0.00  0.00    +0.000 OA
ATOM     22  C   UNL     1     106.273 124.649 140.224  0.00  0.00    +0.000 C 
ENDBRANCH   1  21
BRANCH   3  23
ATOM     23  O   UNL     1     106.055 127.860 142.295  0.00  0.00    +0.000 OA
BRANCH  23  27
ATOM     24  C   UNL     1     102.928 129.778 141.310  0.00  0.00    +0.000 C 
ATOM     25  C   UNL     1     103.283 128.859 140.918  0.00  0.00    +0.000 C 
ATOM     26  C   UNL     1     104.120 128.660 141.408  0.00  0.00    +0.000 C 
ATOM     27  C   UNL     1     104.858 128.228 141.655  0.00  0.00    +0.000 C 
ATOM     28  O   UNL     1     104.457 129.009 141.913  0.00  0.00    +0.000 OA
ATOM     29  C   UNL     1     103.702 129.103 141.410  0.00  0.00    +0.000 C 
ATOM     30  O   UNL     1     102.112 130.055 140.893  0.00  0.00    +0.000 OA
ATOM     31  O   UNL     1     102.367 129.402 140.617  0.00  0.00    +0.000 OA
ATOM     32  O   UNL     1     104.338 127.864 141.000  0.00  0.00    +0.000 OA
BRANCH  29  33
ATOM     33  C   UNL     1     103.521 129.794 141.770  0.00  0.00    +0.000 C 
ATOM     34  O   UNL     1     103.063 129.859 141.958  0.00  0.00    +0.000 OA
ENDBRANCH  29  33
ENDBRANCH  23  27
ENDBRANCH   3  23
TORSDOF 7
ENDMDL
MODEL 4
REMARK VINA RESULT:      -8.5      1.705      4.499
REMARK  Name = 
REMARK  7 active torsions:
REMARK  status: ('A' for Active; 'I' for Inactive)
REMARK    1  A    between atoms: C_1  and  O_27
REMARK    2  A    between atoms: C_3  and  O_26
REMARK    3  A    between atoms: C_9  and  C_11
REMARK    4  A    between atoms: C_14  and  O_29
REMARK    5  A    between atoms: C_15  and  O_28
REMARK    6  A    between atoms: C_20  and  O_26
REMARK    7  A    between atoms: C_22  and  C_30
REMARK                            x       y       z     vdW  Elec       q    Type
REMARK                         _______ _______ _______ _____ _____    ______ ____
ROOT
ATOM      1  C   UNL     1     106.294 126.299 143.991  0.00  0.00    +0.000 A 
ATOM      2  C   UNL     1     106.550 126.135 143.004  0.00  0.00    +0.000 A 
ATOM      3  C   UNL     1     106.204 126.771 142.268  0.00  0.00    +0.000 A 
ATOM      4  C   UNL     1     105.602 127.572 142.514  0.00  0.00    +0.000 A 
ATOM      5  C   UNL     1     105.345 127.735 143.504  0.00  0.00    +0.000 A 
ATOM      6  C   UNL     1     105.691 127.099 144.240  0.00  0.00    +0.000 A 
ATOM      7  C   UNL     1     105.256 128.206 141.782  0.00  0.00    +0.000 C 
ATOM      8  C   UNL     1     104.653 129.006 142.032  0.00  0.00    +0.000 C 
ATOM      9  C   UNL     1     104.397 129.171 143.018  0.00  0.00    +0.000 C 
ATOM     10  O   UNL     1     104.743 128.535 143.755  0.00  0.00    +0.000 OA
ENDROOT
BRANCH   9  11
ATOM     11  C   UNL     1     103.794 129.970 143.271  0.00  0.00    +0.000 A 
ATOM     12  C   UNL     1     103.901 130.428 144.201  0.00  0.00    +0.000 A 
ATOM     13  C   UNL     1     103.294 131.234 144.456  0.00  0.00    +0.000 A 
ATOM     14  C   UNL     1     102.580 131.582 143.783  0.00  0.00    +0.000 A 
ATOM     15  C   UNL     1     102.474 131.125 142.854  0.00  0.00    +0.000 A 
ATOM     16  C   UNL     1     103.081 130.318 142.598  0.00  0.00    +0.000 A 
BRANCH  15  17
ATOM     17  O   UNL     1     101.766 131.470 142.187  0.00  0.00    +0.000 OA
ATOM     18  C   UNL     1     101.741 131.177 141.444  0.00  0.00    +0.000 C 
ENDBRANCH  15  17
BRANCH  14  19
ATOM     19  O   UNL     1     101.978 132.382 144.036  0.00  0.00    +0.000 OA
ATOM     20  C   UNL     1     101.903 132.649 144.944  0.00  0.00    +0.000 C 
ENDBRANCH  14  19
ENDBRANCH   9  11
BRANCH   1  21
ATOM     21  O   UNL     1     106.641 125.663 144.725  0.00  0.00    +0.000 OA
ATOM     22  C   UNL     1     106.000 125.026 145.189  0.00  0.00    +0.000 C 
ENDBRANCH   1  21
BRANCH   3  23
ATOM     23  O   UNL     1     106.458 126.606 141.300  0.00  0.00    +0.000 OA
BRANCH  23  27
ATOM     24  C   UNL     1     104.850 123.910 139.161  0.00  0.00    +0.000 C 
ATOM     25  C   UNL     1     105.009 123.906 140.210  0.00  0.00    +0.000 C 
ATOM     26  C   UNL     1     105.450 124.767 140.420  0.00  0.00    +0.000 C 
ATOM     27  C   UNL     1     105.830 125.412 140.901  0.00  0.00    +0.000 C 
ATOM     28  O   UNL     1     105.642 125.303 140.012  0.00  0.00    +0.000 OA
ATOM     29  C   UNL     1     105.241 124.488 139.920  0.00  0.00    +0.000 C 
ATOM     30  O   UNL     1     104.422 123.107 138.859  0.00  0.00    +0.000 OA
ATOM     31  O   UNL     1     104.537 123.109 139.604  0.00  0.00    +0.000 OA
ATOM     32  O   UNL     1     105.539 124.662 141.331  0.00  0.00    +0.000 OA
BRANCH  29  33
ATOM     33  C   UNL     1     105.168 124.589 139.130  0.00  0.00    +0.000 C 
ATOM     34  O   UNL     1     104.713 124.646 138.932  0.00  0.00    +0.000 OA
ENDBRANCH  29  33
ENDBRANCH  23  27
ENDBRANCH   3  23
TORSDOF 7
ENDMDL
MODEL 5
REMARK VINA RESULT:      -8.3      2.894      4.992
REMARK  Name = 
REMARK  7 active torsions:
REMARK  status: ('A' for Active; 'I' for Inactive)
REMARK    1  A    between atoms: C_1  and  O_27
REMARK    2  A    between atoms: C_3  and  O_26
REMARK    3  A    between atoms: C_9  and  C_11
REMARK    4  A    between atoms: C_14  and  O_29
REMARK    5  A    between atoms: C_15  and  O_28
REMARK    6  A    between atoms: C_20  and  O_26
REMARK    7  A    between atoms: C_22  and  C_30
REMARK                            x       y       z     vdW  Elec       q    Type
REMARK                         _______ _______ _______ _____ _____    ______ ____
ROOT
ATOM      1  C   UNL     1     105.934 126.990 141.972  0.00  0.00    +0.000 A 
ATOM      2  C   UNL     1     106.327 126.303 142.635  0.00  0.00    +0.000 A 
ATOM      3  C   UNL     1     106.211 125.292 142.460  0.00  0.00    +0.000 A 
ATOM      4  C   UNL     1     105.703 124.964 141.624  0.00  0.00    +0.000 A 
ATOM      5  C   UNL     1     105.309 125.654 140.960  0.00  0.00    +0.000 A 
ATOM      6  C   UNL     1     105.425 126.665 141.134  0.00  0.00    +0.000 A 
ATOM      7  C   UNL     1     105.586 123.957 141.448  0.00  0.00    +0.000 C 
ATOM      8  C   UNL     1     105.078 123.633 140.611  0.00  0.00    +0.000 C 
ATOM      9  C   UNL     1     104.685 124.319 139.948  0.00  0.00    +0.000 C 
ATOM     10  O   UNL     1     104.800 125.331 140.122  0.00  0.00    +0.000 OA
ENDROOT
BRANCH   9  11
ATOM     11  C   UNL     1     104.176 123.997 139.109  0.00  0.00    +0.000 A 
ATOM     12  C   UNL     1     104.688 123.849 138.214  0.00  0.00    +0.000 A 
ATOM     13  C   UNL     1     104.175 123.525 137.369  0.00  0.00    +0.000 A 
ATOM     14  C   UNL     1     103.150 123.349 137.417  0.00  0.00    +0.000 A 
ATOM     15  C   UNL     1     102.638 123.497 138.311  0.00  0.00    +0.000 A 
ATOM     16  C   UNL     1     103.151 123.822 139.157  0.00  0.00    +0.000 A 
BRANCH  15  17
ATOM     17  O   UNL     1     101.622 123.323 138.358  0.00  0.00    +0.000 OA
ATOM     18  C   UNL     1     101.306 122.976 139.005  0.00  0.00    +0.000 C 
ENDBRANCH  15  17
BRANCH  14  19
ATOM     19  O   UNL     1     102.642 123.027 136.578  0.00  0.00    +0.000 OA
ATOM     20  C   UNL     1     103.122 122.792 135.794  0.00  0.00    +0.000 C 
ENDBRANCH  14  19
ENDBRANCH   9  11
BRANCH   1  21
ATOM     21  O   UNL     1     106.051 128.000 142.148  0.00  0.00    +0.000 OA
ATOM     22  C   UNL     1     106.830 128.501 141.733  0.00  0.00    +0.000 C 
ENDBRANCH   1  21
BRANCH   3  23
ATOM     23  O   UNL     1     106.599 124.620 143.114  0.00  0.00    +0.000 OA
BRANCH  23  27
ATOM     24  C   UNL     1     105.848 124.846 146.831  0.00  0.00    +0.000 C 
ATOM     25  C   UNL     1     105.177 124.970 146.019  0.00  0.00    +0.000 C 
ATOM     26  C   UNL     1     105.718 124.842 145.199  0.00  0.00    +0.000 C 
ATOM     27  C   UNL     1     105.917 124.785 144.334  0.00  0.00    +0.000 C 
ATOM     28  O   UNL     1     106.397 124.699 145.108  0.00  0.00    +0.000 OA
ATOM     29  C   UNL     1     105.818 124.833 145.800  0.00  0.00    +0.000 C 
ATOM     30  O   UNL     1     105.411 124.952 147.677  0.00  0.00    +0.000 OA
ATOM     31  O   UNL     1     104.938 125.040 147.097  0.00  0.00    +0.000 OA
ATOM     32  O   UNL     1     105.055 124.968 144.571  0.00  0.00    +0.000 OA
BRANCH  29  33
ATOM     33  C   UNL     1     106.400 124.722 146.338  0.00  0.00    +0.000 C 
ATOM     34  O   UNL     1     106.316 124.841 146.815  0.00  0.00    +0.000 OA
ENDBRANCH  29  33
ENDBRANCH  23  27
ENDBRANCH   3  23
TORSDOF 7
ENDMDL
MODEL 6
REMARK VINA RESULT:      -8.3      6.997      9.452
REMARK  Name = 
REMARK  7 active torsions:
REMARK  status: ('A' for Active; 'I' for Inactive)
REMARK    1  A    between atoms: C_1  and  O_27
REMARK    2  A    between atoms: C_3  and  O_26
REMARK    3  A    between atoms: C_9  and  C_11
REMARK    4  A    between atoms: C_14  and  O_29
REMARK    5  A    between atoms: C_15  and  O_28
REMARK    6  A    between atoms: C_20  and  O_26
REMARK    7  A    between atoms: C_22  and  C_30
REMARK                            x       y       z     vdW  Elec       q    Type
REMARK                         _______ _______ _______ _____ _____    ______ ____
ROOT
ATOM      1  C   UNL     1     111.578 128.736 142.619  0.00  0.00    +0.000 A 
ATOM      2  C   UNL     1     111.678 129.330 141.781  0.00  0.00    +0.000 A 
ATOM      3  C   UNL     1     111.790 130.352 141.884  0.00  0.00    +0.000 A 
ATOM      4  C   UNL     1     111.804 130.782 142.821  0.00  0.00    +0.000 A 
ATOM      5  C   UNL     1     111.703 130.183 143.661  0.00  0.00    +0.000 A 
ATOM      6  C   UNL     1     111.591 129.162 143.559  0.00  0.00    +0.000 A 
ATOM      7  C   UNL     1     111.916 131.799 142.926  0.00  0.00    +0.000 C 
ATOM      8  C   UNL     1     111.929 132.225 143.865  0.00  0.00    +0.000 C 
ATOM      9  C   UNL     1     111.829 131.631 144.703  0.00  0.00    +0.000 C 
ATOM     10  O   UNL     1     111.716 130.609 144.601  0.00  0.00    +0.000 OA
ENDROOT
BRANCH   9  11
ATOM     11  C   UNL     1     111.842 132.055 145.645  0.00  0.00    +0.000 A 
ATOM     12  C   UNL     1     112.678 131.942 146.255  0.00  0.00    +0.000 A 
ATOM     13  C   UNL     1     112.691 132.369 147.204  0.00  0.00    +0.000 A 
ATOM     14  C   UNL     1     111.868 132.909 147.543  0.00  0.00    +0.000 A 
ATOM     15  C   UNL     1     111.033 133.021 146.934  0.00  0.00    +0.000 A 
ATOM     16  C   UNL     1     111.019 132.595 145.984  0.00  0.00    +0.000 A 
BRANCH  15  17
ATOM     17  O   UNL     1     110.217 133.557 147.270  0.00  0.00    +0.000 OA
ATOM     18  C   UNL     1     109.505 133.462 146.921  0.00  0.00    +0.000 C 
ENDBRANCH  15  17
BRANCH  14  19
ATOM     19  O   UNL     1     111.882 133.332 148.484  0.00  0.00    +0.000 OA
ATOM     20  C   UNL     1     112.358 132.909 149.188  0.00  0.00    +0.000 C 
ENDBRANCH  14  19
ENDBRANCH   9  11
BRANCH   1  21
ATOM     21  O   UNL     1     111.465 127.715 142.514  0.00  0.00    +0.000 OA
ATOM     22  C   UNL     1     110.996 127.337 141.697  0.00  0.00    +0.000 C 
ENDBRANCH   1  21
BRANCH   3  23
ATOM     23  O   UNL     1     111.888 130.933 141.057  0.00  0.00    +0.000 OA
BRANCH  23  27
ATOM     24  C   UNL     1     109.112 131.710 138.584  0.00  0.00    +0.000 C 
ATOM     25  C   UNL     1     109.046 131.167 139.494  0.00  0.00    +0.000 C 
ATOM     26  C   UNL     1     109.960 131.164 139.873  0.00  0.00    +0.000 C 
ATOM     27  C   UNL     1     110.627 130.994 140.438  0.00  0.00    +0.000 C 
ATOM     28  O   UNL     1     110.561 131.440 139.642  0.00  0.00    +0.000 OA
ATOM     29  C   UNL     1     109.690 131.388 139.376  0.00  0.00    +0.000 C 
ATOM     30  O   UNL     1     108.266 131.768 138.139  0.00  0.00    +0.000 OA
ATOM     31  O   UNL     1     108.223 131.383 138.786  0.00  0.00    +0.000 OA
ATOM     32  O   UNL     1     109.794 130.680 140.639  0.00  0.00    +0.000 OA
BRANCH  29  33
ATOM     33  C   UNL     1     109.844 131.809 138.713  0.00  0.00    +0.000 C 
ATOM     34  O   UNL     1     109.642 132.262 138.659  0.00  0.00    +0.000 OA
ENDBRANCH  29  33
ENDBRANCH  23  27
ENDBRANCH   3  23
TORSDOF 7
ENDMDL
MODEL 7
REMARK VINA RESULT:      -8.2      2.935      4.339
REMARK  Name = 
REMARK  7 active torsions:
REMARK  status: ('A' for Active; 'I' for Inactive)
REMARK    1  A    between atoms: C_1  and  O_27
REMARK    2  A    between atoms: C_3  and  O_26
REMARK    3  A    between atoms: C_9  and  C_11
REMARK    4  A    between atoms: C_14  and  O_29
REMARK    5  A    between atoms: C_15  and  O_28
REMARK    6  A    between atoms: C_20  and  O_26
REMARK    7  A    between atoms: C_22  and  C_30
REMARK                            x       y       z     vdW  Elec       q    Type
REMARK                         _______ _______ _______ _____ _____    ______ ____
ROOT
ATOM      1  C   UNL     1     106.126 124.933 141.060  0.00  0.00    +0.000 A 
ATOM      2  C   UNL     1     107.010 125.184 141.530  0.00  0.00    +0.000 A 
ATOM      3  C   UNL     1     107.128 126.123 141.941  0.00  0.00    +0.000 A 
ATOM      4  C   UNL     1     106.365 126.815 141.884  0.00  0.00    +0.000 A 
ATOM      5  C   UNL     1     105.478 126.562 141.412  0.00  0.00    +0.000 A 
ATOM      6  C   UNL     1     105.360 125.622 141.001  0.00  0.00    +0.000 A 
ATOM      7  C   UNL     1     106.480 127.752 142.293  0.00  0.00    +0.000 C 
ATOM      8  C   UNL     1     105.714 128.441 142.234  0.00  0.00    +0.000 C 
ATOM      9  C   UNL     1     104.830 128.191 141.764  0.00  0.00    +0.000 C 
ATOM     10  O   UNL     1     104.711 127.251 141.352  0.00  0.00    +0.000 OA
ENDROOT
BRANCH   9  11
ATOM     11  C   UNL     1     104.061 128.878 141.703  0.00  0.00    +0.000 A 
ATOM     12  C   UNL     1     103.872 129.519 142.503  0.00  0.00    +0.000 A 
ATOM     13  C   UNL     1     103.098 130.211 142.442  0.00  0.00    +0.000 A 
ATOM     14  C   UNL     1     102.513 130.265 141.583  0.00  0.00    +0.000 A 
ATOM     15  C   UNL     1     102.702 129.625 140.784  0.00  0.00    +0.000 A 
ATOM     16  C   UNL     1     103.476 128.932 140.844  0.00  0.00    +0.000 A 
BRANCH  15  17
ATOM     17  O   UNL     1     102.122 129.678 139.933  0.00  0.00    +0.000 OA
ATOM     18  C   UNL     1     102.247 129.167 139.331  0.00  0.00    +0.000 C 
ENDBRANCH  15  17
BRANCH  14  19
ATOM     19  O   UNL     1     101.745 130.952 141.523  0.00  0.00    +0.000 OA
ATOM     20  C   UNL     1     101.662 131.629 142.184  0.00  0.00    +0.000 C 
ENDBRANCH  14  19
ENDBRANCH   9  11
BRANCH   1  21
ATOM     21  O   UNL     1     106.010 123.993 140.650  0.00  0.00    +0.000 OA
ATOM     22  C   UNL     1     105.187 123.441 140.871  0.00  0.00    +0.000 C 
ENDBRANCH   1  21
BRANCH   3  23
ATOM     23  O   UNL     1     107.999 126.366 142.402  0.00  0.00    +0.000 OA
BRANCH  23  27
ATOM     24  C   UNL     1     111.383 126.597 140.692  0.00  0.00    +0.000 C 
ATOM     25  C   UNL     1     110.428 126.484 140.243  0.00  0.00    +0.000 C 
ATOM     26  C   UNL     1     109.779 126.461 140.990  0.00  0.00    +0.000 C 
ATOM     27  C   UNL     1     108.997 126.410 141.412  0.00  0.00    +0.000 C 
ATOM     28  O   UNL     1     109.866 126.505 141.683  0.00  0.00    +0.000 OA
ATOM     29  C   UNL     1     110.383 126.515 140.931  0.00  0.00    +0.000 C 
ATOM     30  O   UNL     1     112.084 126.629 140.041  0.00  0.00    +0.000 OA
ATOM     31  O   UNL     1     111.405 126.550 139.726  0.00  0.00    +0.000 OA
ATOM     32  O   UNL     1     109.004 126.364 140.501  0.00  0.00    +0.000 OA
BRANCH  29  33
ATOM     33  C   UNL     1     111.050 126.600 141.364  0.00  0.00    +0.000 C 
ATOM     34  O   UNL     1     111.392 126.236 141.360  0.00  0.00    +0.000 OA
ENDBRANCH  29  33
ENDBRANCH  23  27
ENDBRANCH   3  23
TORSDOF 7
ENDMDL
MODEL 8
REMARK VINA RESULT:      -8.2      1.503      6.975
REMARK  Name = 
REMARK  7 active torsions:
REMARK  status: ('A' for Active; 'I' for Inactive)
REMARK    1  A    between atoms: C_1  and  O_27
REMARK    2  A    between atoms: C_3  and  O_26
REMARK    3  A    between atoms: C_9  and  C_11
REMARK    4  A    between atoms: C_14  and  O_29
REMARK    5  A    between atoms: C_15  and  O_28
REMARK    6  A    between atoms: C_20  and  O_26
REMARK    7  A    between atoms: C_22  and  C_30
REMARK                            x       y       z     vdW  Elec       q    Type
REMARK                         _______ _______ _______ _____ _____    ______ ____
ROOT
ATOM      1  C   UNL     1     107.395 127.817 142.010  0.00  0.00    +0.000 A 
ATOM      2  C   UNL     1     106.706 128.585 142.007  0.00  0.00    +0.000 A 
ATOM      3  C   UNL     1     106.083 128.722 142.819  0.00  0.00    +0.000 A 
ATOM      4  C   UNL     1     106.146 128.094 143.635  0.00  0.00    +0.000 A 
ATOM      5  C   UNL     1     106.838 127.323 143.635  0.00  0.00    +0.000 A 
ATOM      6  C   UNL     1     107.461 127.186 142.824  0.00  0.00    +0.000 A 
ATOM      7  C   UNL     1     105.526 128.229 144.444  0.00  0.00    +0.000 C 
ATOM      8  C   UNL     1     105.592 127.598 145.258  0.00  0.00    +0.000 C 
ATOM      9  C   UNL     1     106.281 126.829 145.261  0.00  0.00    +0.000 C 
ATOM     10  O   UNL     1     106.905 126.691 144.449  0.00  0.00    +0.000 OA
ENDROOT
BRANCH   9  11
ATOM     11  C   UNL     1     106.349 126.197 146.074  0.00  0.00    +0.000 A 
ATOM     12  C   UNL     1     107.103 126.336 146.780  0.00  0.00    +0.000 A 
ATOM     13  C   UNL     1     107.172 125.698 147.599  0.00  0.00    +0.000 A 
ATOM     14  C   UNL     1     106.488 124.921 147.714  0.00  0.00    +0.000 A 
ATOM     15  C   UNL     1     105.735 124.783 147.009  0.00  0.00    +0.000 A 
ATOM     16  C   UNL     1     105.665 125.420 146.189  0.00  0.00    +0.000 A 
BRANCH  15  17
ATOM     17  O   UNL     1     105.058 124.013 147.123  0.00  0.00    +0.000 OA
ATOM     18  C   UNL     1     104.390 123.999 146.683  0.00  0.00    +0.000 C 
ENDBRANCH  15  17
BRANCH  14  19
ATOM     19  O   UNL     1     106.557 124.289 148.527  0.00  0.00    +0.000 OA
ATOM     20  C   UNL     1     107.309 124.338 149.104  0.00  0.00    +0.000 C 
ENDBRANCH  14  19
ENDBRANCH   9  11
BRANCH   1  21
ATOM     21  O   UNL     1     108.017 127.681 141.197  0.00  0.00    +0.000 OA
ATOM     22  C   UNL     1     108.989 127.425 141.340  0.00  0.00    +0.000 C 
ENDBRANCH   1  21
BRANCH   3  23
ATOM     23  O   UNL     1     105.407 129.479 142.813  0.00  0.00    +0.000 OA
BRANCH  23  27
ATOM     24  C   UNL     1     102.421 129.722 140.477  0.00  0.00    +0.000 C 
ATOM     25  C   UNL     1     103.089 128.908 140.604  0.00  0.00    +0.000 C 
ATOM     26  C   UNL     1     103.740 129.196 141.291  0.00  0.00    +0.000 C 
ATOM     27  C   UNL     1     104.435 129.162 141.846  0.00  0.00    +0.000 C 
ATOM     28  O   UNL     1     103.801 129.793 141.652  0.00  0.00    +0.000 OA
ATOM     29  C   UNL     1     103.253 129.437 141.015  0.00  0.00    +0.000 C 
ATOM     30  O   UNL     1     101.746 129.535 139.823  0.00  0.00    +0.000 OA
ATOM     31  O   UNL     1     102.223 128.959 139.916  0.00  0.00    +0.000 OA
ATOM     32  O   UNL     1     104.259 128.436 141.323  0.00  0.00    +0.000 OA
BRANCH  29  33
ATOM     33  C   UNL     1     102.809 130.102 140.995  0.00  0.00    +0.000 C 
ATOM     34  O   UNL     1     102.337 130.084 141.156  0.00  0.00    +0.000 OA
ENDBRANCH  29  33
ENDBRANCH  23  27
ENDBRANCH   3  23
TORSDOF 7
ENDMDL
MODEL 9
REMARK VINA RESULT:      -8.1      3.584      6.406
REMARK  Name = 
REMARK  7 active torsions:
REMARK  status: ('A' for Active; 'I' for Inactive)
REMARK    1  A    between atoms: C_1  and  O_27
REMARK    2  A    between atoms: C_3  and  O_26
REMARK    3  A    between atoms: C_9  and  C_11
REMARK    4  A    between atoms: C_14  and  O_29
REMARK    5  A    between atoms: C_15  and  O_28
REMARK    6  A    between atoms: C_20  and  O_26
REMARK    7  A    between atoms: C_22  and  C_30
REMARK                            x       y       z     vdW  Elec       q    Type
REMARK                         _______ _______ _______ _____ _____    ______ ____
ROOT
ATOM      1  C   UNL     1     105.785 124.352 141.307  0.00  0.00    +0.000 A 
ATOM      2  C   UNL     1     106.291 125.209 141.035  0.00  0.00    +0.000 A 
ATOM      3  C   UNL     1     106.555 125.903 141.753  0.00  0.00    +0.000 A 
ATOM      4  C   UNL     1     106.314 125.743 142.743  0.00  0.00    +0.000 A 
ATOM      5  C   UNL     1     105.806 124.882 143.015  0.00  0.00    +0.000 A 
ATOM      6  C   UNL     1     105.543 124.188 142.297  0.00  0.00    +0.000 A 
ATOM      7  C   UNL     1     106.576 126.433 143.460  0.00  0.00    +0.000 C 
ATOM      8  C   UNL     1     106.333 126.270 144.450  0.00  0.00    +0.000 C 
ATOM      9  C   UNL     1     105.827 125.413 144.722  0.00  0.00    +0.000 C 
ATOM     10  O   UNL     1     105.563 124.718 144.005  0.00  0.00    +0.000 OA
ENDROOT
BRANCH   9  11
ATOM     11  C   UNL     1     105.583 125.246 145.712  0.00  0.00    +0.000 A 
ATOM     12  C   UNL     1     104.583 125.210 146.002  0.00  0.00    +0.000 A 
ATOM     13  C   UNL     1     104.337 125.043 146.999  0.00  0.00    +0.000 A 
ATOM     14  C   UNL     1     105.090 124.911 147.706  0.00  0.00    +0.000 A 
ATOM     15  C   UNL     1     106.088 124.948 147.416  0.00  0.00    +0.000 A 
ATOM     16  C   UNL     1     106.335 125.115 146.419  0.00  0.00    +0.000 A 
BRANCH  15  17
ATOM     17  O   UNL     1     106.834 124.818 148.118  0.00  0.00    +0.000 OA
ATOM     18  C   UNL     1     107.587 125.022 147.944  0.00  0.00    +0.000 C 
ENDBRANCH  15  17
BRANCH  14  19
ATOM     19  O   UNL     1     104.845 124.745 148.695  0.00  0.00    +0.000 OA
ATOM     20  C   UNL     1     103.936 124.761 148.968  0.00  0.00    +0.000 C 
ENDBRANCH  14  19
ENDBRANCH   9  11
BRANCH   1  21
ATOM     21  O   UNL     1     105.523 123.659 140.588  0.00  0.00    +0.000 OA
ATOM     22  C   UNL     1     105.080 123.965 139.727  0.00  0.00    +0.000 C 
ENDBRANCH   1  21
BRANCH   3  23
ATOM     23  O   UNL     1     107.053 126.744 141.481  0.00  0.00    +0.000 OA
BRANCH  23  27
ATOM     24  C   UNL     1     110.842 126.770 141.214  0.00  0.00    +0.000 C 
ATOM     25  C   UNL     1     110.166 126.029 140.870  0.00  0.00    +0.000 C 
ATOM     26  C   UNL     1     109.262 126.354 141.110  0.00  0.00    +0.000 C 
ATOM     27  C   UNL     1     108.375 126.369 141.183  0.00  0.00    +0.000 C 
ATOM     28  O   UNL     1     109.048 126.936 141.435  0.00  0.00    +0.000 OA
ATOM     29  C   UNL     1     109.834 126.553 141.173  0.00  0.00    +0.000 C 
ATOM     30  O   UNL     1     111.752 126.541 141.025  0.00  0.00    +0.000 OA
ATOM     31  O   UNL     1     111.269 126.017 140.782  0.00  0.00    +0.000 OA
ATOM     32  O   UNL     1     108.766 125.654 140.774  0.00  0.00    +0.000 OA
BRANCH  29  33
ATOM     33  C   UNL     1     110.256 127.165 141.468  0.00  0.00    +0.000 C 
ATOM     34  O   UNL     1     110.463 127.123 141.920  0.00  0.00    +0.000 OA
ENDBRANCH  29  33
ENDBRANCH  23  27
ENDBRANCH   3  23
TORSDOF 7
ENDMDL
MODEL 10
REMARK VINA RESULT:      -8.1      7.824      9.980
REMARK  Name = 
REMARK  7 active torsions:
REMARK  status: ('A' for Active; 'I' for Inactive)
REMARK    1  A    between atoms: C_1  and  O_27
REMARK    2  A    between atoms: C_3  and  O_26
REMARK    3  A    between atoms: C_9  and  C_11
REMARK    4  A    between atoms: C_14  and  O_29
REMARK    5  A    between atoms: C_15  and  O_28
REMARK    6  A    between atoms: C_20  and  O_26
REMARK    7  A    between atoms: C_22  and  C_30
REMARK                            x       y       z     vdW  Elec       q    Type
REMARK                         _______ _______ _______ _____ _____    ______ ____
ROOT
ATOM      1  C   UNL     1     109.872 127.304 137.976  0.00  0.00    +0.000 A 
ATOM      2  C   UNL     1     110.378 126.410 138.074  0.00  0.00    +0.000 A 
ATOM      3  C   UNL     1     111.138 126.321 138.768  0.00  0.00    +0.000 A 
ATOM      4  C   UNL     1     111.394 127.122 139.364  0.00  0.00    +0.000 A 
ATOM      5  C   UNL     1     110.885 128.019 139.264  0.00  0.00    +0.000 A 
ATOM      6  C   UNL     1     110.125 128.108 138.571  0.00  0.00    +0.000 A 
ATOM      7  C   UNL     1     112.151 127.036 140.056  0.00  0.00    +0.000 C 
ATOM      8  C   UNL     1     112.404 127.840 140.651  0.00  0.00    +0.000 C 
ATOM      9  C   UNL     1     111.898 128.734 140.552  0.00  0.00    +0.000 C 
ATOM     10  O   UNL     1     111.138 128.824 139.859  0.00  0.00    +0.000 OA
ENDROOT
BRANCH   9  11
ATOM     11  C   UNL     1     112.149 129.541 141.146  0.00  0.00    +0.000 A 
ATOM     12  C   UNL     1     111.482 129.881 141.871  0.00  0.00    +0.000 A 
ATOM     13  C   UNL     1     111.735 130.694 142.469  0.00  0.00    +0.000 A 
ATOM     14  C   UNL     1     112.654 131.167 142.344  0.00  0.00    +0.000 A 
ATOM     15  C   UNL     1     113.319 130.828 141.620  0.00  0.00    +0.000 A 
ATOM     16  C   UNL     1     113.067 130.014 141.020  0.00  0.00    +0.000 A 
BRANCH  15  17
ATOM     17  O   UNL     1     114.230 131.297 141.495  0.00  0.00    +0.000 OA
ATOM     18  C   UNL     1     114.788 130.969 141.027  0.00  0.00    +0.000 C 
ENDBRANCH  15  17
BRANCH  14  19
ATOM     19  O   UNL     1     112.904 131.974 142.937  0.00  0.00    +0.000 OA
ATOM     20  C   UNL     1     112.297 132.283 143.598  0.00  0.00    +0.000 C 
ENDBRANCH  14  19
ENDBRANCH   9  11
BRANCH   1  21
ATOM     21  O   UNL     1     109.113 127.391 137.282  0.00  0.00    +0.000 OA
ATOM     22  C   UNL     1     109.335 127.554 136.305  0.00  0.00    +0.000 C 
ENDBRANCH   1  21
BRANCH   3  23
ATOM     23  O   UNL     1     111.634 125.440 138.862  0.00  0.00    +0.000 OA
BRANCH  23  27
ATOM     24  C   UNL     1     114.822 125.037 136.836  0.00  0.00    +0.000 C 
ATOM     25  C   UNL     1     113.836 125.202 136.480  0.00  0.00    +0.000 C 
ATOM     26  C   UNL     1     113.263 125.256 137.286  0.00  0.00    +0.000 C 
ATOM     27  C   UNL     1     112.529 125.348 137.781  0.00  0.00    +0.000 C 
ATOM     28  O   UNL     1     113.413 125.205 137.968  0.00  0.00    +0.000 OA
ATOM     29  C   UNL     1     113.855 125.171 137.170  0.00  0.00    +0.000 C 
ATOM     30  O   UNL     1     115.455 124.970 136.120  0.00  0.00    +0.000 OA
ATOM     31  O   UNL     1     114.753 125.087 135.872  0.00  0.00    +0.000 OA
ATOM     32  O   UNL     1     112.451 125.398 136.873  0.00  0.00    +0.000 OA
BRANCH  29  33
ATOM     33  C   UNL     1     114.555 125.048 137.537  0.00  0.00    +0.000 C 
ATOM     34  O   UNL     1     114.841 124.665 137.395  0.00  0.00    +0.000 OA
ENDBRANCH  29  33
ENDBRANCH  23  27
ENDBRANCH   3  23
TORSDOF 7
ENDMDL
