MODEL 1
REMARK VINA RESULT:     -10.0      0.000      0.000
REMARK  Name = 44259979
REMARK  4 active torsions:
REMARK  status: ('A' for Active; 'I' for Inactive)
REMARK    1  A    between atoms: O_2  and  C_18
REMARK    2  A    between atoms: O_2  and  C_20
REMARK    3  A    between atoms: C_17  and  C_19
REMARK    4  A    between atoms: C_21  and  C_25
REMARK                            x       y       z     vdW  Elec       q    Type
REMARK                         _______ _______ _______ _____ _____    ______ ____
ROOT
ATOM      1  O   UNL     1     105.658 124.437 147.810  0.00  0.00    +0.000 OA
ATOM      2  O   UNL     1     107.010 125.642 146.121  0.00  0.00    +0.000 OA
ATOM      3  O   UNL     1     108.163 125.620 146.988  0.00  0.00    +0.000 OA
ATOM      4  O   UNL     1     106.330 123.987 149.278  0.00  0.00    +0.000 OA
ATOM      5  O   UNL     1     107.944 124.356 149.612  0.00  0.00    +0.000 OA
ATOM      6  C   UNL     1     105.771 125.057 146.526  0.00  0.00    +0.000 A 
ATOM      7  C   UNL     1     105.320 124.656 147.089  0.00  0.00    +0.000 A 
ATOM      8  C   UNL     1     106.559 125.240 146.684  0.00  0.00    +0.000 A 
ATOM      9  C   UNL     1     106.897 125.022 147.405  0.00  0.00    +0.000 A 
ATOM     10  C   UNL     1     106.447 124.621 147.967  0.00  0.00    +0.000 A 
ATOM     11  C   UNL     1     107.720 125.219 147.557  0.00  0.00    +0.000 A 
ATOM     12  C   UNL     1     106.787 124.388 148.720  0.00  0.00    +0.000 A 
ATOM     13  C   UNL     1     108.078 124.994 148.305  0.00  0.00    +0.000 A 
ATOM     14  C   UNL     1     107.609 124.576 148.891  0.00  0.00    +0.000 A 
ENDROOT
BRANCH   7  17
ATOM     15  O   UNL     1     102.535 125.125 147.529  0.00  0.00    +0.000 OA
ATOM     16  O   UNL     1     102.164 123.926 146.459  0.00  0.00    +0.000 OA
ATOM     17  C   UNL     1     104.531 124.473 146.931  0.00  0.00    +0.000 A 
ATOM     18  C   UNL     1     103.927 124.890 147.309  0.00  0.00    +0.000 A 
ATOM     19  C   UNL     1     104.345 123.873 146.396  0.00  0.00    +0.000 A 
ATOM     20  C   UNL     1     103.139 124.707 147.151  0.00  0.00    +0.000 A 
ATOM     21  C   UNL     1     103.556 123.691 146.239  0.00  0.00    +0.000 A 
ATOM     22  C   UNL     1     102.953 124.108 146.616  0.00  0.00    +0.000 A 
ENDBRANCH   7  17
BRANCH   6  23
ATOM     23  O   UNL     1     105.432 125.276 145.806  0.00  0.00    +0.000 OA
BRANCH  23  32
ATOM     24  O   UNL     1     105.317 126.661 146.137  0.00  0.00    +0.000 OA
ATOM     25  O   UNL     1     105.644 127.257 143.758  0.00  0.00    +0.000 OA
ATOM     26  O   UNL     1     105.420 128.443 144.882  0.00  0.00    +0.000 OA
ATOM     27  O   UNL     1     105.651 125.673 144.220  0.00  0.00    +0.000 OA
ATOM     28  C   UNL     1     105.535 127.058 144.551  0.00  0.00    +0.000 C 
ATOM     29  C   UNL     1     105.423 127.651 145.113  0.00  0.00    +0.000 C 
ATOM     30  C   UNL     1     105.538 126.266 144.782  0.00  0.00    +0.000 C 
ATOM     31  C   UNL     1     105.314 127.452 145.907  0.00  0.00    +0.000 C 
ATOM     32  C   UNL     1     105.429 126.067 145.575  0.00  0.00    +0.000 C 
BRANCH  31  34
ATOM     33  O   UNL     1     104.522 128.048 146.936  0.00  0.00    +0.000 OA
ATOM     34  C   UNL     1     105.202 128.045 146.468  0.00  0.00    +0.000 C 
ENDBRANCH  31  34
ENDBRANCH  23  32
ENDBRANCH   6  23
TORSDOF 4
ENDMDL
MODEL 2
REMARK VINA RESULT:      -9.5      0.893      3.522
REMARK  Name = 44259979
REMARK  4 active torsions:
REMARK  status: ('A' for Active; 'I' for Inactive)
REMARK    1  A    between atoms: O_2  and  C_18
REMARK    2  A    between atoms: O_2  and  C_20
REMARK    3  A    between atoms: C_17  and  C_19
REMARK    4  A    between atoms: C_21  and  C_25
REMARK                            x       y       z     vdW  Elec       q    Type
REMARK                         _______ _______ _______ _____ _____    ______ ____
ROOT
ATOM      1  O   UNL     1     106.722 125.510 146.838  0.00  0.00    +0.000 OA
ATOM      2  O   UNL     1     104.767 124.781 148.171  0.00  0.00    +0.000 OA
ATOM      3  O   UNL     1     105.629 124.287 149.218  0.00  0.00    +0.000 OA
ATOM      4  O   UNL     1     108.280 125.276 147.410  0.00  0.00    +0.000 OA
ATOM      5  O   UNL     1     108.523 124.536 148.910  0.00  0.00    +0.000 OA
ATOM      6  C   UNL     1     105.306 125.385 146.994  0.00  0.00    +0.000 A 
ATOM      7  C   UNL     1     105.958 125.628 146.550  0.00  0.00    +0.000 A 
ATOM      8  C   UNL     1     105.419 125.024 147.727  0.00  0.00    +0.000 A 
ATOM      9  C   UNL     1     106.183 124.905 148.015  0.00  0.00    +0.000 A 
ATOM     10  C   UNL     1     106.833 125.148 147.572  0.00  0.00    +0.000 A 
ATOM     11  C   UNL     1     106.286 124.527 148.780  0.00  0.00    +0.000 A 
ATOM     12  C   UNL     1     107.634 125.030 147.861  0.00  0.00    +0.000 A 
ATOM     13  C   UNL     1     107.079 124.401 149.086  0.00  0.00    +0.000 A 
ATOM     14  C   UNL     1     107.758 124.654 148.624  0.00  0.00    +0.000 A 
ENDROOT
BRANCH   7  17
ATOM     15  O   UNL     1     106.140 125.551 143.698  0.00  0.00    +0.000 OA
ATOM     16  O   UNL     1     105.508 127.073 143.617  0.00  0.00    +0.000 OA
ATOM     17  C   UNL     1     105.845 125.990 145.817  0.00  0.00    +0.000 A 
ATOM     18  C   UNL     1     106.049 125.590 145.124  0.00  0.00    +0.000 A 
ATOM     19  C   UNL     1     105.529 126.751 145.776  0.00  0.00    +0.000 A 
ATOM     20  C   UNL     1     105.936 125.952 144.391  0.00  0.00    +0.000 A 
ATOM     21  C   UNL     1     105.417 127.112 145.043  0.00  0.00    +0.000 A 
ATOM     22  C   UNL     1     105.620 126.712 144.351  0.00  0.00    +0.000 A 
ENDBRANCH   7  17
BRANCH   6  23
ATOM     23  O   UNL     1     104.543 125.504 146.705  0.00  0.00    +0.000 OA
BRANCH  23  32
ATOM     24  O   UNL     1     104.303 124.165 146.269  0.00  0.00    +0.000 OA
ATOM     25  O   UNL     1     101.955 124.336 147.036  0.00  0.00    +0.000 OA
ATOM     26  O   UNL     1     102.498 122.940 146.344  0.00  0.00    +0.000 OA
ATOM     27  O   UNL     1     102.978 125.618 147.216  0.00  0.00    +0.000 OA
ATOM     28  C   UNL     1     102.738 124.279 146.780  0.00  0.00    +0.000 C 
ATOM     29  C   UNL     1     103.009 123.581 146.434  0.00  0.00    +0.000 C 
ATOM     30  C   UNL     1     103.250 124.920 146.870  0.00  0.00    +0.000 C 
ATOM     31  C   UNL     1     103.792 123.524 146.179  0.00  0.00    +0.000 C 
ATOM     32  C   UNL     1     104.032 124.863 146.615  0.00  0.00    +0.000 C 
BRANCH  31  34
ATOM     33  O   UNL     1     104.382 122.838 145.073  0.00  0.00    +0.000 OA
ATOM     34  C   UNL     1     104.063 122.826 145.834  0.00  0.00    +0.000 C 
ENDBRANCH  31  34
ENDBRANCH  23  32
ENDBRANCH   6  23
TORSDOF 4
ENDMDL
MODEL 3
REMARK VINA RESULT:      -9.4      1.368      3.836
REMARK  Name = 44259979
REMARK  4 active torsions:
REMARK  status: ('A' for Active; 'I' for Inactive)
REMARK    1  A    between atoms: O_2  and  C_18
REMARK    2  A    between atoms: O_2  and  C_20
REMARK    3  A    between atoms: C_17  and  C_19
REMARK    4  A    between atoms: C_21  and  C_25
REMARK                            x       y       z     vdW  Elec       q    Type
REMARK                         _______ _______ _______ _____ _____    ______ ____
ROOT
ATOM      1  O   UNL     1     102.696 124.691 147.145  0.00  0.00    +0.000 OA
ATOM      2  O   UNL     1     104.795 123.653 146.340  0.00  0.00    +0.000 OA
ATOM      3  O   UNL     1     104.056 122.743 145.499  0.00  0.00    +0.000 OA
ATOM      4  O   UNL     1     101.209 124.151 146.591  0.00  0.00    +0.000 OA
ATOM      5  O   UNL     1     101.138 122.886 145.472  0.00  0.00    +0.000 OA
ATOM      6  C   UNL     1     104.124 124.617 147.155  0.00  0.00    +0.000 A 
ATOM      7  C   UNL     1     103.424 124.963 147.423  0.00  0.00    +0.000 A 
ATOM      8  C   UNL     1     104.095 123.999 146.609  0.00  0.00    +0.000 A 
ATOM      9  C   UNL     1     103.367 123.727 146.331  0.00  0.00    +0.000 A 
ATOM     10  C   UNL     1     102.668 124.073 146.599  0.00  0.00    +0.000 A 
ATOM     11  C   UNL     1     103.351 123.083 145.762  0.00  0.00    +0.000 A 
ATOM     12  C   UNL     1     101.904 123.799 146.318  0.00  0.00    +0.000 A 
ATOM     13  C   UNL     1     102.596 122.796 145.469  0.00  0.00    +0.000 A 
ATOM     14  C   UNL     1     101.867 123.156 145.748  0.00  0.00    +0.000 A 
ENDROOT
BRANCH   7  17
ATOM     15  O   UNL     1     103.236 127.752 148.016  0.00  0.00    +0.000 OA
ATOM     16  O   UNL     1     103.539 127.435 149.606  0.00  0.00    +0.000 OA
ATOM     17  C   UNL     1     103.453 125.580 147.969  0.00  0.00    +0.000 A 
ATOM     18  C   UNL     1     103.330 126.357 147.719  0.00  0.00    +0.000 A 
ATOM     19  C   UNL     1     103.604 125.421 148.765  0.00  0.00    +0.000 A 
ATOM     20  C   UNL     1     103.359 126.975 148.266  0.00  0.00    +0.000 A 
ATOM     21  C   UNL     1     103.633 126.040 149.310  0.00  0.00    +0.000 A 
ATOM     22  C   UNL     1     103.510 126.816 149.061  0.00  0.00    +0.000 A 
ENDBRANCH   7  17
BRANCH   6  23
ATOM     23  O   UNL     1     104.851 124.888 147.433  0.00  0.00    +0.000 OA
BRANCH  23  32
ATOM     24  O   UNL     1     105.203 125.558 146.220  0.00  0.00    +0.000 OA
ATOM     25  O   UNL     1     107.595 125.102 146.662  0.00  0.00    +0.000 OA
ATOM     26  O   UNL     1     107.149 125.923 145.303  0.00  0.00    +0.000 OA
ATOM     27  O   UNL     1     106.446 124.584 147.727  0.00  0.00    +0.000 OA
ATOM     28  C   UNL     1     106.798 125.254 146.514  0.00  0.00    +0.000 C 
ATOM     29  C   UNL     1     106.574 125.665 145.835  0.00  0.00    +0.000 C 
ATOM     30  C   UNL     1     106.223 124.995 147.047  0.00  0.00    +0.000 C 
ATOM     31  C   UNL     1     105.777 125.817 145.688  0.00  0.00    +0.000 C 
ATOM     32  C   UNL     1     105.425 125.147 146.900  0.00  0.00    +0.000 C 
BRANCH  31  34
ATOM     33  O   UNL     1     104.904 126.735 145.027  0.00  0.00    +0.000 OA
ATOM     34  C   UNL     1     105.554 126.227 145.008  0.00  0.00    +0.000 C 
ENDBRANCH  31  34
ENDBRANCH  23  32
ENDBRANCH   6  23
TORSDOF 4
ENDMDL
MODEL 4
REMARK VINA RESULT:      -9.3      9.968     12.200
REMARK  Name = 44259979
REMARK  4 active torsions:
REMARK  status: ('A' for Active; 'I' for Inactive)
REMARK    1  A    between atoms: O_2  and  C_18
REMARK    2  A    between atoms: O_2  and  C_20
REMARK    3  A    between atoms: C_17  and  C_19
REMARK    4  A    between atoms: C_21  and  C_25
REMARK                            x       y       z     vdW  Elec       q    Type
REMARK                         _______ _______ _______ _____ _____    ______ ____
ROOT
ATOM      1  O   UNL     1     113.477 127.362 136.730  0.00  0.00    +0.000 OA
ATOM      2  O   UNL     1     112.069 128.205 138.584  0.00  0.00    +0.000 OA
ATOM      3  O   UNL     1     112.238 129.565 138.131  0.00  0.00    +0.000 OA
ATOM      4  O   UNL     1     114.146 128.421 135.616  0.00  0.00    +0.000 OA
ATOM      5  O   UNL     1     113.861 130.080 135.758  0.00  0.00    +0.000 OA
ATOM      6  C   UNL     1     112.681 127.115 137.892  0.00  0.00    +0.000 A 
ATOM      7  C   UNL     1     113.151 126.834 137.273  0.00  0.00    +0.000 A 
ATOM      8  C   UNL     1     112.539 127.924 137.965  0.00  0.00    +0.000 A 
ATOM      9  C   UNL     1     112.865 128.452 137.422  0.00  0.00    +0.000 A 
ATOM     10  C   UNL     1     113.333 128.171 136.804  0.00  0.00    +0.000 A 
ATOM     11  C   UNL     1     112.708 129.293 137.510  0.00  0.00    +0.000 A 
ATOM     12  C   UNL     1     113.679 128.710 136.231  0.00  0.00    +0.000 A 
ATOM     13  C   UNL     1     113.045 129.847 136.946  0.00  0.00    +0.000 A 
ATOM     14  C   UNL     1     113.533 129.554 136.303  0.00  0.00    +0.000 A 
ENDROOT
BRANCH   7  17
ATOM     15  O   UNL     1     114.911 124.598 137.538  0.00  0.00    +0.000 OA
ATOM     16  O   UNL     1     113.724 123.597 136.980  0.00  0.00    +0.000 OA
ATOM     17  C   UNL     1     113.293 126.025 137.200  0.00  0.00    +0.000 A 
ATOM     18  C   UNL     1     114.031 125.716 137.406  0.00  0.00    +0.000 A 
ATOM     19  C   UNL     1     112.700 125.524 136.921  0.00  0.00    +0.000 A 
ATOM     20  C   UNL     1     114.174 124.907 137.332  0.00  0.00    +0.000 A 
ATOM     21  C   UNL     1     112.844 124.715 136.848  0.00  0.00    +0.000 A 
ATOM     22  C   UNL     1     113.580 124.406 137.053  0.00  0.00    +0.000 A 
ENDBRANCH   7  17
BRANCH   6  23
ATOM     23  O   UNL     1     112.356 126.587 138.436  0.00  0.00    +0.000 OA
BRANCH  23  32
ATOM     24  O   UNL     1     113.256 126.951 139.484  0.00  0.00    +0.000 OA
ATOM     25  O   UNL     1     111.537 126.358 141.164  0.00  0.00    +0.000 OA
ATOM     26  O   UNL     1     113.009 126.919 141.652  0.00  0.00    +0.000 OA
ATOM     27  O   UNL     1     111.210 126.192 139.556  0.00  0.00    +0.000 OA
ATOM     28  C   UNL     1     112.110 126.556 140.604  0.00  0.00    +0.000 C 
ATOM     29  C   UNL     1     112.846 126.836 140.848  0.00  0.00    +0.000 C 
ATOM     30  C   UNL     1     111.946 126.473 139.799  0.00  0.00    +0.000 C 
ATOM     31  C   UNL     1     113.419 127.033 140.288  0.00  0.00    +0.000 C 
ATOM     32  C   UNL     1     112.519 126.670 139.239  0.00  0.00    +0.000 C 
BRANCH  31  34
ATOM     33  O   UNL     1     114.830 126.851 140.425  0.00  0.00    +0.000 OA
ATOM     34  C   UNL     1     114.155 127.314 140.533  0.00  0.00    +0.000 C 
ENDBRANCH  31  34
ENDBRANCH  23  32
ENDBRANCH   6  23
TORSDOF 4
ENDMDL
MODEL 5
REMARK VINA RESULT:      -9.3      9.864     11.883
REMARK  Name = 44259979
REMARK  4 active torsions:
REMARK  status: ('A' for Active; 'I' for Inactive)
REMARK    1  A    between atoms: O_2  and  C_18
REMARK    2  A    between atoms: O_2  and  C_20
REMARK    3  A    between atoms: C_17  and  C_19
REMARK    4  A    between atoms: C_21  and  C_25
REMARK                            x       y       z     vdW  Elec       q    Type
REMARK                         _______ _______ _______ _____ _____    ______ ____
ROOT
ATOM      1  O   UNL     1     112.881 126.057 138.596  0.00  0.00    +0.000 OA
ATOM      2  O   UNL     1     110.577 125.670 137.779  0.00  0.00    +0.000 OA
ATOM      3  O   UNL     1     110.025 126.126 139.031  0.00  0.00    +0.000 OA
ATOM      4  O   UNL     1     113.151 126.650 140.140  0.00  0.00    +0.000 OA
ATOM      5  O   UNL     1     111.840 126.989 141.151  0.00  0.00    +0.000 OA
ATOM      6  C   UNL     1     111.989 125.635 137.562  0.00  0.00    +0.000 A 
ATOM      7  C   UNL     1     112.757 125.764 137.835  0.00  0.00    +0.000 A 
ATOM      8  C   UNL     1     111.345 125.799 138.052  0.00  0.00    +0.000 A 
ATOM      9  C   UNL     1     111.469 126.092 138.813  0.00  0.00    +0.000 A 
ATOM     10  C   UNL     1     112.237 126.220 139.085  0.00  0.00    +0.000 A 
ATOM     11  C   UNL     1     110.790 126.258 139.312  0.00  0.00    +0.000 A 
ATOM     12  C   UNL     1     112.380 126.524 139.876  0.00  0.00    +0.000 A 
ATOM     13  C   UNL     1     110.913 126.563 140.106  0.00  0.00    +0.000 A 
ATOM     14  C   UNL     1     111.713 126.697 140.390  0.00  0.00    +0.000 A 
ENDROOT
BRANCH   7  17
ATOM     15  O   UNL     1     114.842 126.670 136.103  0.00  0.00    +0.000 OA
ATOM     16  O   UNL     1     115.332 125.111 135.877  0.00  0.00    +0.000 OA
ATOM     17  C   UNL     1     113.401 125.600 137.346  0.00  0.00    +0.000 A 
ATOM     18  C   UNL     1     113.800 126.217 136.969  0.00  0.00    +0.000 A 
ATOM     19  C   UNL     1     113.646 124.821 137.233  0.00  0.00    +0.000 A 
ATOM     20  C   UNL     1     114.443 126.053 136.480  0.00  0.00    +0.000 A 
ATOM     21  C   UNL     1     114.290 124.658 136.743  0.00  0.00    +0.000 A 
ATOM     22  C   UNL     1     114.688 125.274 136.367  0.00  0.00    +0.000 A 
ENDBRANCH   7  17
BRANCH   6  23
ATOM     23  O   UNL     1     111.865 125.343 136.801  0.00  0.00    +0.000 OA
BRANCH  23  32
ATOM     24  O   UNL     1     111.443 126.598 136.264  0.00  0.00    +0.000 OA
ATOM     25  O   UNL     1     109.994 125.418 134.642  0.00  0.00    +0.000 OA
ATOM     26  O   UNL     1     110.055 127.066 134.646  0.00  0.00    +0.000 OA
ATOM     27  O   UNL     1     110.899 124.556 135.719  0.00  0.00    +0.000 OA
ATOM     28  C   UNL     1     110.477 125.811 135.183  0.00  0.00    +0.000 C 
ATOM     29  C   UNL     1     110.508 126.635 135.185  0.00  0.00    +0.000 C 
ATOM     30  C   UNL     1     110.930 125.380 135.722  0.00  0.00    +0.000 C 
ATOM     31  C   UNL     1     110.991 127.029 135.726  0.00  0.00    +0.000 C 
ATOM     32  C   UNL     1     111.413 125.774 136.263  0.00  0.00    +0.000 C 
BRANCH  31  34
ATOM     33  O   UNL     1     111.727 128.241 135.548  0.00  0.00    +0.000 OA
ATOM     34  C   UNL     1     111.022 127.853 135.728  0.00  0.00    +0.000 C 
ENDBRANCH  31  34
ENDBRANCH  23  32
ENDBRANCH   6  23
TORSDOF 4
ENDMDL
MODEL 6
REMARK VINA RESULT:      -9.3     11.121     12.760
REMARK  Name = 44259979
REMARK  4 active torsions:
REMARK  status: ('A' for Active; 'I' for Inactive)
REMARK    1  A    between atoms: O_2  and  C_18
REMARK    2  A    between atoms: O_2  and  C_20
REMARK    3  A    between atoms: C_17  and  C_19
REMARK    4  A    between atoms: C_21  and  C_25
REMARK                            x       y       z     vdW  Elec       q    Type
REMARK                         _______ _______ _______ _____ _____    ______ ____
ROOT
ATOM      1  O   UNL     1     111.789 129.568 135.841  0.00  0.00    +0.000 OA
ATOM      2  O   UNL     1     112.313 130.878 137.876  0.00  0.00    +0.000 OA
ATOM      3  O   UNL     1     113.705 130.952 137.504  0.00  0.00    +0.000 OA
ATOM      4  O   UNL     1     112.994 129.176 134.744  0.00  0.00    +0.000 OA
ATOM      5  O   UNL     1     114.583 129.678 135.026  0.00  0.00    +0.000 OA
ATOM      6  C   UNL     1     111.364 130.194 137.054  0.00  0.00    +0.000 A 
ATOM      7  C   UNL     1     111.189 129.757 136.376  0.00  0.00    +0.000 A 
ATOM      8  C   UNL     1     112.138 130.441 137.197  0.00  0.00    +0.000 A 
ATOM      9  C   UNL     1     112.737 130.252 136.662  0.00  0.00    +0.000 A 
ATOM     10  C   UNL     1     112.562 129.816 135.985  0.00  0.00    +0.000 A 
ATOM     11  C   UNL     1     113.539 130.516 136.823  0.00  0.00    +0.000 A 
ATOM     12  C   UNL     1     113.177 129.613 135.420  0.00  0.00    +0.000 A 
ATOM     13  C   UNL     1     114.167 130.323 136.269  0.00  0.00    +0.000 A 
ATOM     14  C   UNL     1     113.985 129.868 135.563  0.00  0.00    +0.000 A 
ENDROOT
BRANCH   7  17
ATOM     15  O   UNL     1     108.725 130.036 134.955  0.00  0.00    +0.000 OA
ATOM     16  O   UNL     1     108.093 128.770 135.803  0.00  0.00    +0.000 OA
ATOM     17  C   UNL     1     110.416 129.510 136.233  0.00  0.00    +0.000 A 
ATOM     18  C   UNL     1     109.957 129.897 135.665  0.00  0.00    +0.000 A 
ATOM     19  C   UNL     1     110.100 128.877 136.657  0.00  0.00    +0.000 A 
ATOM     20  C   UNL     1     109.183 129.649 135.523  0.00  0.00    +0.000 A 
ATOM     21  C   UNL     1     109.325 128.630 136.513  0.00  0.00    +0.000 A 
ATOM     22  C   UNL     1     108.867 129.016 135.947  0.00  0.00    +0.000 A 
ENDBRANCH   7  17
BRANCH   6  23
ATOM     23  O   UNL     1     110.765 130.383 137.589  0.00  0.00    +0.000 OA
BRANCH  23  32
ATOM     24  O   UNL     1     110.668 131.751 137.190  0.00  0.00    +0.000 OA
ATOM     25  O   UNL     1     110.035 132.379 139.499  0.00  0.00    +0.000 OA
ATOM     26  O   UNL     1     110.149 133.538 138.331  0.00  0.00    +0.000 OA
ATOM     27  O   UNL     1     110.343 130.801 139.128  0.00  0.00    +0.000 OA
ATOM     28  C   UNL     1     110.246 132.170 138.729  0.00  0.00    +0.000 C 
ATOM     29  C   UNL     1     110.303 132.749 138.145  0.00  0.00    +0.000 C 
ATOM     30  C   UNL     1     110.400 131.380 138.544  0.00  0.00    +0.000 C 
ATOM     31  C   UNL     1     110.514 132.540 137.375  0.00  0.00    +0.000 C 
ATOM     32  C   UNL     1     110.611 131.171 137.774  0.00  0.00    +0.000 C 
BRANCH  31  34
ATOM     33  O   UNL     1     110.049 133.114 136.152  0.00  0.00    +0.000 OA
ATOM     34  C   UNL     1     110.571 133.119 136.791  0.00  0.00    +0.000 C 
ENDBRANCH  31  34
ENDBRANCH  23  32
ENDBRANCH   6  23
TORSDOF 4
ENDMDL
MODEL 7
REMARK VINA RESULT:      -9.2     11.867     13.094
REMARK  Name = 44259979
REMARK  4 active torsions:
REMARK  status: ('A' for Active; 'I' for Inactive)
REMARK    1  A    between atoms: O_2  and  C_18
REMARK    2  A    between atoms: O_2  and  C_20
REMARK    3  A    between atoms: C_17  and  C_19
REMARK    4  A    between atoms: C_21  and  C_25
REMARK                            x       y       z     vdW  Elec       q    Type
REMARK                         _______ _______ _______ _____ _____    ______ ____
ROOT
ATOM      1  O   UNL     1     111.884 125.883 136.180  0.00  0.00    +0.000 OA
ATOM      2  O   UNL     1     111.373 128.229 136.785  0.00  0.00    +0.000 OA
ATOM      3  O   UNL     1     110.144 128.185 136.030  0.00  0.00    +0.000 OA
ATOM      4  O   UNL     1     110.838 125.004 135.210  0.00  0.00    +0.000 OA
ATOM      5  O   UNL     1     109.419 125.722 134.638  0.00  0.00    +0.000 OA
ATOM      6  C   UNL     1     112.234 127.091 136.860  0.00  0.00    +0.000 A 
ATOM      7  C   UNL     1     112.405 126.309 136.658  0.00  0.00    +0.000 A 
ATOM      8  C   UNL     1     111.543 127.446 136.583  0.00  0.00    +0.000 A 
ATOM      9  C   UNL     1     111.023 127.021 136.105  0.00  0.00    +0.000 A 
ATOM     10  C   UNL     1     111.193 126.240 135.904  0.00  0.00    +0.000 A 
ATOM     11  C   UNL     1     110.306 127.403 135.824  0.00  0.00    +0.000 A 
ATOM     12  C   UNL     1     110.660 125.785 135.407  0.00  0.00    +0.000 A 
ATOM     13  C   UNL     1     109.761 126.964 135.326  0.00  0.00    +0.000 A 
ATOM     14  C   UNL     1     109.938 126.150 135.116  0.00  0.00    +0.000 A 
ENDROOT
BRANCH   7  17
ATOM     15  O   UNL     1     115.044 125.324 136.177  0.00  0.00    +0.000 OA
ATOM     16  O   UNL     1     115.171 124.888 137.763  0.00  0.00    +0.000 OA
ATOM     17  C   UNL     1     113.096 125.954 136.935  0.00  0.00    +0.000 A 
ATOM     18  C   UNL     1     113.725 125.817 136.418  0.00  0.00    +0.000 A 
ATOM     19  C   UNL     1     113.159 125.735 137.728  0.00  0.00    +0.000 A 
ATOM     20  C   UNL     1     114.416 125.461 136.695  0.00  0.00    +0.000 A 
ATOM     21  C   UNL     1     113.851 125.380 138.004  0.00  0.00    +0.000 A 
ATOM     22  C   UNL     1     114.479 125.243 137.488  0.00  0.00    +0.000 A 
ENDBRANCH   7  17
BRANCH   6  23
ATOM     23  O   UNL     1     112.755 127.517 137.338  0.00  0.00    +0.000 OA
BRANCH  23  32
ATOM     24  O   UNL     1     113.293 128.311 136.279  0.00  0.00    +0.000 OA
ATOM     25  O   UNL     1     113.581 130.206 137.846  0.00  0.00    +0.000 OA
ATOM     26  O   UNL     1     114.023 130.368 136.265  0.00  0.00    +0.000 OA
ATOM     27  O   UNL     1     112.946 128.780 138.382  0.00  0.00    +0.000 OA
ATOM     28  C   UNL     1     113.485 129.574 137.323  0.00  0.00    +0.000 C 
ATOM     29  C   UNL     1     113.706 129.655 136.533  0.00  0.00    +0.000 C 
ATOM     30  C   UNL     1     113.167 128.861 137.592  0.00  0.00    +0.000 C 
ATOM     31  C   UNL     1     113.610 129.024 136.011  0.00  0.00    +0.000 C 
ATOM     32  C   UNL     1     113.072 128.229 137.070  0.00  0.00    +0.000 C 
BRANCH  31  34
ATOM     33  O   UNL     1     114.466 128.671 134.922  0.00  0.00    +0.000 OA
ATOM     34  C   UNL     1     113.831 129.105 135.221  0.00  0.00    +0.000 C 
ENDBRANCH  31  34
ENDBRANCH  23  32
ENDBRANCH   6  23
TORSDOF 4
ENDMDL
MODEL 8
REMARK VINA RESULT:      -9.2     10.619     12.063
REMARK  Name = 44259979
REMARK  4 active torsions:
REMARK  status: ('A' for Active; 'I' for Inactive)
REMARK    1  A    between atoms: O_2  and  C_18
REMARK    2  A    between atoms: O_2  and  C_20
REMARK    3  A    between atoms: C_17  and  C_19
REMARK    4  A    between atoms: C_21  and  C_25
REMARK                            x       y       z     vdW  Elec       q    Type
REMARK                         _______ _______ _______ _____ _____    ______ ____
ROOT
ATOM      1  O   UNL     1     111.503 125.430 136.525  0.00  0.00    +0.000 OA
ATOM      2  O   UNL     1     113.349 127.050 136.217  0.00  0.00    +0.000 OA
ATOM      3  O   UNL     1     114.328 126.038 136.535  0.00  0.00    +0.000 OA
ATOM      4  O   UNL     1     111.824 123.841 136.952  0.00  0.00    +0.000 OA
ATOM      5  O   UNL     1     113.421 123.337 137.176  0.00  0.00    +0.000 OA
ATOM      6  C   UNL     1     111.952 126.750 136.212  0.00  0.00    +0.000 A 
ATOM      7  C   UNL     1     111.336 126.210 136.315  0.00  0.00    +0.000 A 
ATOM      8  C   UNL     1     112.734 126.509 136.320  0.00  0.00    +0.000 A 
ATOM      9  C   UNL     1     112.900 125.729 136.530  0.00  0.00    +0.000 A 
ATOM     10  C   UNL     1     112.285 125.190 136.633  0.00  0.00    +0.000 A 
ATOM     11  C   UNL     1     113.719 125.491 136.639  0.00  0.00    +0.000 A 
ATOM     12  C   UNL     1     112.445 124.375 136.852  0.00  0.00    +0.000 A 
ATOM     13  C   UNL     1     113.898 124.680 136.858  0.00  0.00    +0.000 A 
ATOM     14  C   UNL     1     113.257 124.118 136.965  0.00  0.00    +0.000 A 
ENDROOT
BRANCH   7  17
ATOM     15  O   UNL     1     108.793 126.918 137.408  0.00  0.00    +0.000 OA
ATOM     16  O   UNL     1     108.209 127.174 135.886  0.00  0.00    +0.000 OA
ATOM     17  C   UNL     1     110.555 126.451 136.207  0.00  0.00    +0.000 A 
ATOM     18  C   UNL     1     110.065 126.564 136.862  0.00  0.00    +0.000 A 
ATOM     19  C   UNL     1     110.263 126.578 135.446  0.00  0.00    +0.000 A 
ATOM     20  C   UNL     1     109.283 126.805 136.754  0.00  0.00    +0.000 A 
ATOM     21  C   UNL     1     109.481 126.819 135.340  0.00  0.00    +0.000 A 
ATOM     22  C   UNL     1     108.991 126.933 135.993  0.00  0.00    +0.000 A 
ENDBRANCH   7  17
BRANCH   6  23
ATOM     23  O   UNL     1     111.786 127.530 136.002  0.00  0.00    +0.000 OA
BRANCH  23  32
ATOM     24  O   UNL     1     112.052 128.061 137.302  0.00  0.00    +0.000 OA
ATOM     25  O   UNL     1     112.792 130.191 136.280  0.00  0.00    +0.000 OA
ATOM     26  O   UNL     1     112.812 130.011 137.920  0.00  0.00    +0.000 OA
ATOM     27  O   UNL     1     112.279 128.950 135.321  0.00  0.00    +0.000 OA
ATOM     28  C   UNL     1     112.545 129.481 136.621  0.00  0.00    +0.000 C 
ATOM     29  C   UNL     1     112.555 129.391 137.441  0.00  0.00    +0.000 C 
ATOM     30  C   UNL     1     112.289 128.860 136.141  0.00  0.00    +0.000 C 
ATOM     31  C   UNL     1     112.309 128.681 137.781  0.00  0.00    +0.000 C 
ATOM     32  C   UNL     1     112.042 128.150 136.481  0.00  0.00    +0.000 C 
BRANCH  31  34
ATOM     33  O   UNL     1     111.615 128.454 139.010  0.00  0.00    +0.000 OA
ATOM     34  C   UNL     1     112.318 128.591 138.600  0.00  0.00    +0.000 C 
ENDBRANCH  31  34
ENDBRANCH  23  32
ENDBRANCH   6  23
TORSDOF 4
ENDMDL
MODEL 9
REMARK VINA RESULT:      -9.1     10.159     12.322
REMARK  Name = 44259979
REMARK  4 active torsions:
REMARK  status: ('A' for Active; 'I' for Inactive)
REMARK    1  A    between atoms: O_2  and  C_18
REMARK    2  A    between atoms: O_2  and  C_20
REMARK    3  A    between atoms: C_17  and  C_19
REMARK    4  A    between atoms: C_21  and  C_25
REMARK                            x       y       z     vdW  Elec       q    Type
REMARK                         _______ _______ _______ _____ _____    ______ ____
ROOT
ATOM      1  O   UNL     1     113.097 128.291 138.347  0.00  0.00    +0.000 OA
ATOM      2  O   UNL     1     112.017 126.088 138.677  0.00  0.00    +0.000 OA
ATOM      3  O   UNL     1     112.258 126.151 140.098  0.00  0.00    +0.000 OA
ATOM      4  O   UNL     1     113.724 129.139 139.650  0.00  0.00    +0.000 OA
ATOM      5  O   UNL     1     113.618 128.486 141.205  0.00  0.00    +0.000 OA
ATOM      6  C   UNL     1     112.431 127.146 137.810  0.00  0.00    +0.000 A 
ATOM      7  C   UNL     1     112.792 127.881 137.700  0.00  0.00    +0.000 A 
ATOM      8  C   UNL     1     112.377 126.823 138.567  0.00  0.00    +0.000 A 
ATOM      9  C   UNL     1     112.683 127.234 139.214  0.00  0.00    +0.000 A 
ATOM     10  C   UNL     1     113.043 127.967 139.104  0.00  0.00    +0.000 A 
ATOM     11  C   UNL     1     112.620 126.886 139.997  0.00  0.00    +0.000 A 
ATOM     12  C   UNL     1     113.365 128.405 139.769  0.00  0.00    +0.000 A 
ATOM     13  C   UNL     1     112.936 127.309 140.674  0.00  0.00    +0.000 A 
ATOM     14  C   UNL     1     113.312 128.074 140.560  0.00  0.00    +0.000 A 
ENDROOT
BRANCH   7  17
ATOM     15  O   UNL     1     114.353 128.550 135.401  0.00  0.00    +0.000 OA
ATOM     16  O   UNL     1     113.011 129.172 134.671  0.00  0.00    +0.000 OA
ATOM     17  C   UNL     1     112.846 128.203 136.943  0.00  0.00    +0.000 A 
ATOM     18  C   UNL     1     113.572 128.215 136.550  0.00  0.00    +0.000 A 
ATOM     19  C   UNL     1     112.175 128.515 136.577  0.00  0.00    +0.000 A 
ATOM     20  C   UNL     1     113.626 128.538 135.793  0.00  0.00    +0.000 A 
ATOM     21  C   UNL     1     112.230 128.837 135.820  0.00  0.00    +0.000 A 
ATOM     22  C   UNL     1     112.955 128.849 135.428  0.00  0.00    +0.000 A 
ENDBRANCH   7  17
BRANCH   6  23
ATOM     23  O   UNL     1     112.125 126.735 137.163  0.00  0.00    +0.000 OA
BRANCH  23  32
ATOM     24  O   UNL     1     113.186 125.778 137.117  0.00  0.00    +0.000 OA
ATOM     25  O   UNL     1     111.615 124.080 136.236  0.00  0.00    +0.000 OA
ATOM     26  O   UNL     1     113.198 123.690 136.485  0.00  0.00    +0.000 OA
ATOM     27  O   UNL     1     111.078 125.603 136.575  0.00  0.00    +0.000 OA
ATOM     28  C   UNL     1     112.139 124.646 136.530  0.00  0.00    +0.000 C 
ATOM     29  C   UNL     1     112.930 124.452 136.654  0.00  0.00    +0.000 C 
ATOM     30  C   UNL     1     111.870 125.409 136.700  0.00  0.00    +0.000 C 
ATOM     31  C   UNL     1     113.454 125.018 136.948  0.00  0.00    +0.000 C 
ATOM     32  C   UNL     1     112.394 125.975 136.993  0.00  0.00    +0.000 C 
BRANCH  31  34
ATOM     33  O   UNL     1     114.839 125.219 136.659  0.00  0.00    +0.000 OA
ATOM     34  C   UNL     1     114.245 124.822 137.072  0.00  0.00    +0.000 C 
ENDBRANCH  31  34
ENDBRANCH  23  32
ENDBRANCH   6  23
TORSDOF 4
ENDMDL
MODEL 10
REMARK VINA RESULT:      -9.0      9.769     11.997
REMARK  Name = 44259979
REMARK  4 active torsions:
REMARK  status: ('A' for Active; 'I' for Inactive)
REMARK    1  A    between atoms: O_2  and  C_18
REMARK    2  A    between atoms: O_2  and  C_20
REMARK    3  A    between atoms: C_17  and  C_19
REMARK    4  A    between atoms: C_21  and  C_25
REMARK                            x       y       z     vdW  Elec       q    Type
REMARK                         _______ _______ _______ _____ _____    ______ ____
ROOT
ATOM      1  O   UNL     1     111.933 128.237 138.240  0.00  0.00    +0.000 OA
ATOM      2  O   UNL     1     113.717 127.259 136.829  0.00  0.00    +0.000 OA
ATOM      3  O   UNL     1     113.517 128.273 135.822  0.00  0.00    +0.000 OA
ATOM      4  O   UNL     1     111.097 129.600 137.736  0.00  0.00    +0.000 OA
ATOM      5  O   UNL     1     111.473 130.316 136.252  0.00  0.00    +0.000 OA
ATOM      6  C   UNL     1     112.935 127.240 138.025  0.00  0.00    +0.000 A 
ATOM      7  C   UNL     1     112.340 127.567 138.495  0.00  0.00    +0.000 A 
ATOM      8  C   UNL     1     113.122 127.586 137.299  0.00  0.00    +0.000 A 
ATOM      9  C   UNL     1     112.715 128.256 137.044  0.00  0.00    +0.000 A 
ATOM     10  C   UNL     1     112.122 128.582 137.514  0.00  0.00    +0.000 A 
ATOM     11  C   UNL     1     112.921 128.606 136.286  0.00  0.00    +0.000 A 
ATOM     12  C   UNL     1     111.690 129.280 137.260  0.00  0.00    +0.000 A 
ATOM     13  C   UNL     1     112.500 129.305 136.015  0.00  0.00    +0.000 A 
ATOM     14  C   UNL     1     111.881 129.645 136.505  0.00  0.00    +0.000 A 
ENDROOT
BRANCH   7  17
ATOM     15  O   UNL     1     110.584 125.984 140.102  0.00  0.00    +0.000 OA
ATOM     16  O   UNL     1     111.588 126.184 141.396  0.00  0.00    +0.000 OA
ATOM     17  C   UNL     1     112.153 127.221 139.220  0.00  0.00    +0.000 A 
ATOM     18  C   UNL     1     111.462 126.775 139.298  0.00  0.00    +0.000 A 
ATOM     19  C   UNL     1     112.655 127.321 139.867  0.00  0.00    +0.000 A 
ATOM     20  C   UNL     1     111.275 126.430 140.024  0.00  0.00    +0.000 A 
ATOM     21  C   UNL     1     112.466 126.975 140.592  0.00  0.00    +0.000 A 
ATOM     22  C   UNL     1     111.777 126.530 140.671  0.00  0.00    +0.000 A 
ENDBRANCH   7  17
BRANCH   6  23
ATOM     23  O   UNL     1     113.341 126.569 138.280  0.00  0.00    +0.000 OA
BRANCH  23  32
ATOM     24  O   UNL     1     112.673 125.684 137.379  0.00  0.00    +0.000 OA
ATOM     25  O   UNL     1     114.685 124.244 137.302  0.00  0.00    +0.000 OA
ATOM     26  O   UNL     1     113.347 123.839 136.428  0.00  0.00    +0.000 OA
ATOM     27  O   UNL     1     114.683 125.610 138.229  0.00  0.00    +0.000 OA
ATOM     28  C   UNL     1     114.015 124.724 137.328  0.00  0.00    +0.000 C 
ATOM     29  C   UNL     1     113.345 124.522 136.891  0.00  0.00    +0.000 C 
ATOM     30  C   UNL     1     114.013 125.407 137.791  0.00  0.00    +0.000 C 
ATOM     31  C   UNL     1     112.675 125.002 136.916  0.00  0.00    +0.000 C 
ATOM     32  C   UNL     1     113.343 125.887 137.817  0.00  0.00    +0.000 C 
BRANCH  31  34
ATOM     33  O   UNL     1     111.298 124.623 136.864  0.00  0.00    +0.000 OA
ATOM     34  C   UNL     1     112.006 124.799 136.479  0.00  0.00    +0.000 C 
ENDBRANCH  31  34
ENDBRANCH  23  32
ENDBRANCH   6  23
TORSDOF 4
ENDMDL
