MODEL 1
REMARK VINA RESULT:      -9.6      0.000      0.000
REMARK  Name = 44259320
REMARK  6 active torsions:
REMARK  status: ('A' for Active; 'I' for Inactive)
REMARK    1  A    between atoms: S_1  and  O_12
REMARK    2  A    between atoms: O_3  and  C_21
REMARK    3  A    between atoms: O_3  and  C_24
REMARK    4  A    between atoms: O_12  and  C_33
REMARK    5  A    between atoms: C_22  and  C_23
REMARK    6  A    between atoms: C_25  and  C_29
REMARK                            x       y       z     vdW  Elec       q    Type
REMARK                         _______ _______ _______ _____ _____    ______ ____
ROOT
ATOM      1  O   UNL     1     113.497 127.333 136.695  0.00  0.00    +0.000 OA
ATOM      2  O   UNL     1     112.100 128.216 138.539  0.00  0.00    +0.000 OA
ATOM      3  O   UNL     1     112.275 129.567 138.062  0.00  0.00    +0.000 OA
ATOM      4  C   UNL     1     112.704 127.111 137.863  0.00  0.00    +0.000 A 
ATOM      5  C   UNL     1     113.170 126.817 137.249  0.00  0.00    +0.000 A 
ATOM      6  C   UNL     1     112.566 127.922 137.924  0.00  0.00    +0.000 A 
ATOM      7  C   UNL     1     112.894 128.439 137.370  0.00  0.00    +0.000 A 
ATOM      8  C   UNL     1     113.359 128.144 136.756  0.00  0.00    +0.000 A 
ATOM      9  C   UNL     1     112.742 129.282 137.445  0.00  0.00    +0.000 A 
ATOM     10  C   UNL     1     113.706 128.672 136.173  0.00  0.00    +0.000 A 
ATOM     11  C   UNL     1     113.566 129.518 136.231  0.00  0.00    +0.000 A 
ATOM     12  C   UNL     1     113.081 129.824 136.871  0.00  0.00    +0.000 A 
ENDROOT
BRANCH   5  15
ATOM     13  O   UNL     1     114.924 124.578 137.527  0.00  0.00    +0.000 OA
ATOM     14  O   UNL     1     113.723 123.572 137.008  0.00  0.00    +0.000 OA
ATOM     15  C   UNL     1     113.307 126.005 137.188  0.00  0.00    +0.000 A 
ATOM     16  C   UNL     1     114.047 125.697 137.388  0.00  0.00    +0.000 A 
ATOM     17  C   UNL     1     112.707 125.503 136.929  0.00  0.00    +0.000 A 
ATOM     18  C   UNL     1     114.185 124.886 137.328  0.00  0.00    +0.000 A 
ATOM     19  C   UNL     1     112.846 124.692 136.869  0.00  0.00    +0.000 A 
ATOM     20  C   UNL     1     113.584 124.383 137.068  0.00  0.00    +0.000 A 
ENDBRANCH   5  15
BRANCH   4  21
ATOM     21  O   UNL     1     112.377 126.594 138.417  0.00  0.00    +0.000 OA
BRANCH  21  29
ATOM     22  O   UNL     1     113.299 126.954 139.447  0.00  0.00    +0.000 OA
ATOM     23  O   UNL     1     111.608 126.386 141.162  0.00  0.00    +0.000 OA
ATOM     24  O   UNL     1     111.249 126.215 139.560  0.00  0.00    +0.000 OA
ATOM     25  O   UNL     1     113.094 126.936 141.619  0.00  0.00    +0.000 OA
ATOM     26  C   UNL     1     112.172 126.575 140.590  0.00  0.00    +0.000 C 
ATOM     27  C   UNL     1     111.991 126.490 139.789  0.00  0.00    +0.000 C 
ATOM     28  C   UNL     1     112.914 126.850 140.819  0.00  0.00    +0.000 C 
ATOM     29  C   UNL     1     112.556 126.680 139.217  0.00  0.00    +0.000 C 
ATOM     30  C   UNL     1     113.479 127.040 140.247  0.00  0.00    +0.000 C 
BRANCH  30  33
ATOM     31  O   UNL     1     114.333 128.115 140.643  0.00  0.00    +0.000 OA
ATOM     32  O   UNL     1     114.854 126.789 140.538  0.00  0.00    +0.000 OA
ATOM     33  C   UNL     1     114.222 127.315 140.476  0.00  0.00    +0.000 C 
ENDBRANCH  30  33
ENDBRANCH  21  29
ENDBRANCH   4  21
BRANCH  11  34
ATOM     34  O   UNL     1     113.894 130.033 135.676  0.00  0.00    +0.000 OA
BRANCH  34  35
ATOM     35  S   UNL     1     114.663 130.314 135.779  0.00  0.00    +0.000 S 
ATOM     36  O   UNL     1     115.432 130.595 135.882  0.00  0.00    +0.000 OA
ATOM     37  O   UNL     1     114.953 129.682 135.335  0.00  0.00    +0.000 OA
ATOM     38  O   UNL     1     114.373 130.946 136.223  0.00  0.00    +0.000 OA
ENDBRANCH  34  35
ENDBRANCH  11  34
TORSDOF 6
ENDMDL
MODEL 2
REMARK VINA RESULT:      -9.4      2.847      5.235
REMARK  Name = 44259320
REMARK  6 active torsions:
REMARK  status: ('A' for Active; 'I' for Inactive)
REMARK    1  A    between atoms: S_1  and  O_12
REMARK    2  A    between atoms: O_3  and  C_21
REMARK    3  A    between atoms: O_3  and  C_24
REMARK    4  A    between atoms: O_12  and  C_33
REMARK    5  A    between atoms: C_22  and  C_23
REMARK    6  A    between atoms: C_25  and  C_29
REMARK                            x       y       z     vdW  Elec       q    Type
REMARK                         _______ _______ _______ _____ _____    ______ ____
ROOT
ATOM      1  O   UNL     1     112.274 127.028 135.980  0.00  0.00    +0.000 OA
ATOM      2  O   UNL     1     109.947 127.424 135.230  0.00  0.00    +0.000 OA
ATOM      3  O   UNL     1     109.655 126.013 135.300  0.00  0.00    +0.000 OA
ATOM      4  C   UNL     1     111.242 127.927 135.566  0.00  0.00    +0.000 A 
ATOM      5  C   UNL     1     112.018 127.795 135.816  0.00  0.00    +0.000 A 
ATOM      6  C   UNL     1     110.723 127.292 135.480  0.00  0.00    +0.000 A 
ATOM      7  C   UNL     1     110.979 126.525 135.644  0.00  0.00    +0.000 A 
ATOM      8  C   UNL     1     111.754 126.393 135.894  0.00  0.00    +0.000 A 
ATOM      9  C   UNL     1     110.429 125.871 135.551  0.00  0.00    +0.000 A 
ATOM     10  C   UNL     1     112.033 125.600 136.068  0.00  0.00    +0.000 A 
ATOM     11  C   UNL     1     111.497 124.933 135.980  0.00  0.00    +0.000 A 
ATOM     12  C   UNL     1     110.690 125.071 135.720  0.00  0.00    +0.000 A 
ENDROOT
BRANCH   5  15
ATOM     13  O   UNL     1     113.489 129.578 137.496  0.00  0.00    +0.000 OA
ATOM     14  O   UNL     1     114.093 130.338 136.162  0.00  0.00    +0.000 OA
ATOM     15  C   UNL     1     112.536 128.431 135.902  0.00  0.00    +0.000 A 
ATOM     16  C   UNL     1     112.753 128.687 136.656  0.00  0.00    +0.000 A 
ATOM     17  C   UNL     1     112.838 128.811 135.235  0.00  0.00    +0.000 A 
ATOM     18  C   UNL     1     113.272 129.323 136.742  0.00  0.00    +0.000 A 
ATOM     19  C   UNL     1     113.357 129.447 135.322  0.00  0.00    +0.000 A 
ATOM     20  C   UNL     1     113.574 129.702 136.075  0.00  0.00    +0.000 A 
ENDBRANCH   5  15
BRANCH   4  21
ATOM     21  O   UNL     1     110.986 128.694 135.402  0.00  0.00    +0.000 OA
BRANCH  21  29
ATOM     22  O   UNL     1     110.282 128.886 136.631  0.00  0.00    +0.000 OA
ATOM     23  O   UNL     1     108.580 130.236 135.446  0.00  0.00    +0.000 OA
ATOM     24  O   UNL     1     109.851 129.594 134.612  0.00  0.00    +0.000 OA
ATOM     25  O   UNL     1     108.444 129.977 137.069  0.00  0.00    +0.000 OA
ATOM     26  C   UNL     1     109.147 129.786 135.841  0.00  0.00    +0.000 C 
ATOM     27  C   UNL     1     109.783 129.465 135.423  0.00  0.00    +0.000 C 
ATOM     28  C   UNL     1     109.079 129.657 136.652  0.00  0.00    +0.000 C 
ATOM     29  C   UNL     1     110.351 129.015 135.819  0.00  0.00    +0.000 C 
ATOM     30  C   UNL     1     109.647 129.206 137.048  0.00  0.00    +0.000 C 
BRANCH  30  33
ATOM     31  O   UNL     1     109.136 128.440 138.140  0.00  0.00    +0.000 OA
ATOM     32  O   UNL     1     109.954 129.584 138.390  0.00  0.00    +0.000 OA
ATOM     33  C   UNL     1     109.579 129.077 137.859  0.00  0.00    +0.000 C 
ENDBRANCH  30  33
ENDBRANCH  21  29
ENDBRANCH   4  21
BRANCH  11  34
ATOM     34  O   UNL     1     111.756 124.167 136.145  0.00  0.00    +0.000 OA
BRANCH  34  35
ATOM     35  S   UNL     1     112.177 124.014 136.837  0.00  0.00    +0.000 S 
ATOM     36  O   UNL     1     112.599 123.861 137.529  0.00  0.00    +0.000 OA
ATOM     37  O   UNL     1     112.880 124.001 136.406  0.00  0.00    +0.000 OA
ATOM     38  O   UNL     1     111.474 124.027 137.268  0.00  0.00    +0.000 OA
ENDBRANCH  34  35
ENDBRANCH  11  34
TORSDOF 6
ENDMDL
MODEL 3
REMARK VINA RESULT:      -9.3      1.277      2.158
REMARK  Name = 44259320
REMARK  6 active torsions:
REMARK  status: ('A' for Active; 'I' for Inactive)
REMARK    1  A    between atoms: S_1  and  O_12
REMARK    2  A    between atoms: O_3  and  C_21
REMARK    3  A    between atoms: O_3  and  C_24
REMARK    4  A    between atoms: O_12  and  C_33
REMARK    5  A    between atoms: C_22  and  C_23
REMARK    6  A    between atoms: C_25  and  C_29
REMARK                            x       y       z     vdW  Elec       q    Type
REMARK                         _______ _______ _______ _____ _____    ______ ____
ROOT
ATOM      1  O   UNL     1     112.941 127.109 136.289  0.00  0.00    +0.000 OA
ATOM      2  O   UNL     1     112.797 127.980 138.602  0.00  0.00    +0.000 OA
ATOM      3  O   UNL     1     113.189 129.296 138.161  0.00  0.00    +0.000 OA
ATOM      4  C   UNL     1     112.674 126.897 137.677  0.00  0.00    +0.000 A 
ATOM      5  C   UNL     1     112.722 126.607 136.905  0.00  0.00    +0.000 A 
ATOM      6  C   UNL     1     112.845 127.689 137.830  0.00  0.00    +0.000 A 
ATOM      7  C   UNL     1     113.064 128.191 137.213  0.00  0.00    +0.000 A 
ATOM      8  C   UNL     1     113.112 127.901 136.443  0.00  0.00    +0.000 A 
ATOM      9  C   UNL     1     113.240 129.015 137.386  0.00  0.00    +0.000 A 
ATOM     10  C   UNL     1     113.339 128.413 135.792  0.00  0.00    +0.000 A 
ATOM     11  C   UNL     1     113.518 129.240 135.945  0.00  0.00    +0.000 A 
ATOM     12  C   UNL     1     113.468 129.542 136.748  0.00  0.00    +0.000 A 
ENDROOT
BRANCH   5  15
ATOM     13  O   UNL     1     110.979 124.616 135.824  0.00  0.00    +0.000 OA
ATOM     14  O   UNL     1     112.035 123.438 136.292  0.00  0.00    +0.000 OA
ATOM     15  C   UNL     1     112.551 125.814 136.752  0.00  0.00    +0.000 A 
ATOM     16  C   UNL     1     111.851 125.612 136.365  0.00  0.00    +0.000 A 
ATOM     17  C   UNL     1     113.079 125.225 136.986  0.00  0.00    +0.000 A 
ATOM     18  C   UNL     1     111.680 124.819 136.211  0.00  0.00    +0.000 A 
ATOM     19  C   UNL     1     112.906 124.433 136.833  0.00  0.00    +0.000 A 
ATOM     20  C   UNL     1     112.207 124.230 136.445  0.00  0.00    +0.000 A 
ENDBRANCH   5  15
BRANCH   4  21
ATOM     21  O   UNL     1     112.455 126.395 138.294  0.00  0.00    +0.000 OA
BRANCH  21  29
ATOM     22  O   UNL     1     111.113 126.880 138.376  0.00  0.00    +0.000 OA
ATOM     23  O   UNL     1     111.094 126.414 140.807  0.00  0.00    +0.000 OA
ATOM     24  O   UNL     1     112.442 126.085 139.914  0.00  0.00    +0.000 OA
ATOM     25  O   UNL     1     109.759 127.054 140.079  0.00  0.00    +0.000 OA
ATOM     26  C   UNL     1     111.100 126.569 139.997  0.00  0.00    +0.000 C 
ATOM     27  C   UNL     1     111.775 126.404 139.551  0.00  0.00    +0.000 C 
ATOM     28  C   UNL     1     110.433 126.889 139.633  0.00  0.00    +0.000 C 
ATOM     29  C   UNL     1     111.781 126.560 138.740  0.00  0.00    +0.000 C 
ATOM     30  C   UNL     1     110.439 127.044 138.822  0.00  0.00    +0.000 C 
BRANCH  30  33
ATOM     31  O   UNL     1     109.636 128.177 138.485  0.00  0.00    +0.000 OA
ATOM     32  O   UNL     1     109.239 126.870 138.067  0.00  0.00    +0.000 OA
ATOM     33  C   UNL     1     109.772 127.364 138.458  0.00  0.00    +0.000 C 
ENDBRANCH  30  33
ENDBRANCH  21  29
ENDBRANCH   4  21
BRANCH  11  34
ATOM     34  O   UNL     1     113.737 129.740 135.326  0.00  0.00    +0.000 OA
BRANCH  34  35
ATOM     35  S   UNL     1     114.535 129.860 135.156  0.00  0.00    +0.000 S 
ATOM     36  O   UNL     1     115.333 129.980 134.985  0.00  0.00    +0.000 OA
ATOM     37  O   UNL     1     114.527 129.204 134.655  0.00  0.00    +0.000 OA
ATOM     38  O   UNL     1     114.543 130.516 135.656  0.00  0.00    +0.000 OA
ENDBRANCH  34  35
ENDBRANCH  11  34
TORSDOF 6
ENDMDL
MODEL 4
REMARK VINA RESULT:      -9.3      0.912      2.994
REMARK  Name = 44259320
REMARK  6 active torsions:
REMARK  status: ('A' for Active; 'I' for Inactive)
REMARK    1  A    between atoms: S_1  and  O_12
REMARK    2  A    between atoms: O_3  and  C_21
REMARK    3  A    between atoms: O_3  and  C_24
REMARK    4  A    between atoms: O_12  and  C_33
REMARK    5  A    between atoms: C_22  and  C_23
REMARK    6  A    between atoms: C_25  and  C_29
REMARK                            x       y       z     vdW  Elec       q    Type
REMARK                         _______ _______ _______ _____ _____    ______ ____
ROOT
ATOM      1  O   UNL     1     113.221 128.444 138.117  0.00  0.00    +0.000 OA
ATOM      2  O   UNL     1     112.081 126.965 136.492  0.00  0.00    +0.000 OA
ATOM      3  O   UNL     1     112.329 127.901 135.423  0.00  0.00    +0.000 OA
ATOM      4  C   UNL     1     112.522 127.232 137.825  0.00  0.00    +0.000 A 
ATOM      5  C   UNL     1     112.902 127.725 138.367  0.00  0.00    +0.000 A 
ATOM      6  C   UNL     1     112.461 127.458 137.034  0.00  0.00    +0.000 A 
ATOM      7  C   UNL     1     112.780 128.177 136.784  0.00  0.00    +0.000 A 
ATOM      8  C   UNL     1     113.160 128.669 137.326  0.00  0.00    +0.000 A 
ATOM      9  C   UNL     1     112.710 128.401 135.958  0.00  0.00    +0.000 A 
ATOM     10  C   UNL     1     113.497 129.420 137.079  0.00  0.00    +0.000 A 
ATOM     11  C   UNL     1     113.437 129.662 136.256  0.00  0.00    +0.000 A 
ATOM     12  C   UNL     1     113.041 129.148 135.692  0.00  0.00    +0.000 A 
ENDROOT
BRANCH   5  15
ATOM     13  O   UNL     1     114.485 126.813 140.565  0.00  0.00    +0.000 OA
ATOM     14  O   UNL     1     113.147 126.819 141.531  0.00  0.00    +0.000 OA
ATOM     15  C   UNL     1     112.963 127.499 139.158  0.00  0.00    +0.000 A 
ATOM     16  C   UNL     1     113.693 127.269 139.466  0.00  0.00    +0.000 A 
ATOM     17  C   UNL     1     112.294 127.502 139.640  0.00  0.00    +0.000 A 
ATOM     18  C   UNL     1     113.754 127.043 140.257  0.00  0.00    +0.000 A 
ATOM     19  C   UNL     1     112.355 127.275 140.432  0.00  0.00    +0.000 A 
ATOM     20  C   UNL     1     113.085 127.046 140.740  0.00  0.00    +0.000 A 
ENDBRANCH   5  15
BRANCH   4  21
ATOM     21  O   UNL     1     112.203 126.513 138.074  0.00  0.00    +0.000 OA
BRANCH  21  29
ATOM     22  O   UNL     1     113.258 125.717 137.533  0.00  0.00    +0.000 OA
ATOM     23  O   UNL     1     111.660 123.868 137.138  0.00  0.00    +0.000 OA
ATOM     24  O   UNL     1     111.137 125.281 137.811  0.00  0.00    +0.000 OA
ATOM     25  O   UNL     1     113.248 123.688 136.729  0.00  0.00    +0.000 OA
ATOM     26  C   UNL     1     112.193 124.484 137.270  0.00  0.00    +0.000 C 
ATOM     27  C   UNL     1     111.931 125.191 137.606  0.00  0.00    +0.000 C 
ATOM     28  C   UNL     1     112.986 124.394 137.065  0.00  0.00    +0.000 C 
ATOM     29  C   UNL     1     112.464 125.807 137.738  0.00  0.00    +0.000 C 
ATOM     30  C   UNL     1     113.520 125.011 137.197  0.00  0.00    +0.000 C 
BRANCH  30  33
ATOM     31  O   UNL     1     114.864 124.693 137.562  0.00  0.00    +0.000 OA
ATOM     32  O   UNL     1     114.557 125.058 136.216  0.00  0.00    +0.000 OA
ATOM     33  C   UNL     1     114.313 124.920 136.992  0.00  0.00    +0.000 C 
ENDBRANCH  30  33
ENDBRANCH  21  29
ENDBRANCH   4  21
BRANCH  11  34
ATOM     34  O   UNL     1     113.757 130.381 136.009  0.00  0.00    +0.000 OA
BRANCH  34  35
ATOM     35  S   UNL     1     114.570 130.452 135.893  0.00  0.00    +0.000 S 
ATOM     36  O   UNL     1     115.384 130.523 135.776  0.00  0.00    +0.000 OA
ATOM     37  O   UNL     1     114.484 130.171 135.122  0.00  0.00    +0.000 OA
ATOM     38  O   UNL     1     114.656 130.733 136.664  0.00  0.00    +0.000 OA
ENDBRANCH  34  35
ENDBRANCH  11  34
TORSDOF 6
ENDMDL
MODEL 5
REMARK VINA RESULT:      -9.3      2.403      4.149
REMARK  Name = 44259320
REMARK  6 active torsions:
REMARK  status: ('A' for Active; 'I' for Inactive)
REMARK    1  A    between atoms: S_1  and  O_12
REMARK    2  A    between atoms: O_3  and  C_21
REMARK    3  A    between atoms: O_3  and  C_24
REMARK    4  A    between atoms: O_12  and  C_33
REMARK    5  A    between atoms: C_22  and  C_23
REMARK    6  A    between atoms: C_25  and  C_29
REMARK                            x       y       z     vdW  Elec       q    Type
REMARK                         _______ _______ _______ _____ _____    ______ ____
ROOT
ATOM      1  O   UNL     1     111.881 129.210 135.594  0.00  0.00    +0.000 OA
ATOM      2  O   UNL     1     111.821 126.799 136.153  0.00  0.00    +0.000 OA
ATOM      3  O   UNL     1     110.391 126.762 135.963  0.00  0.00    +0.000 OA
ATOM      4  C   UNL     1     112.559 128.009 135.972  0.00  0.00    +0.000 A 
ATOM      5  C   UNL     1     112.579 128.813 135.785  0.00  0.00    +0.000 A 
ATOM      6  C   UNL     1     111.841 127.603 135.967  0.00  0.00    +0.000 A 
ATOM      7  C   UNL     1     111.143 128.000 135.776  0.00  0.00    +0.000 A 
ATOM      8  C   UNL     1     111.164 128.803 135.590  0.00  0.00    +0.000 A 
ATOM      9  C   UNL     1     110.402 127.565 135.775  0.00  0.00    +0.000 A 
ATOM     10  C   UNL     1     110.444 129.228 135.390  0.00  0.00    +0.000 A 
ATOM     11  C   UNL     1     109.693 128.810 135.383  0.00  0.00    +0.000 A 
ATOM     12  C   UNL     1     109.672 127.973 135.577  0.00  0.00    +0.000 A 
ENDROOT
BRANCH   5  15
ATOM     13  O   UNL     1     114.353 130.688 137.012  0.00  0.00    +0.000 OA
ATOM     14  O   UNL     1     115.451 130.438 135.806  0.00  0.00    +0.000 OA
ATOM     15  C   UNL     1     113.297 129.219 135.790  0.00  0.00    +0.000 A 
ATOM     16  C   UNL     1     113.466 129.751 136.399  0.00  0.00    +0.000 A 
ATOM     17  C   UNL     1     113.846 129.094 135.187  0.00  0.00    +0.000 A 
ATOM     18  C   UNL     1     114.184 130.157 136.403  0.00  0.00    +0.000 A 
ATOM     19  C   UNL     1     114.564 129.501 135.193  0.00  0.00    +0.000 A 
ATOM     20  C   UNL     1     114.733 130.032 135.800  0.00  0.00    +0.000 A 
ENDBRANCH   5  15
BRANCH   4  21
ATOM     21  O   UNL     1     113.257 127.612 136.162  0.00  0.00    +0.000 OA
BRANCH  21  29
ATOM     22  O   UNL     1     113.008 127.589 137.569  0.00  0.00    +0.000 OA
ATOM     23  O   UNL     1     114.214 125.436 137.748  0.00  0.00    +0.000 OA
ATOM     24  O   UNL     1     114.061 126.177 136.281  0.00  0.00    +0.000 OA
ATOM     25  O   UNL     1     113.563 126.131 139.094  0.00  0.00    +0.000 OA
ATOM     26  C   UNL     1     113.812 126.154 137.688  0.00  0.00    +0.000 C 
ATOM     27  C   UNL     1     113.736 126.524 136.955  0.00  0.00    +0.000 C 
ATOM     28  C   UNL     1     113.487 126.501 138.362  0.00  0.00    +0.000 C 
ATOM     29  C   UNL     1     113.333 127.242 136.895  0.00  0.00    +0.000 C 
ATOM     30  C   UNL     1     113.084 127.219 138.302  0.00  0.00    +0.000 C 
BRANCH  30  33
ATOM     31  O   UNL     1     112.016 127.329 139.245  0.00  0.00    +0.000 OA
ATOM     32  O   UNL     1     113.176 128.152 139.380  0.00  0.00    +0.000 OA
ATOM     33  C   UNL     1     112.759 127.567 138.975  0.00  0.00    +0.000 C 
ENDBRANCH  30  33
ENDBRANCH  21  29
ENDBRANCH   4  21
BRANCH  11  34
ATOM     34  O   UNL     1     108.997 129.210 135.192  0.00  0.00    +0.000 OA
BRANCH  34  35
ATOM     35  S   UNL     1     108.522 129.520 135.791  0.00  0.00    +0.000 S 
ATOM     36  O   UNL     1     108.047 129.831 136.390  0.00  0.00    +0.000 OA
ATOM     37  O   UNL     1     108.087 128.820 135.809  0.00  0.00    +0.000 OA
ATOM     38  O   UNL     1     108.957 130.221 135.772  0.00  0.00    +0.000 OA
ENDBRANCH  34  35
ENDBRANCH  11  34
TORSDOF 6
ENDMDL
MODEL 6
REMARK VINA RESULT:      -9.3      1.538      4.114
REMARK  Name = 44259320
REMARK  6 active torsions:
REMARK  status: ('A' for Active; 'I' for Inactive)
REMARK    1  A    between atoms: S_1  and  O_12
REMARK    2  A    between atoms: O_3  and  C_21
REMARK    3  A    between atoms: O_3  and  C_24
REMARK    4  A    between atoms: O_12  and  C_33
REMARK    5  A    between atoms: C_22  and  C_23
REMARK    6  A    between atoms: C_25  and  C_29
REMARK                            x       y       z     vdW  Elec       q    Type
REMARK                         _______ _______ _______ _____ _____    ______ ____
ROOT
ATOM      1  O   UNL     1     112.981 128.316 138.292  0.00  0.00    +0.000 OA
ATOM      2  O   UNL     1     112.030 126.058 138.643  0.00  0.00    +0.000 OA
ATOM      3  O   UNL     1     112.287 126.139 140.061  0.00  0.00    +0.000 OA
ATOM      4  C   UNL     1     112.373 127.134 137.767  0.00  0.00    +0.000 A 
ATOM      5  C   UNL     1     112.690 127.887 137.650  0.00  0.00    +0.000 A 
ATOM      6  C   UNL     1     112.347 126.811 138.526  0.00  0.00    +0.000 A 
ATOM      7  C   UNL     1     112.639 127.240 139.167  0.00  0.00    +0.000 A 
ATOM      8  C   UNL     1     112.955 127.992 139.050  0.00  0.00    +0.000 A 
ATOM      9  C   UNL     1     112.606 126.893 139.953  0.00  0.00    +0.000 A 
ATOM     10  C   UNL     1     113.262 128.450 139.709  0.00  0.00    +0.000 A 
ATOM     11  C   UNL     1     113.238 128.119 140.503  0.00  0.00    +0.000 A 
ATOM     12  C   UNL     1     112.908 127.335 140.624  0.00  0.00    +0.000 A 
ENDROOT
BRANCH   5  15
ATOM     13  O   UNL     1     114.184 128.662 135.340  0.00  0.00    +0.000 OA
ATOM     14  O   UNL     1     112.794 129.177 134.615  0.00  0.00    +0.000 OA
ATOM     15  C   UNL     1     112.715 128.209 136.891  0.00  0.00    +0.000 A 
ATOM     16  C   UNL     1     113.437 128.275 136.495  0.00  0.00    +0.000 A 
ATOM     17  C   UNL     1     112.021 128.467 136.529  0.00  0.00    +0.000 A 
ATOM     18  C   UNL     1     113.462 128.597 135.737  0.00  0.00    +0.000 A 
ATOM     19  C   UNL     1     112.048 128.789 135.769  0.00  0.00    +0.000 A 
ATOM     20  C   UNL     1     112.768 128.854 135.374  0.00  0.00    +0.000 A 
ENDBRANCH   5  15
BRANCH   4  21
ATOM     21  O   UNL     1     112.082 126.704 137.126  0.00  0.00    +0.000 OA
BRANCH  21  29
ATOM     22  O   UNL     1     113.214 125.839 137.018  0.00  0.00    +0.000 OA
ATOM     23  O   UNL     1     111.738 124.004 136.254  0.00  0.00    +0.000 OA
ATOM     24  O   UNL     1     111.098 125.481 136.616  0.00  0.00    +0.000 OA
ATOM     25  O   UNL     1     113.361 123.751 136.401  0.00  0.00    +0.000 OA
ATOM     26  C   UNL     1     112.230 124.616 136.508  0.00  0.00    +0.000 C 
ATOM     27  C   UNL     1     111.909 125.354 136.690  0.00  0.00    +0.000 C 
ATOM     28  C   UNL     1     113.041 124.489 136.582  0.00  0.00    +0.000 C 
ATOM     29  C   UNL     1     112.402 125.966 136.945  0.00  0.00    +0.000 C 
ATOM     30  C   UNL     1     113.534 125.101 136.837  0.00  0.00    +0.000 C 
BRANCH  30  33
ATOM     31  O   UNL     1     114.856 125.204 136.304  0.00  0.00    +0.000 OA
ATOM     32  O   UNL     1     114.646 124.616 137.589  0.00  0.00    +0.000 OA
ATOM     33  C   UNL     1     114.345 124.974 136.910  0.00  0.00    +0.000 C 
ENDBRANCH  30  33
ENDBRANCH  21  29
ENDBRANCH   4  21
BRANCH  11  34
ATOM     34  O   UNL     1     113.530 128.551 141.142  0.00  0.00    +0.000 OA
BRANCH  34  35
ATOM     35  S   UNL     1     113.168 129.259 141.361  0.00  0.00    +0.000 S 
ATOM     36  O   UNL     1     112.806 129.967 141.581  0.00  0.00    +0.000 OA
ATOM     37  O   UNL     1     113.755 129.682 140.965  0.00  0.00    +0.000 OA
ATOM     38  O   UNL     1     112.581 128.836 141.758  0.00  0.00    +0.000 OA
ENDBRANCH  34  35
ENDBRANCH  11  34
TORSDOF 6
ENDMDL
MODEL 7
REMARK VINA RESULT:      -9.3      2.368      5.018
REMARK  Name = 44259320
REMARK  6 active torsions:
REMARK  status: ('A' for Active; 'I' for Inactive)
REMARK    1  A    between atoms: S_1  and  O_12
REMARK    2  A    between atoms: O_3  and  C_21
REMARK    3  A    between atoms: O_3  and  C_24
REMARK    4  A    between atoms: O_12  and  C_33
REMARK    5  A    between atoms: C_22  and  C_23
REMARK    6  A    between atoms: C_25  and  C_29
REMARK                            x       y       z     vdW  Elec       q    Type
REMARK                         _______ _______ _______ _____ _____    ______ ____
ROOT
ATOM      1  O   UNL     1     113.221 127.805 136.922  0.00  0.00    +0.000 OA
ATOM      2  O   UNL     1     111.184 127.314 135.604  0.00  0.00    +0.000 OA
ATOM      3  O   UNL     1     111.321 125.901 135.865  0.00  0.00    +0.000 OA
ATOM      4  C   UNL     1     112.123 128.256 136.126  0.00  0.00    +0.000 A 
ATOM      5  C   UNL     1     112.802 128.420 136.566  0.00  0.00    +0.000 A 
ATOM      6  C   UNL     1     111.863 127.478 136.043  0.00  0.00    +0.000 A 
ATOM      7  C   UNL     1     112.282 126.863 136.400  0.00  0.00    +0.000 A 
ATOM      8  C   UNL     1     112.960 127.027 136.839  0.00  0.00    +0.000 A 
ATOM      9  C   UNL     1     112.001 126.056 136.306  0.00  0.00    +0.000 A 
ATOM     10  C   UNL     1     113.406 126.396 137.216  0.00  0.00    +0.000 A 
ATOM     11  C   UNL     1     113.140 125.582 137.134  0.00  0.00    +0.000 A 
ATOM     12  C   UNL     1     112.433 125.412 136.676  0.00  0.00    +0.000 A 
ENDROOT
BRANCH   5  15
ATOM     13  O   UNL     1     113.103 130.772 138.162  0.00  0.00    +0.000 OA
ATOM     14  O   UNL     1     113.838 131.536 136.898  0.00  0.00    +0.000 OA
ATOM     15  C   UNL     1     113.061 129.199 136.648  0.00  0.00    +0.000 A 
ATOM     16  C   UNL     1     112.952 129.596 137.364  0.00  0.00    +0.000 A 
ATOM     17  C   UNL     1     113.429 129.581 136.016  0.00  0.00    +0.000 A 
ATOM     18  C   UNL     1     113.212 130.375 137.446  0.00  0.00    +0.000 A 
ATOM     19  C   UNL     1     113.688 130.360 136.099  0.00  0.00    +0.000 A 
ATOM     20  C   UNL     1     113.579 130.757 136.814  0.00  0.00    +0.000 A 
ENDBRANCH   5  15
BRANCH   4  21
ATOM     21  O   UNL     1     111.704 128.871 135.769  0.00  0.00    +0.000 OA
BRANCH  21  29
ATOM     22  O   UNL     1     110.656 128.882 136.741  0.00  0.00    +0.000 OA
ATOM     23  O   UNL     1     109.054 129.621 135.005  0.00  0.00    +0.000 OA
ATOM     24  O   UNL     1     110.636 129.364 134.612  0.00  0.00    +0.000 OA
ATOM     25  O   UNL     1     108.541 129.386 136.555  0.00  0.00    +0.000 OA
ATOM     26  C   UNL     1     109.588 129.375 135.584  0.00  0.00    +0.000 C 
ATOM     27  C   UNL     1     110.379 129.246 135.386  0.00  0.00    +0.000 C 
ATOM     28  C   UNL     1     109.331 129.257 136.358  0.00  0.00    +0.000 C 
ATOM     29  C   UNL     1     110.914 129.000 135.966  0.00  0.00    +0.000 C 
ATOM     30  C   UNL     1     109.866 129.011 136.938  0.00  0.00    +0.000 C 
BRANCH  30  33
ATOM     31  O   UNL     1     109.325 128.154 137.946  0.00  0.00    +0.000 OA
ATOM     32  O   UNL     1     109.636 129.514 138.254  0.00  0.00    +0.000 OA
ATOM     33  C   UNL     1     109.609 128.893 137.712  0.00  0.00    +0.000 C 
ENDBRANCH  30  33
ENDBRANCH  21  29
ENDBRANCH   4  21
BRANCH  11  34
ATOM     34  O   UNL     1     113.561 124.970 137.491  0.00  0.00    +0.000 OA
BRANCH  34  35
ATOM     35  S   UNL     1     114.334 124.805 137.253  0.00  0.00    +0.000 S 
ATOM     36  O   UNL     1     115.106 124.641 137.014  0.00  0.00    +0.000 OA
ATOM     37  O   UNL     1     114.624 125.239 137.892  0.00  0.00    +0.000 OA
ATOM     38  O   UNL     1     114.044 124.372 136.613  0.00  0.00    +0.000 OA
ENDBRANCH  34  35
ENDBRANCH  11  34
TORSDOF 6
ENDMDL
MODEL 8
REMARK VINA RESULT:      -9.3      2.118      4.161
REMARK  Name = 44259320
REMARK  6 active torsions:
REMARK  status: ('A' for Active; 'I' for Inactive)
REMARK    1  A    between atoms: S_1  and  O_12
REMARK    2  A    between atoms: O_3  and  C_21
REMARK    3  A    between atoms: O_3  and  C_24
REMARK    4  A    between atoms: O_12  and  C_33
REMARK    5  A    between atoms: C_22  and  C_23
REMARK    6  A    between atoms: C_25  and  C_29
REMARK                            x       y       z     vdW  Elec       q    Type
REMARK                         _______ _______ _______ _____ _____    ______ ____
ROOT
ATOM      1  O   UNL     1     111.477 128.115 137.986  0.00  0.00    +0.000 OA
ATOM      2  O   UNL     1     112.641 127.188 136.008  0.00  0.00    +0.000 OA
ATOM      3  O   UNL     1     111.717 127.849 135.119  0.00  0.00    +0.000 OA
ATOM      4  C   UNL     1     112.524 127.319 137.426  0.00  0.00    +0.000 A 
ATOM      5  C   UNL     1     112.135 127.628 138.086  0.00  0.00    +0.000 A 
ATOM      6  C   UNL     1     112.253 127.497 136.668  0.00  0.00    +0.000 A 
ATOM      7  C   UNL     1     111.594 127.984 136.568  0.00  0.00    +0.000 A 
ATOM      8  C   UNL     1     111.207 128.293 137.227  0.00  0.00    +0.000 A 
ATOM      9  C   UNL     1     111.323 128.162 135.773  0.00  0.00    +0.000 A 
ATOM     10  C   UNL     1     110.520 128.802 137.137  0.00  0.00    +0.000 A 
ATOM     11  C   UNL     1     110.233 128.991 136.349  0.00  0.00    +0.000 A 
ATOM     12  C   UNL     1     110.638 128.669 135.663  0.00  0.00    +0.000 A 
ENDROOT
BRANCH   5  15
ATOM     13  O   UNL     1     111.830 126.221 140.555  0.00  0.00    +0.000 OA
ATOM     14  O   UNL     1     113.216 126.913 141.121  0.00  0.00    +0.000 OA
ATOM     15  C   UNL     1     112.406 127.450 138.845  0.00  0.00    +0.000 A 
ATOM     16  C   UNL     1     111.982 126.925 139.320  0.00  0.00    +0.000 A 
ATOM     17  C   UNL     1     113.099 127.796 139.128  0.00  0.00    +0.000 A 
ATOM     18  C   UNL     1     112.253 126.746 140.079  0.00  0.00    +0.000 A 
ATOM     19  C   UNL     1     113.369 127.617 139.887  0.00  0.00    +0.000 A 
ATOM     20  C   UNL     1     112.947 127.092 140.362  0.00  0.00    +0.000 A 
ENDBRANCH   5  15
BRANCH   4  21
ATOM     21  O   UNL     1     113.182 126.832 137.526  0.00  0.00    +0.000 OA
BRANCH  21  29
ATOM     22  O   UNL     1     112.481 125.614 137.268  0.00  0.00    +0.000 OA
ATOM     23  O   UNL     1     114.531 124.644 136.278  0.00  0.00    +0.000 OA
ATOM     24  O   UNL     1     114.549 126.185 136.866  0.00  0.00    +0.000 OA
ATOM     25  O   UNL     1     113.147 123.750 136.349  0.00  0.00    +0.000 OA
ATOM     26  C   UNL     1     113.848 124.967 136.608  0.00  0.00    +0.000 C 
ATOM     27  C   UNL     1     113.857 125.738 136.902  0.00  0.00    +0.000 C 
ATOM     28  C   UNL     1     113.156 124.520 136.643  0.00  0.00    +0.000 C 
ATOM     29  C   UNL     1     113.173 126.062 137.232  0.00  0.00    +0.000 C 
ATOM     30  C   UNL     1     112.472 124.844 136.974  0.00  0.00    +0.000 C 
BRANCH  30  33
ATOM     31  O   UNL     1     111.271 124.371 136.361  0.00  0.00    +0.000 OA
ATOM     32  O   UNL     1     111.597 123.974 137.694  0.00  0.00    +0.000 OA
ATOM     33  C   UNL     1     111.780 124.397 137.009  0.00  0.00    +0.000 C 
ENDBRANCH  30  33
ENDBRANCH  21  29
ENDBRANCH   4  21
BRANCH  11  34
ATOM     34  O   UNL     1     109.575 129.478 136.253  0.00  0.00    +0.000 OA
BRANCH  34  35
ATOM     35  S   UNL     1     108.847 129.151 136.044  0.00  0.00    +0.000 S 
ATOM     36  O   UNL     1     108.119 128.824 135.834  0.00  0.00    +0.000 OA
ATOM     37  O   UNL     1     108.978 129.361 135.257  0.00  0.00    +0.000 OA
ATOM     38  O   UNL     1     108.715 128.941 136.830  0.00  0.00    +0.000 OA
ENDBRANCH  34  35
ENDBRANCH  11  34
TORSDOF 6
ENDMDL
MODEL 9
REMARK VINA RESULT:      -9.2      2.481      4.931
REMARK  Name = 44259320
REMARK  6 active torsions:
REMARK  status: ('A' for Active; 'I' for Inactive)
REMARK    1  A    between atoms: S_1  and  O_12
REMARK    2  A    between atoms: O_3  and  C_21
REMARK    3  A    between atoms: O_3  and  C_24
REMARK    4  A    between atoms: O_12  and  C_33
REMARK    5  A    between atoms: C_22  and  C_23
REMARK    6  A    between atoms: C_25  and  C_29
REMARK                            x       y       z     vdW  Elec       q    Type
REMARK                         _______ _______ _______ _____ _____    ______ ____
ROOT
ATOM      1  O   UNL     1     111.013 127.400 135.817  0.00  0.00    +0.000 OA
ATOM      2  O   UNL     1     113.121 128.323 136.728  0.00  0.00    +0.000 OA
ATOM      3  O   UNL     1     113.674 126.998 136.869  0.00  0.00    +0.000 OA
ATOM      4  C   UNL     1     111.805 128.523 136.208  0.00  0.00    +0.000 A 
ATOM      5  C   UNL     1     111.102 128.215 135.904  0.00  0.00    +0.000 A 
ATOM      6  C   UNL     1     112.418 128.015 136.424  0.00  0.00    +0.000 A 
ATOM      7  C   UNL     1     112.328 127.200 136.337  0.00  0.00    +0.000 A 
ATOM      8  C   UNL     1     111.626 126.892 136.033  0.00  0.00    +0.000 A 
ATOM      9  C   UNL     1     112.975 126.681 136.566  0.00  0.00    +0.000 A 
ATOM     10  C   UNL     1     111.520 126.045 135.937  0.00  0.00    +0.000 A 
ATOM     11  C   UNL     1     112.155 125.510 136.161  0.00  0.00    +0.000 A 
ATOM     12  C   UNL     1     112.887 125.831 136.477  0.00  0.00    +0.000 A 
ENDROOT
BRANCH   5  15
ATOM     13  O   UNL     1     108.519 129.329 136.406  0.00  0.00    +0.000 OA
ATOM     14  O   UNL     1     108.650 130.248 135.042  0.00  0.00    +0.000 OA
ATOM     15  C   UNL     1     110.490 128.724 135.688  0.00  0.00    +0.000 A 
ATOM     16  C   UNL     1     109.810 128.772 136.155  0.00  0.00    +0.000 A 
ATOM     17  C   UNL     1     110.555 129.183 135.006  0.00  0.00    +0.000 A 
ATOM     18  C   UNL     1     109.198 129.281 135.939  0.00  0.00    +0.000 A 
ATOM     19  C   UNL     1     109.942 129.691 134.791  0.00  0.00    +0.000 A 
ATOM     20  C   UNL     1     109.263 129.740 135.257  0.00  0.00    +0.000 A 
ENDBRANCH   5  15
BRANCH   4  21
ATOM     21  O   UNL     1     111.895 129.339 136.296  0.00  0.00    +0.000 OA
BRANCH  21  29
ATOM     22  O   UNL     1     111.688 129.334 137.710  0.00  0.00    +0.000 OA
ATOM     23  O   UNL     1     113.207 131.275 137.939  0.00  0.00    +0.000 OA
ATOM     24  O   UNL     1     112.907 130.633 136.449  0.00  0.00    +0.000 OA
ATOM     25  O   UNL     1     112.493 130.623 139.275  0.00  0.00    +0.000 OA
ATOM     26  C   UNL     1     112.700 130.628 137.863  0.00  0.00    +0.000 C 
ATOM     27  C   UNL     1     112.551 130.307 137.117  0.00  0.00    +0.000 C 
ATOM     28  C   UNL     1     112.344 130.302 138.531  0.00  0.00    +0.000 C 
ATOM     29  C   UNL     1     112.044 129.659 137.040  0.00  0.00    +0.000 C 
ATOM     30  C   UNL     1     111.837 129.654 138.454  0.00  0.00    +0.000 C 
BRANCH  30  33
ATOM     31  O   UNL     1     111.889 128.777 139.581  0.00  0.00    +0.000 OA
ATOM     32  O   UNL     1     110.716 129.554 139.333  0.00  0.00    +0.000 OA
ATOM     33  C   UNL     1     111.481 129.329 139.123  0.00  0.00    +0.000 C 
ENDBRANCH  30  33
ENDBRANCH  21  29
ENDBRANCH   4  21
BRANCH  11  34
ATOM     34  O   UNL     1     112.063 124.695 136.072  0.00  0.00    +0.000 OA
BRANCH  34  35
ATOM     35  S   UNL     1     111.985 124.215 136.738  0.00  0.00    +0.000 S 
ATOM     36  O   UNL     1     111.906 123.734 137.404  0.00  0.00    +0.000 OA
ATOM     37  O   UNL     1     111.197 124.447 136.813  0.00  0.00    +0.000 OA
ATOM     38  O   UNL     1     112.772 123.982 136.662  0.00  0.00    +0.000 OA
ENDBRANCH  34  35
ENDBRANCH  11  34
TORSDOF 6
ENDMDL
MODEL 10
REMARK VINA RESULT:      -9.2      2.222      4.468
REMARK  Name = 44259320
REMARK  6 active torsions:
REMARK  status: ('A' for Active; 'I' for Inactive)
REMARK    1  A    between atoms: S_1  and  O_12
REMARK    2  A    between atoms: O_3  and  C_21
REMARK    3  A    between atoms: O_3  and  C_24
REMARK    4  A    between atoms: O_12  and  C_33
REMARK    5  A    between atoms: C_22  and  C_23
REMARK    6  A    between atoms: C_25  and  C_29
REMARK                            x       y       z     vdW  Elec       q    Type
REMARK                         _______ _______ _______ _____ _____    ______ ____
ROOT
ATOM      1  O   UNL     1     112.949 126.069 138.643  0.00  0.00    +0.000 OA
ATOM      2  O   UNL     1     110.625 125.681 137.882  0.00  0.00    +0.000 OA
ATOM      3  O   UNL     1     110.105 126.142 139.147  0.00  0.00    +0.000 OA
ATOM      4  C   UNL     1     112.032 125.645 137.632  0.00  0.00    +0.000 A 
ATOM      5  C   UNL     1     112.807 125.774 137.885  0.00  0.00    +0.000 A 
ATOM      6  C   UNL     1     111.400 125.811 138.136  0.00  0.00    +0.000 A 
ATOM      7  C   UNL     1     111.543 126.106 138.893  0.00  0.00    +0.000 A 
ATOM      8  C   UNL     1     112.317 126.235 139.146  0.00  0.00    +0.000 A 
ATOM      9  C   UNL     1     110.876 126.275 139.408  0.00  0.00    +0.000 A 
ATOM     10  C   UNL     1     112.479 126.542 139.932  0.00  0.00    +0.000 A 
ATOM     11  C   UNL     1     111.825 126.717 140.462  0.00  0.00    +0.000 A 
ATOM     12  C   UNL     1     111.019 126.582 140.198  0.00  0.00    +0.000 A 
ENDROOT
BRANCH   5  15
ATOM     13  O   UNL     1     114.856 126.674 136.108  0.00  0.00    +0.000 OA
ATOM     14  O   UNL     1     115.333 125.113 135.868  0.00  0.00    +0.000 OA
ATOM     15  C   UNL     1     113.438 125.608 137.381  0.00  0.00    +0.000 A 
ATOM     16  C   UNL     1     113.832 126.224 136.997  0.00  0.00    +0.000 A 
ATOM     17  C   UNL     1     113.676 124.828 137.261  0.00  0.00    +0.000 A 
ATOM     18  C   UNL     1     114.463 126.058 136.493  0.00  0.00    +0.000 A 
ATOM     19  C   UNL     1     114.308 124.663 136.756  0.00  0.00    +0.000 A 
ATOM     20  C   UNL     1     114.701 125.278 136.372  0.00  0.00    +0.000 A 
ENDBRANCH   5  15
BRANCH   4  21
ATOM     21  O   UNL     1     111.889 125.350 136.875  0.00  0.00    +0.000 OA
BRANCH  21  29
ATOM     22  O   UNL     1     111.487 126.611 136.337  0.00  0.00    +0.000 OA
ATOM     23  O   UNL     1     109.992 125.453 134.739  0.00  0.00    +0.000 OA
ATOM     24  O   UNL     1     110.893 124.578 135.810  0.00  0.00    +0.000 OA
ATOM     25  O   UNL     1     110.089 127.099 134.734  0.00  0.00    +0.000 OA
ATOM     26  C   UNL     1     110.491 125.839 135.272  0.00  0.00    +0.000 C 
ATOM     27  C   UNL     1     110.941 125.401 135.807  0.00  0.00    +0.000 C 
ATOM     28  C   UNL     1     110.538 126.662 135.269  0.00  0.00    +0.000 C 
ATOM     29  C   UNL     1     111.439 125.787 136.340  0.00  0.00    +0.000 C 
ATOM     30  C   UNL     1     111.037 127.048 135.802  0.00  0.00    +0.000 C 
BRANCH  30  33
ATOM     31  O   UNL     1     111.683 128.249 135.374  0.00  0.00    +0.000 OA
ATOM     32  O   UNL     1     110.534 128.318 136.220  0.00  0.00    +0.000 OA
ATOM     33  C   UNL     1     111.085 127.871 135.799  0.00  0.00    +0.000 C 
ENDBRANCH  30  33
ENDBRANCH  21  29
ENDBRANCH   4  21
BRANCH  11  34
ATOM     34  O   UNL     1     111.971 127.012 141.218  0.00  0.00    +0.000 OA
BRANCH  34  35
ATOM     35  S   UNL     1     112.261 127.778 141.313  0.00  0.00    +0.000 S 
ATOM     36  O   UNL     1     112.552 128.544 141.408  0.00  0.00    +0.000 OA
ATOM     37  O   UNL     1     111.496 128.078 141.239  0.00  0.00    +0.000 OA
ATOM     38  O   UNL     1     113.026 127.479 141.388  0.00  0.00    +0.000 OA
ENDBRANCH  34  35
ENDBRANCH  11  34
TORSDOF 6
ENDMDL
