MODEL 1
REMARK VINA RESULT:      -8.1      0.000      0.000
REMARK  Name = 
REMARK  3 active torsions:
REMARK  status: ('A' for Active; 'I' for Inactive)
REMARK    1  A    between atoms: C_8  and  O_20
REMARK    2  A    between atoms: C_9  and  C_11
REMARK    3  A    between atoms: C_13  and  O_22
REMARK                            x       y       z     vdW  Elec       q    Type
REMARK                         _______ _______ _______ _____ _____    ______ ____
ROOT
ATOM      1  C   UNL     1     114.920 129.977 135.159  0.00  0.00    +0.000 A 
ATOM      2  C   UNL     1     114.592 130.579 135.879  0.00  0.00    +0.000 A 
ATOM      3  C   UNL     1     113.950 130.246 136.593  0.00  0.00    +0.000 A 
ATOM      4  C   UNL     1     114.624 129.004 135.110  0.00  0.00    +0.000 A 
ATOM      5  C   UNL     1     113.982 128.672 135.825  0.00  0.00    +0.000 A 
ATOM      6  C   UNL     1     113.655 129.275 136.545  0.00  0.00    +0.000 A 
ATOM      7  C   UNL     1     113.023 128.923 137.236  0.00  0.00    +0.000 A 
ATOM      8  C   UNL     1     112.717 127.970 137.210  0.00  0.00    +0.000 A 
ATOM      9  C   UNL     1     113.044 127.368 136.491  0.00  0.00    +0.000 A 
ATOM     10  O   UNL     1     113.687 127.700 135.775  0.00  0.00    +0.000 OA
ATOM     11  O   UNL     1     112.685 129.545 137.978  0.00  0.00    +0.000 OA
ATOM     12  O   UNL     1     113.622 130.848 137.313  0.00  0.00    +0.000 OA
ATOM     13  O   UNL     1     115.497 130.482 134.612  0.00  0.00    +0.000 OA
ATOM     14  C   UNL     1     115.543 131.372 134.961  0.00  0.00    +0.000 C 
ATOM     15  O   UNL     1     114.996 131.405 135.714  0.00  0.00    +0.000 OA
ENDROOT
BRANCH   9  16
ATOM     16  C   UNL     1     112.723 126.391 136.475  0.00  0.00    +0.000 A 
ATOM     17  C   UNL     1     111.858 126.163 136.089  0.00  0.00    +0.000 A 
ATOM     18  C   UNL     1     111.536 125.185 136.073  0.00  0.00    +0.000 A 
ATOM     19  C   UNL     1     112.139 124.459 136.470  0.00  0.00    +0.000 A 
ATOM     20  C   UNL     1     113.046 124.732 136.872  0.00  0.00    +0.000 A 
ATOM     21  C   UNL     1     113.326 125.665 136.873  0.00  0.00    +0.000 A 
ATOM     22  O   UNL     1     111.838 123.504 136.462  0.00  0.00    +0.000 OA
BRANCH  18  23
ATOM     23  O   UNL     1     110.650 124.935 135.679  0.00  0.00    +0.000 OA
ATOM     24  C   UNL     1     110.108 125.647 135.194  0.00  0.00    +0.000 C 
ENDBRANCH  18  23
ENDBRANCH   9  16
BRANCH   8  25
ATOM     25  O   UNL     1     112.068 127.596 137.914  0.00  0.00    +0.000 OA
ATOM     26  C   UNL     1     112.179 127.800 138.888  0.00  0.00    +0.000 C 
ENDBRANCH   8  25
TORSDOF 3
ENDMDL
MODEL 2
REMARK VINA RESULT:      -8.0      1.109      5.443
REMARK  Name = 
REMARK  3 active torsions:
REMARK  status: ('A' for Active; 'I' for Inactive)
REMARK    1  A    between atoms: C_8  and  O_20
REMARK    2  A    between atoms: C_9  and  C_11
REMARK    3  A    between atoms: C_13  and  O_22
REMARK                            x       y       z     vdW  Elec       q    Type
REMARK                         _______ _______ _______ _____ _____    ______ ____
ROOT
ATOM      1  C   UNL     1     112.839 124.583 136.799  0.00  0.00    +0.000 A 
ATOM      2  C   UNL     1     111.880 124.593 136.539  0.00  0.00    +0.000 A 
ATOM      3  C   UNL     1     111.436 125.442 136.198  0.00  0.00    +0.000 A 
ATOM      4  C   UNL     1     113.413 125.421 136.734  0.00  0.00    +0.000 A 
ATOM      5  C   UNL     1     112.968 126.269 136.393  0.00  0.00    +0.000 A 
ATOM      6  C   UNL     1     112.008 126.279 136.133  0.00  0.00    +0.000 A 
ATOM      7  C   UNL     1     111.594 127.127 135.800  0.00  0.00    +0.000 A 
ATOM      8  C   UNL     1     112.137 127.965 135.726  0.00  0.00    +0.000 A 
ATOM      9  C   UNL     1     113.096 127.955 135.987  0.00  0.00    +0.000 A 
ATOM     10  O   UNL     1     113.542 127.106 136.328  0.00  0.00    +0.000 OA
ATOM     11  O   UNL     1     110.605 127.138 135.531  0.00  0.00    +0.000 OA
ATOM     12  O   UNL     1     110.476 125.453 135.937  0.00  0.00    +0.000 OA
ATOM     13  O   UNL     1     113.043 123.707 137.082  0.00  0.00    +0.000 OA
ATOM     14  C   UNL     1     112.252 123.173 137.009  0.00  0.00    +0.000 C 
ATOM     15  O   UNL     1     111.574 123.723 136.684  0.00  0.00    +0.000 OA
ENDROOT
BRANCH   9  16
ATOM     16  C   UNL     1     113.643 128.822 135.907  0.00  0.00    +0.000 A 
ATOM     17  C   UNL     1     113.697 129.442 136.656  0.00  0.00    +0.000 A 
ATOM     18  C   UNL     1     114.244 130.310 136.577  0.00  0.00    +0.000 A 
ATOM     19  C   UNL     1     114.728 130.510 135.697  0.00  0.00    +0.000 A 
ATOM     20  C   UNL     1     114.652 129.837 134.923  0.00  0.00    +0.000 A 
ATOM     21  C   UNL     1     114.127 129.023 135.027  0.00  0.00    +0.000 A 
ATOM     22  O   UNL     1     115.264 131.351 135.605  0.00  0.00    +0.000 OA
BRANCH  18  23
ATOM     23  O   UNL     1     114.309 130.956 137.339  0.00  0.00    +0.000 OA
ATOM     24  C   UNL     1     113.959 130.677 138.253  0.00  0.00    +0.000 C 
ENDBRANCH  18  23
ENDBRANCH   9  16
BRANCH   8  25
ATOM     25  O   UNL     1     111.725 128.843 135.386  0.00  0.00    +0.000 OA
ATOM     26  C   UNL     1     110.822 129.149 135.692  0.00  0.00    +0.000 C 
ENDBRANCH   8  25
TORSDOF 3
ENDMDL
MODEL 3
REMARK VINA RESULT:      -7.8      7.833     10.640
REMARK  Name = 
REMARK  3 active torsions:
REMARK  status: ('A' for Active; 'I' for Inactive)
REMARK    1  A    between atoms: C_8  and  O_20
REMARK    2  A    between atoms: C_9  and  C_11
REMARK    3  A    between atoms: C_13  and  O_22
REMARK                            x       y       z     vdW  Elec       q    Type
REMARK                         _______ _______ _______ _____ _____    ______ ____
ROOT
ATOM      1  C   UNL     1     111.475 129.176 143.376  0.00  0.00    +0.000 A 
ATOM      2  C   UNL     1     111.582 129.774 142.590  0.00  0.00    +0.000 A 
ATOM      3  C   UNL     1     111.758 130.769 142.705  0.00  0.00    +0.000 A 
ATOM      4  C   UNL     1     111.538 129.536 144.326  0.00  0.00    +0.000 A 
ATOM      5  C   UNL     1     111.714 130.531 144.439  0.00  0.00    +0.000 A 
ATOM      6  C   UNL     1     111.820 131.130 143.653  0.00  0.00    +0.000 A 
ATOM      7  C   UNL     1     111.993 132.105 143.792  0.00  0.00    +0.000 A 
ATOM      8  C   UNL     1     112.059 132.485 144.716  0.00  0.00    +0.000 A 
ATOM      9  C   UNL     1     111.952 131.887 145.503  0.00  0.00    +0.000 A 
ATOM     10  O   UNL     1     111.776 130.891 145.389  0.00  0.00    +0.000 OA
ATOM     11  O   UNL     1     112.103 132.722 142.981  0.00  0.00    +0.000 OA
ATOM     12  O   UNL     1     111.865 131.368 141.918  0.00  0.00    +0.000 OA
ATOM     13  O   UNL     1     111.322 128.306 143.048  0.00  0.00    +0.000 OA
ATOM     14  C   UNL     1     111.329 128.338 142.091  0.00  0.00    +0.000 C 
ATOM     15  O   UNL     1     111.485 129.222 141.843  0.00  0.00    +0.000 OA
ENDROOT
BRANCH   9  16
ATOM     16  C   UNL     1     112.022 132.289 146.446  0.00  0.00    +0.000 A 
ATOM     17  C   UNL     1     111.277 132.788 146.826  0.00  0.00    +0.000 A 
ATOM     18  C   UNL     1     111.346 133.191 147.771  0.00  0.00    +0.000 A 
ATOM     19  C   UNL     1     112.211 133.058 148.302  0.00  0.00    +0.000 A 
ATOM     20  C   UNL     1     112.981 132.526 147.874  0.00  0.00    +0.000 A 
ATOM     21  C   UNL     1     112.887 132.156 146.978  0.00  0.00    +0.000 A 
ATOM     22  O   UNL     1     112.293 133.444 149.222  0.00  0.00    +0.000 OA
BRANCH  18  23
ATOM     23  O   UNL     1     110.589 133.706 148.174  0.00  0.00    +0.000 OA
ATOM     24  C   UNL     1     109.651 133.578 147.800  0.00  0.00    +0.000 C 
ENDBRANCH  18  23
ENDBRANCH   9  16
BRANCH   8  25
ATOM     25  O   UNL     1     112.236 133.485 144.874  0.00  0.00    +0.000 OA
ATOM     26  C   UNL     1     111.889 134.182 144.244  0.00  0.00    +0.000 C 
ENDBRANCH   8  25
TORSDOF 3
ENDMDL
MODEL 4
REMARK VINA RESULT:      -7.5      2.831      3.987
REMARK  Name = 
REMARK  3 active torsions:
REMARK  status: ('A' for Active; 'I' for Inactive)
REMARK    1  A    between atoms: C_8  and  O_20
REMARK    2  A    between atoms: C_9  and  C_11
REMARK    3  A    between atoms: C_13  and  O_22
REMARK                            x       y       z     vdW  Elec       q    Type
REMARK                         _______ _______ _______ _____ _____    ______ ____
ROOT
ATOM      1  C   UNL     1     110.198 129.792 135.121  0.00  0.00    +0.000 A 
ATOM      2  C   UNL     1     109.288 129.508 135.403  0.00  0.00    +0.000 A 
ATOM      3  C   UNL     1     109.145 128.657 135.940  0.00  0.00    +0.000 A 
ATOM      4  C   UNL     1     111.020 129.242 135.360  0.00  0.00    +0.000 A 
ATOM      5  C   UNL     1     110.876 128.391 135.897  0.00  0.00    +0.000 A 
ATOM      6  C   UNL     1     109.966 128.107 136.178  0.00  0.00    +0.000 A 
ATOM      7  C   UNL     1     109.850 127.265 136.706  0.00  0.00    +0.000 A 
ATOM      8  C   UNL     1     110.643 126.705 136.953  0.00  0.00    +0.000 A 
ATOM      9  C   UNL     1     111.553 126.990 136.672  0.00  0.00    +0.000 A 
ATOM     10  O   UNL     1     111.697 127.842 136.134  0.00  0.00    +0.000 OA
ATOM     11  O   UNL     1     108.912 126.972 136.997  0.00  0.00    +0.000 OA
ATOM     12  O   UNL     1     108.235 128.372 136.222  0.00  0.00    +0.000 OA
ATOM     13  O   UNL     1     110.103 130.598 134.641  0.00  0.00    +0.000 OA
ATOM     14  C   UNL     1     109.174 130.826 134.612  0.00  0.00    +0.000 C 
ATOM     15  O   UNL     1     108.710 130.163 135.072  0.00  0.00    +0.000 OA
ENDROOT
BRANCH   9  16
ATOM     16  C   UNL     1     112.359 126.406 136.932  0.00  0.00    +0.000 A 
ATOM     17  C   UNL     1     112.860 126.592 137.747  0.00  0.00    +0.000 A 
ATOM     18  C   UNL     1     113.666 126.009 138.008  0.00  0.00    +0.000 A 
ATOM     19  C   UNL     1     113.932 125.231 137.397  0.00  0.00    +0.000 A 
ATOM     20  C   UNL     1     113.384 125.060 136.543  0.00  0.00    +0.000 A 
ATOM     21  C   UNL     1     112.625 125.629 136.321  0.00  0.00    +0.000 A 
ATOM     22  O   UNL     1     114.715 124.655 137.638  0.00  0.00    +0.000 OA
BRANCH  18  23
ATOM     23  O   UNL     1     114.190 126.187 138.842  0.00  0.00    +0.000 OA
ATOM     24  C   UNL     1     113.729 126.644 139.626  0.00  0.00    +0.000 C 
ENDBRANCH  18  23
ENDBRANCH   9  16
BRANCH   8  25
ATOM     25  O   UNL     1     110.540 125.838 137.495  0.00  0.00    +0.000 OA
ATOM     26  C   UNL     1     110.044 125.822 138.365  0.00  0.00    +0.000 C 
ENDBRANCH   8  25
TORSDOF 3
ENDMDL
MODEL 5
REMARK VINA RESULT:      -7.5      1.825      3.419
REMARK  Name = 
REMARK  3 active torsions:
REMARK  status: ('A' for Active; 'I' for Inactive)
REMARK    1  A    between atoms: C_8  and  O_20
REMARK    2  A    between atoms: C_9  and  C_11
REMARK    3  A    between atoms: C_13  and  O_22
REMARK                            x       y       z     vdW  Elec       q    Type
REMARK                         _______ _______ _______ _____ _____    ______ ____
ROOT
ATOM      1  C   UNL     1     113.087 129.309 140.884  0.00  0.00    +0.000 A 
ATOM      2  C   UNL     1     113.134 130.113 140.302  0.00  0.00    +0.000 A 
ATOM      3  C   UNL     1     113.166 130.029 139.289  0.00  0.00    +0.000 A 
ATOM      4  C   UNL     1     113.069 128.371 140.489  0.00  0.00    +0.000 A 
ATOM      5  C   UNL     1     113.101 128.288 139.476  0.00  0.00    +0.000 A 
ATOM      6  C   UNL     1     113.148 129.093 138.894  0.00  0.00    +0.000 A 
ATOM      7  C   UNL     1     113.178 128.984 137.900  0.00  0.00    +0.000 A 
ATOM      8  C   UNL     1     113.162 128.072 137.486  0.00  0.00    +0.000 A 
ATOM      9  C   UNL     1     113.115 127.268 138.068  0.00  0.00    +0.000 A 
ATOM     10  O   UNL     1     113.083 127.351 139.082  0.00  0.00    +0.000 OA
ATOM     11  O   UNL     1     113.227 129.813 137.299  0.00  0.00    +0.000 OA
ATOM     12  O   UNL     1     113.213 130.833 138.707  0.00  0.00    +0.000 OA
ATOM     13  O   UNL     1     113.067 129.610 141.777  0.00  0.00    +0.000 OA
ATOM     14  C   UNL     1     113.099 130.567 141.775  0.00  0.00    +0.000 C 
ATOM     15  O   UNL     1     113.139 130.842 140.886  0.00  0.00    +0.000 OA
ENDROOT
BRANCH   9  16
ATOM     16  C   UNL     1     113.098 126.338 137.631  0.00  0.00    +0.000 A 
ATOM     17  C   UNL     1     112.282 126.000 137.221  0.00  0.00    +0.000 A 
ATOM     18  C   UNL     1     112.265 125.069 136.783  0.00  0.00    +0.000 A 
ATOM     19  C   UNL     1     113.120 124.505 136.785  0.00  0.00    +0.000 A 
ATOM     20  C   UNL     1     113.967 124.890 137.226  0.00  0.00    +0.000 A 
ATOM     21  C   UNL     1     113.954 125.775 137.633  0.00  0.00    +0.000 A 
ATOM     22  O   UNL     1     113.118 123.598 136.363  0.00  0.00    +0.000 OA
BRANCH  18  23
ATOM     23  O   UNL     1     111.433 124.708 136.358  0.00  0.00    +0.000 OA
ATOM     24  C   UNL     1     110.787 125.355 135.911  0.00  0.00    +0.000 C 
ENDBRANCH  18  23
ENDBRANCH   9  16
BRANCH   8  25
ATOM     25  O   UNL     1     113.192 127.945 136.467  0.00  0.00    +0.000 OA
ATOM     26  C   UNL     1     113.833 128.461 135.895  0.00  0.00    +0.000 C 
ENDBRANCH   8  25
TORSDOF 3
ENDMDL
MODEL 6
REMARK VINA RESULT:      -7.4      2.655      5.231
REMARK  Name = 
REMARK  3 active torsions:
REMARK  status: ('A' for Active; 'I' for Inactive)
REMARK    1  A    between atoms: C_8  and  O_20
REMARK    2  A    between atoms: C_9  and  C_11
REMARK    3  A    between atoms: C_13  and  O_22
REMARK                            x       y       z     vdW  Elec       q    Type
REMARK                         _______ _______ _______ _____ _____    ______ ____
ROOT
ATOM      1  C   UNL     1     111.745 124.800 136.504  0.00  0.00    +0.000 A 
ATOM      2  C   UNL     1     112.706 125.036 136.595  0.00  0.00    +0.000 A 
ATOM      3  C   UNL     1     113.023 125.999 136.508  0.00  0.00    +0.000 A 
ATOM      4  C   UNL     1     111.041 125.512 136.321  0.00  0.00    +0.000 A 
ATOM      5  C   UNL     1     111.359 126.474 136.235  0.00  0.00    +0.000 A 
ATOM      6  C   UNL     1     112.320 126.710 136.325  0.00  0.00    +0.000 A 
ATOM      7  C   UNL     1     112.607 127.664 136.236  0.00  0.00    +0.000 A 
ATOM      8  C   UNL     1     111.935 128.384 136.056  0.00  0.00    +0.000 A 
ATOM      9  C   UNL     1     110.973 128.148 135.965  0.00  0.00    +0.000 A 
ATOM     10  O   UNL     1     110.656 127.185 136.052  0.00  0.00    +0.000 OA
ATOM     11  O   UNL     1     113.598 127.908 136.330  0.00  0.00    +0.000 OA
ATOM     12  O   UNL     1     113.984 126.235 136.599  0.00  0.00    +0.000 OA
ATOM     13  O   UNL     1     111.673 123.867 136.618  0.00  0.00    +0.000 OA
ATOM     14  C   UNL     1     112.549 123.513 136.775  0.00  0.00    +0.000 C 
ATOM     15  O   UNL     1     113.145 124.228 136.757  0.00  0.00    +0.000 OA
ENDROOT
BRANCH   9  16
ATOM     16  C   UNL     1     110.293 128.897 135.781  0.00  0.00    +0.000 A 
ATOM     17  C   UNL     1     109.791 129.298 136.513  0.00  0.00    +0.000 A 
ATOM     18  C   UNL     1     109.110 130.048 136.328  0.00  0.00    +0.000 A 
ATOM     19  C   UNL     1     108.970 130.362 135.364  0.00  0.00    +0.000 A 
ATOM     20  C   UNL     1     109.515 129.919 134.612  0.00  0.00    +0.000 A 
ATOM     21  C   UNL     1     110.153 129.211 134.816  0.00  0.00    +0.000 A 
ATOM     22  O   UNL     1     108.311 131.090 135.169  0.00  0.00    +0.000 OA
BRANCH  18  23
ATOM     23  O   UNL     1     108.587 130.470 137.070  0.00  0.00    +0.000 OA
ATOM     24  C   UNL     1     109.005 130.532 137.995  0.00  0.00    +0.000 C 
ENDBRANCH  18  23
ENDBRANCH   9  16
BRANCH   8  25
ATOM     25  O   UNL     1     112.215 129.368 135.962  0.00  0.00    +0.000 OA
ATOM     26  C   UNL     1     112.854 129.794 136.606  0.00  0.00    +0.000 C 
ENDBRANCH   8  25
TORSDOF 3
ENDMDL
MODEL 7
REMARK VINA RESULT:      -7.3      2.774      5.634
REMARK  Name = 
REMARK  3 active torsions:
REMARK  status: ('A' for Active; 'I' for Inactive)
REMARK    1  A    between atoms: C_8  and  O_20
REMARK    2  A    between atoms: C_9  and  C_11
REMARK    3  A    between atoms: C_13  and  O_22
REMARK                            x       y       z     vdW  Elec       q    Type
REMARK                         _______ _______ _______ _____ _____    ______ ____
ROOT
ATOM      1  C   UNL     1     109.373 126.053 140.354  0.00  0.00    +0.000 A 
ATOM      2  C   UNL     1     109.712 126.472 141.190  0.00  0.00    +0.000 A 
ATOM      3  C   UNL     1     110.682 126.767 141.276  0.00  0.00    +0.000 A 
ATOM      4  C   UNL     1     109.983 125.903 139.554  0.00  0.00    +0.000 A 
ATOM      5  C   UNL     1     110.953 126.197 139.641  0.00  0.00    +0.000 A 
ATOM      6  C   UNL     1     111.292 126.616 140.477  0.00  0.00    +0.000 A 
ATOM      7  C   UNL     1     112.250 126.897 140.537  0.00  0.00    +0.000 A 
ATOM      8  C   UNL     1     112.871 126.760 139.764  0.00  0.00    +0.000 A 
ATOM      9  C   UNL     1     112.532 126.341 138.928  0.00  0.00    +0.000 A 
ATOM     10  O   UNL     1     111.562 126.047 138.842  0.00  0.00    +0.000 OA
ATOM     11  O   UNL     1     112.599 127.329 141.399  0.00  0.00    +0.000 OA
ATOM     12  O   UNL     1     111.021 127.186 142.111  0.00  0.00    +0.000 OA
ATOM     13  O   UNL     1     108.460 125.861 140.488  0.00  0.00    +0.000 OA
ATOM     14  C   UNL     1     108.217 126.142 141.370  0.00  0.00    +0.000 C 
ATOM     15  O   UNL     1     108.979 126.502 141.767  0.00  0.00    +0.000 OA
ENDROOT
BRANCH   9  16
ATOM     16  C   UNL     1     113.180 126.206 138.142  0.00  0.00    +0.000 A 
ATOM     17  C   UNL     1     113.276 126.894 137.458  0.00  0.00    +0.000 A 
ATOM     18  C   UNL     1     113.925 126.759 136.671  0.00  0.00    +0.000 A 
ATOM     19  C   UNL     1     114.466 125.891 136.619  0.00  0.00    +0.000 A 
ATOM     20  C   UNL     1     114.343 125.184 137.356  0.00  0.00    +0.000 A 
ATOM     21  C   UNL     1     113.722 125.339 138.090  0.00  0.00    +0.000 A 
ATOM     22  O   UNL     1     115.101 125.746 135.858  0.00  0.00    +0.000 OA
BRANCH  18  23
ATOM     23  O   UNL     1     114.034 127.456 135.961  0.00  0.00    +0.000 OA
ATOM     24  C   UNL     1     113.678 128.394 136.132  0.00  0.00    +0.000 C 
ENDBRANCH  18  23
ENDBRANCH   9  16
BRANCH   8  25
ATOM     25  O   UNL     1     113.858 127.044 139.812  0.00  0.00    +0.000 OA
ATOM     26  C   UNL     1     114.347 127.088 140.684  0.00  0.00    +0.000 C 
ENDBRANCH   8  25
TORSDOF 3
ENDMDL
MODEL 8
REMARK VINA RESULT:      -7.2      2.504      2.795
REMARK  Name = 
REMARK  3 active torsions:
REMARK  status: ('A' for Active; 'I' for Inactive)
REMARK    1  A    between atoms: C_8  and  O_20
REMARK    2  A    between atoms: C_9  and  C_11
REMARK    3  A    between atoms: C_13  and  O_22
REMARK                            x       y       z     vdW  Elec       q    Type
REMARK                         _______ _______ _______ _____ _____    ______ ____
ROOT
ATOM      1  C   UNL     1     111.248 130.635 137.004  0.00  0.00    +0.000 A 
ATOM      2  C   UNL     1     111.761 130.971 137.787  0.00  0.00    +0.000 A 
ATOM      3  C   UNL     1     112.288 130.338 138.383  0.00  0.00    +0.000 A 
ATOM      4  C   UNL     1     111.232 129.645 136.770  0.00  0.00    +0.000 A 
ATOM      5  C   UNL     1     111.760 129.013 137.367  0.00  0.00    +0.000 A 
ATOM      6  C   UNL     1     112.272 129.349 138.149  0.00  0.00    +0.000 A 
ATOM      7  C   UNL     1     112.784 128.707 138.721  0.00  0.00    +0.000 A 
ATOM      8  C   UNL     1     112.784 127.727 138.512  0.00  0.00    +0.000 A 
ATOM      9  C   UNL     1     112.272 127.391 137.729  0.00  0.00    +0.000 A 
ATOM     10  O   UNL     1     111.743 128.023 137.132  0.00  0.00    +0.000 OA
ATOM     11  O   UNL     1     113.312 129.054 139.528  0.00  0.00    +0.000 OA
ATOM     12  O   UNL     1     112.801 130.675 139.166  0.00  0.00    +0.000 OA
ATOM     13  O   UNL     1     110.839 131.379 136.596  0.00  0.00    +0.000 OA
ATOM     14  C   UNL     1     111.075 132.164 137.091  0.00  0.00    +0.000 C 
ATOM     15  O   UNL     1     111.624 131.895 137.794  0.00  0.00    +0.000 OA
ENDROOT
BRANCH   9  16
ATOM     16  C   UNL     1     112.280 126.383 137.526  0.00  0.00    +0.000 A 
ATOM     17  C   UNL     1     113.035 125.980 137.060  0.00  0.00    +0.000 A 
ATOM     18  C   UNL     1     113.044 124.972 136.856  0.00  0.00    +0.000 A 
ATOM     19  C   UNL     1     112.247 124.400 137.150  0.00  0.00    +0.000 A 
ATOM     20  C   UNL     1     111.464 124.854 137.640  0.00  0.00    +0.000 A 
ATOM     21  C   UNL     1     111.483 125.812 137.820  0.00  0.00    +0.000 A 
ATOM     22  O   UNL     1     112.242 123.418 136.959  0.00  0.00    +0.000 OA
BRANCH  18  23
ATOM     23  O   UNL     1     113.813 124.544 136.378  0.00  0.00    +0.000 OA
ATOM     24  C   UNL     1     114.712 125.021 136.363  0.00  0.00    +0.000 C 
ENDBRANCH  18  23
ENDBRANCH   9  16
BRANCH   8  25
ATOM     25  O   UNL     1     113.304 127.056 139.090  0.00  0.00    +0.000 OA
ATOM     26  C   UNL     1     113.269 127.090 140.090  0.00  0.00    +0.000 C 
ENDBRANCH   8  25
TORSDOF 3
ENDMDL
MODEL 9
REMARK VINA RESULT:      -7.2      2.208      5.666
REMARK  Name = 
REMARK  3 active torsions:
REMARK  status: ('A' for Active; 'I' for Inactive)
REMARK    1  A    between atoms: C_8  and  O_20
REMARK    2  A    between atoms: C_9  and  C_11
REMARK    3  A    between atoms: C_13  and  O_22
REMARK                            x       y       z     vdW  Elec       q    Type
REMARK                         _______ _______ _______ _____ _____    ______ ____
ROOT
ATOM      1  C   UNL     1     112.794 124.874 137.385  0.00  0.00    +0.000 A 
ATOM      2  C   UNL     1     111.847 124.749 137.660  0.00  0.00    +0.000 A 
ATOM      3  C   UNL     1     111.368 125.441 138.232  0.00  0.00    +0.000 A 
ATOM      4  C   UNL     1     113.320 125.699 137.665  0.00  0.00    +0.000 A 
ATOM      5  C   UNL     1     112.841 126.390 138.237  0.00  0.00    +0.000 A 
ATOM      6  C   UNL     1     111.894 126.265 138.512  0.00  0.00    +0.000 A 
ATOM      7  C   UNL     1     111.445 126.960 139.074  0.00  0.00    +0.000 A 
ATOM      8  C   UNL     1     111.941 127.780 139.363  0.00  0.00    +0.000 A 
ATOM      9  C   UNL     1     112.889 127.905 139.088  0.00  0.00    +0.000 A 
ATOM     10  O   UNL     1     113.368 127.213 138.516  0.00  0.00    +0.000 OA
ATOM     11  O   UNL     1     110.469 126.831 139.358  0.00  0.00    +0.000 OA
ATOM     12  O   UNL     1     110.421 125.316 138.507  0.00  0.00    +0.000 OA
ATOM     13  O   UNL     1     113.036 124.125 136.867  0.00  0.00    +0.000 OA
ATOM     14  C   UNL     1     112.280 123.540 136.808  0.00  0.00    +0.000 C 
ATOM     15  O   UNL     1     111.586 123.934 137.288  0.00  0.00    +0.000 OA
ENDROOT
BRANCH   9  16
ATOM     16  C   UNL     1     113.387 128.752 139.391  0.00  0.00    +0.000 A 
ATOM     17  C   UNL     1     113.463 129.519 138.796  0.00  0.00    +0.000 A 
ATOM     18  C   UNL     1     113.962 130.367 139.099  0.00  0.00    +0.000 A 
ATOM     19  C   UNL     1     114.375 130.389 140.035  0.00  0.00    +0.000 A 
ATOM     20  C   UNL     1     114.277 129.564 140.642  0.00  0.00    +0.000 A 
ATOM     21  C   UNL     1     113.799 128.775 140.328  0.00  0.00    +0.000 A 
ATOM     22  O   UNL     1     114.862 131.207 140.344  0.00  0.00    +0.000 OA
BRANCH  18  23
ATOM     23  O   UNL     1     114.049 131.163 138.498  0.00  0.00    +0.000 OA
ATOM     24  C   UNL     1     113.788 131.072 137.518  0.00  0.00    +0.000 C 
ENDBRANCH  18  23
ENDBRANCH   9  16
BRANCH   8  25
ATOM     25  O   UNL     1     111.494 128.502 139.941  0.00  0.00    +0.000 OA
ATOM     26  C   UNL     1     110.578 128.847 139.729  0.00  0.00    +0.000 C 
ENDBRANCH   8  25
TORSDOF 3
ENDMDL
MODEL 10
REMARK VINA RESULT:      -7.2      1.699      5.565
REMARK  Name = 
REMARK  3 active torsions:
REMARK  status: ('A' for Active; 'I' for Inactive)
REMARK    1  A    between atoms: C_8  and  O_20
REMARK    2  A    between atoms: C_9  and  C_11
REMARK    3  A    between atoms: C_13  and  O_22
REMARK                            x       y       z     vdW  Elec       q    Type
REMARK                         _______ _______ _______ _____ _____    ______ ____
ROOT
ATOM      1  C   UNL     1     111.897 124.579 137.450  0.00  0.00    +0.000 A 
ATOM      2  C   UNL     1     112.733 124.432 136.933  0.00  0.00    +0.000 A 
ATOM      3  C   UNL     1     113.310 125.213 136.630  0.00  0.00    +0.000 A 
ATOM      4  C   UNL     1     111.587 125.517 137.696  0.00  0.00    +0.000 A 
ATOM      5  C   UNL     1     112.164 126.297 137.392  0.00  0.00    +0.000 A 
ATOM      6  C   UNL     1     113.000 126.149 136.875  0.00  0.00    +0.000 A 
ATOM      7  C   UNL     1     113.551 126.934 136.588  0.00  0.00    +0.000 A 
ATOM      8  C   UNL     1     113.267 127.867 136.817  0.00  0.00    +0.000 A 
ATOM      9  C   UNL     1     112.431 128.014 137.334  0.00  0.00    +0.000 A 
ATOM     10  O   UNL     1     111.854 127.233 137.638  0.00  0.00    +0.000 OA
ATOM     11  O   UNL     1     114.413 126.782 136.054  0.00  0.00    +0.000 OA
ATOM     12  O   UNL     1     114.146 125.065 136.112  0.00  0.00    +0.000 OA
ATOM     13  O   UNL     1     111.524 123.732 137.626  0.00  0.00    +0.000 OA
ATOM     14  C   UNL     1     112.091 123.065 137.240  0.00  0.00    +0.000 C 
ATOM     15  O   UNL     1     112.803 123.506 136.834  0.00  0.00    +0.000 OA
ENDROOT
BRANCH   9  16
ATOM     16  C   UNL     1     112.152 128.977 137.562  0.00  0.00    +0.000 A 
ATOM     17  C   UNL     1     112.497 129.414 138.362  0.00  0.00    +0.000 A 
ATOM     18  C   UNL     1     112.217 130.377 138.591  0.00  0.00    +0.000 A 
ATOM     19  C   UNL     1     111.571 130.867 137.965  0.00  0.00    +0.000 A 
ATOM     20  C   UNL     1     111.223 130.379 137.129  0.00  0.00    +0.000 A 
ATOM     21  C   UNL     1     111.505 129.466 136.937  0.00  0.00    +0.000 A 
ATOM     22  O   UNL     1     111.290 131.805 138.175  0.00  0.00    +0.000 OA
BRANCH  18  23
ATOM     23  O   UNL     1     112.563 130.840 139.408  0.00  0.00    +0.000 OA
ATOM     24  C   UNL     1     113.027 130.289 140.128  0.00  0.00    +0.000 C 
ENDBRANCH  18  23
ENDBRANCH   9  16
BRANCH   8  25
ATOM     25  O   UNL     1     113.823 128.682 136.528  0.00  0.00    +0.000 OA
ATOM     26  C   UNL     1     114.201 128.756 135.604  0.00  0.00    +0.000 C 
ENDBRANCH   8  25
TORSDOF 3
ENDMDL
