MODEL 1
REMARK VINA RESULT:     -10.7      0.000      0.000
REMARK  Name = 44258168
REMARK  11 active torsions:
REMARK  status: ('A' for Active; 'I' for Inactive)
REMARK    1  A    between atoms: O_1  and  C_19
REMARK    2  A    between atoms: O_1  and  C_24
REMARK    3  A    between atoms: O_10  and  C_31
REMARK    4  A    between atoms: O_10  and  C_40
REMARK    5  A    between atoms: O_16  and  C_46
REMARK    6  A    between atoms: C_21  and  C_29
REMARK    7  A    between atoms: C_23  and  C_30
REMARK    8  A    between atoms: C_28  and  C_31
REMARK    9  A    between atoms: C_39  and  C_41
REMARK   10  A    between atoms: C_40  and  C_42
REMARK   11  A    between atoms: C_45  and  C_49
REMARK                            x       y       z     vdW  Elec       q    Type
REMARK                         _______ _______ _______ _____ _____    ______ ____
ROOT
ATOM      1  O   UNL     1     112.903 129.396 136.773  0.00  0.00    +0.000 OA
ATOM      2  O   UNL     1     111.034 129.462 135.153  0.00  0.00    +0.000 OA
ATOM      3  O   UNL     1     112.592 129.402 134.613  0.00  0.00    +0.000 OA
ATOM      4  C   UNL     1     111.502 129.448 136.503  0.00  0.00    +0.000 C 
ATOM      5  C   UNL     1     111.657 129.440 135.693  0.00  0.00    +0.000 C 
ATOM      6  C   UNL     1     112.124 129.426 137.043  0.00  0.00    +0.000 C 
ATOM      7  C   UNL     1     112.436 129.410 135.423  0.00  0.00    +0.000 C 
ATOM      8  C   UNL     1     113.059 129.388 135.964  0.00  0.00    +0.000 C 
ENDROOT
BRANCH   6  13
ATOM      9  O   UNL     1     112.241 128.033 137.920  0.00  0.00    +0.000 OA
ATOM     10  O   UNL     1     111.697 130.835 137.787  0.00  0.00    +0.000 OA
ATOM     11  O   UNL     1     111.494 129.473 140.317  0.00  0.00    +0.000 OA
ATOM     12  O   UNL     1     112.150 127.314 139.169  0.00  0.00    +0.000 OA
ATOM     13  C   UNL     1     111.969 129.433 137.854  0.00  0.00    +0.000 A 
ATOM     14  C   UNL     1     112.027 128.738 138.292  0.00  0.00    +0.000 A 
ATOM     15  C   UNL     1     111.755 130.139 138.226  0.00  0.00    +0.000 A 
ATOM     16  C   UNL     1     111.872 128.745 139.102  0.00  0.00    +0.000 A 
ATOM     17  C   UNL     1     111.600 130.147 139.035  0.00  0.00    +0.000 A 
ATOM     18  C   UNL     1     111.658 129.451 139.475  0.00  0.00    +0.000 A 
ATOM     19  C   UNL     1     111.936 128.014 139.548  0.00  0.00    +0.000 A 
ATOM     20  C   UNL     1     111.776 128.016 140.392  0.00  0.00    +0.000 A 
ATOM     21  C   UNL     1     111.553 128.751 140.780  0.00  0.00    +0.000 A 
BRANCH  21  23
ATOM     22  O   UNL     1     110.928 128.796 144.019  0.00  0.00    +0.000 OA
ATOM     23  C   UNL     1     111.397 128.762 141.590  0.00  0.00    +0.000 A 
ATOM     24  C   UNL     1     110.617 128.744 141.859  0.00  0.00    +0.000 A 
ATOM     25  C   UNL     1     112.020 128.791 142.130  0.00  0.00    +0.000 A 
ATOM     26  C   UNL     1     110.462 128.755 142.669  0.00  0.00    +0.000 A 
ATOM     27  C   UNL     1     111.864 128.803 142.939  0.00  0.00    +0.000 A 
ATOM     28  C   UNL     1     111.084 128.785 143.209  0.00  0.00    +0.000 A 
BRANCH  26  29
ATOM     29  O   UNL     1     109.682 128.737 142.940  0.00  0.00    +0.000 OA
ATOM     30  C   UNL     1     109.103 128.345 142.503  0.00  0.00    +0.000 C 
ENDBRANCH  26  29
ENDBRANCH  21  23
ENDBRANCH   6  13
BRANCH   8  32
ATOM     31  O   UNL     1     114.414 129.836 136.042  0.00  0.00    +0.000 OA
ATOM     32  C   UNL     1     113.838 129.358 135.694  0.00  0.00    +0.000 C 
ENDBRANCH   8  32
BRANCH   4  33
ATOM     33  O   UNL     1     110.722 129.478 136.774  0.00  0.00    +0.000 OA
BRANCH  33  38
ATOM     34  O   UNL     1     110.364 128.202 136.238  0.00  0.00    +0.000 OA
ATOM     35  O   UNL     1     109.170 129.999 136.569  0.00  0.00    +0.000 OA
ATOM     36  O   UNL     1     108.036 128.983 135.931  0.00  0.00    +0.000 OA
ATOM     37  O   UNL     1     108.455 127.447 135.497  0.00  0.00    +0.000 OA
ATOM     38  C   UNL     1     110.155 128.969 136.454  0.00  0.00    +0.000 C 
ATOM     39  C   UNL     1     109.379 129.230 136.352  0.00  0.00    +0.000 C 
ATOM     40  C   UNL     1     108.812 128.723 136.033  0.00  0.00    +0.000 C 
ATOM     41  C   UNL     1     109.022 127.954 135.816  0.00  0.00    +0.000 C 
ATOM     42  C   UNL     1     109.798 127.694 135.919  0.00  0.00    +0.000 C 
BRANCH  42  43
ATOM     43  C   UNL     1     110.007 126.926 135.702  0.00  0.00    +0.000 C 
BRANCH  43  44
ATOM     44  O   UNL     1     110.378 126.430 136.247  0.00  0.00    +0.000 OA
BRANCH  44  46
ATOM     45  O   UNL     1     110.459 125.226 135.481  0.00  0.00    +0.000 OA
ATOM     46  C   UNL     1     110.810 125.779 135.984  0.00  0.00    +0.000 C 
BRANCH  46  47
ATOM     47  C   UNL     1     111.594 125.679 136.224  0.00  0.00    +0.000 C 
ATOM     48  C   UNL     1     111.894 124.921 136.346  0.00  0.00    +0.000 C 
BRANCH  48  50
ATOM     49  O   UNL     1     115.027 124.523 137.304  0.00  0.00    +0.000 OA
ATOM     50  C   UNL     1     112.678 124.821 136.586  0.00  0.00    +0.000 A 
ATOM     51  C   UNL     1     112.889 124.171 137.047  0.00  0.00    +0.000 A 
ATOM     52  C   UNL     1     113.250 125.372 136.365  0.00  0.00    +0.000 A 
ATOM     53  C   UNL     1     113.671 124.071 137.286  0.00  0.00    +0.000 A 
ATOM     54  C   UNL     1     114.033 125.274 136.604  0.00  0.00    +0.000 A 
ATOM     55  C   UNL     1     114.243 124.623 137.064  0.00  0.00    +0.000 A 
ENDBRANCH  48  50
ENDBRANCH  46  47
ENDBRANCH  44  46
ENDBRANCH  43  44
ENDBRANCH  42  43
ENDBRANCH  33  38
ENDBRANCH   4  33
TORSDOF 11
ENDMDL
MODEL 2
REMARK VINA RESULT:     -10.5      1.995      6.146
REMARK  Name = 44258168
REMARK  11 active torsions:
REMARK  status: ('A' for Active; 'I' for Inactive)
REMARK    1  A    between atoms: O_1  and  C_19
REMARK    2  A    between atoms: O_1  and  C_24
REMARK    3  A    between atoms: O_10  and  C_31
REMARK    4  A    between atoms: O_10  and  C_40
REMARK    5  A    between atoms: O_16  and  C_46
REMARK    6  A    between atoms: C_21  and  C_29
REMARK    7  A    between atoms: C_23  and  C_30
REMARK    8  A    between atoms: C_28  and  C_31
REMARK    9  A    between atoms: C_39  and  C_41
REMARK   10  A    between atoms: C_40  and  C_42
REMARK   11  A    between atoms: C_45  and  C_49
REMARK                            x       y       z     vdW  Elec       q    Type
REMARK                         _______ _______ _______ _____ _____    ______ ____
ROOT
ATOM      1  O   UNL     1     114.154 129.733 140.352  0.00  0.00    +0.000 OA
ATOM      2  O   UNL     1     112.736 130.386 142.272  0.00  0.00    +0.000 OA
ATOM      3  O   UNL     1     113.980 131.359 141.797  0.00  0.00    +0.000 OA
ATOM      4  C   UNL     1     113.060 129.464 141.229  0.00  0.00    +0.000 C 
ATOM      5  C   UNL     1     113.208 130.169 141.632  0.00  0.00    +0.000 C 
ATOM      6  C   UNL     1     113.532 129.246 140.590  0.00  0.00    +0.000 C 
ATOM      7  C   UNL     1     113.831 130.655 141.395  0.00  0.00    +0.000 C 
ATOM      8  C   UNL     1     114.303 130.437 140.754  0.00  0.00    +0.000 C 
ENDROOT
BRANCH   6  13
ATOM      9  O   UNL     1     112.758 129.275 139.133  0.00  0.00    +0.000 OA
ATOM     10  O   UNL     1     114.009 127.807 141.243  0.00  0.00    +0.000 OA
ATOM     11  O   UNL     1     112.937 126.390 138.974  0.00  0.00    +0.000 OA
ATOM     12  O   UNL     1     112.209 128.602 137.980  0.00  0.00    +0.000 OA
ATOM     13  C   UNL     1     113.383 128.541 140.187  0.00  0.00    +0.000 A 
ATOM     14  C   UNL     1     112.997 128.555 139.459  0.00  0.00    +0.000 A 
ATOM     15  C   UNL     1     113.622 127.821 140.514  0.00  0.00    +0.000 A 
ATOM     16  C   UNL     1     112.848 127.851 139.056  0.00  0.00    +0.000 A 
ATOM     17  C   UNL     1     113.473 127.117 140.112  0.00  0.00    +0.000 A 
ATOM     18  C   UNL     1     113.086 127.131 139.383  0.00  0.00    +0.000 A 
ATOM     19  C   UNL     1     112.444 127.879 138.299  0.00  0.00    +0.000 A 
ATOM     20  C   UNL     1     112.286 127.148 137.875  0.00  0.00    +0.000 A 
ATOM     21  C   UNL     1     112.535 126.398 138.215  0.00  0.00    +0.000 A 
BRANCH  21  23
ATOM     22  O   UNL     1     111.947 123.573 136.614  0.00  0.00    +0.000 OA
ATOM     23  C   UNL     1     112.387 125.692 137.815  0.00  0.00    +0.000 A 
ATOM     24  C   UNL     1     112.979 125.350 137.353  0.00  0.00    +0.000 A 
ATOM     25  C   UNL     1     111.649 125.329 137.877  0.00  0.00    +0.000 A 
ATOM     26  C   UNL     1     112.832 124.643 136.953  0.00  0.00    +0.000 A 
ATOM     27  C   UNL     1     111.503 124.623 137.477  0.00  0.00    +0.000 A 
ATOM     28  C   UNL     1     112.094 124.280 137.014  0.00  0.00    +0.000 A 
BRANCH  26  29
ATOM     29  O   UNL     1     113.422 124.300 136.490  0.00  0.00    +0.000 OA
ATOM     30  C   UNL     1     114.215 124.480 136.633  0.00  0.00    +0.000 C 
ENDBRANCH  26  29
ENDBRANCH  21  23
ENDBRANCH   6  13
BRANCH   8  32
ATOM     31  O   UNL     1     115.683 130.609 140.422  0.00  0.00    +0.000 OA
ATOM     32  C   UNL     1     114.926 130.923 140.517  0.00  0.00    +0.000 C 
ENDBRANCH   8  32
BRANCH   4  33
ATOM     33  O   UNL     1     112.437 128.977 141.467  0.00  0.00    +0.000 OA
BRANCH  33  38
ATOM     34  O   UNL     1     111.405 129.903 141.121  0.00  0.00    +0.000 OA
ATOM     35  O   UNL     1     111.514 128.416 142.715  0.00  0.00    +0.000 OA
ATOM     36  O   UNL     1     110.021 129.062 142.993  0.00  0.00    +0.000 OA
ATOM     37  O   UNL     1     109.451 130.269 142.023  0.00  0.00    +0.000 OA
ATOM     38  C   UNL     1     111.690 129.300 141.606  0.00  0.00    +0.000 C 
ATOM     39  C   UNL     1     111.229 129.020 142.230  0.00  0.00    +0.000 C 
ATOM     40  C   UNL     1     110.483 129.342 142.369  0.00  0.00    +0.000 C 
ATOM     41  C   UNL     1     110.197 129.946 141.883  0.00  0.00    +0.000 C 
ATOM     42  C   UNL     1     110.659 130.227 141.259  0.00  0.00    +0.000 C 
BRANCH  42  43
ATOM     43  C   UNL     1     110.374 130.829 140.775  0.00  0.00    +0.000 C 
BRANCH  43  44
ATOM     44  O   UNL     1     110.337 130.721 139.958  0.00  0.00    +0.000 OA
BRANCH  44  46
ATOM     45  O   UNL     1     110.435 132.099 139.595  0.00  0.00    +0.000 OA
ATOM     46  C   UNL     1     110.121 131.347 139.467  0.00  0.00    +0.000 C 
BRANCH  46  47
ATOM     47  C   UNL     1     109.590 131.222 138.848  0.00  0.00    +0.000 C 
ATOM     48  C   UNL     1     109.813 131.390 138.072  0.00  0.00    +0.000 C 
BRANCH  48  50
ATOM     49  O   UNL     1     107.690 130.889 135.595  0.00  0.00    +0.000 OA
ATOM     50  C   UNL     1     109.282 131.265 137.453  0.00  0.00    +0.000 A 
ATOM     51  C   UNL     1     108.762 131.864 137.228  0.00  0.00    +0.000 A 
ATOM     52  C   UNL     1     109.272 130.541 137.058  0.00  0.00    +0.000 A 
ATOM     53  C   UNL     1     108.231 131.739 136.610  0.00  0.00    +0.000 A 
ATOM     54  C   UNL     1     108.742 130.415 136.439  0.00  0.00    +0.000 A 
ATOM     55  C   UNL     1     108.221 131.015 136.215  0.00  0.00    +0.000 A 
ENDBRANCH  48  50
ENDBRANCH  46  47
ENDBRANCH  44  46
ENDBRANCH  43  44
ENDBRANCH  42  43
ENDBRANCH  33  38
ENDBRANCH   4  33
TORSDOF 11
ENDMDL
MODEL 3
REMARK VINA RESULT:     -10.5      2.164      5.696
REMARK  Name = 44258168
REMARK  11 active torsions:
REMARK  status: ('A' for Active; 'I' for Inactive)
REMARK    1  A    between atoms: O_1  and  C_19
REMARK    2  A    between atoms: O_1  and  C_24
REMARK    3  A    between atoms: O_10  and  C_31
REMARK    4  A    between atoms: O_10  and  C_40
REMARK    5  A    between atoms: O_16  and  C_46
REMARK    6  A    between atoms: C_21  and  C_29
REMARK    7  A    between atoms: C_23  and  C_30
REMARK    8  A    between atoms: C_28  and  C_31
REMARK    9  A    between atoms: C_39  and  C_41
REMARK   10  A    between atoms: C_40  and  C_42
REMARK   11  A    between atoms: C_45  and  C_49
REMARK                            x       y       z     vdW  Elec       q    Type
REMARK                         _______ _______ _______ _____ _____    ______ ____
ROOT
ATOM      1  O   UNL     1     111.423 125.839 136.900  0.00  0.00    +0.000 OA
ATOM      2  O   UNL     1     110.574 124.932 139.040  0.00  0.00    +0.000 OA
ATOM      3  O   UNL     1     111.587 124.027 138.105  0.00  0.00    +0.000 OA
ATOM      4  C   UNL     1     110.634 125.990 138.081  0.00  0.00    +0.000 C 
ATOM      5  C   UNL     1     110.857 125.234 138.327  0.00  0.00    +0.000 C 
ATOM      6  C   UNL     1     110.916 126.292 137.368  0.00  0.00    +0.000 C 
ATOM      7  C   UNL     1     111.363 124.782 137.860  0.00  0.00    +0.000 C 
ATOM      8  C   UNL     1     111.646 125.084 137.146  0.00  0.00    +0.000 C 
ENDROOT
BRANCH   6  13
ATOM      9  O   UNL     1     109.444 126.529 136.661  0.00  0.00    +0.000 OA
ATOM     10  O   UNL     1     111.943 127.565 137.582  0.00  0.00    +0.000 OA
ATOM     11  O   UNL     1     110.029 129.350 136.377  0.00  0.00    +0.000 OA
ATOM     12  O   UNL     1     108.459 127.390 136.052  0.00  0.00    +0.000 OA
ATOM     13  C   UNL     1     110.693 127.047 137.122  0.00  0.00    +0.000 A 
ATOM     14  C   UNL     1     109.958 127.166 136.769  0.00  0.00    +0.000 A 
ATOM     15  C   UNL     1     111.207 127.685 137.229  0.00  0.00    +0.000 A 
ATOM     16  C   UNL     1     109.734 127.921 136.522  0.00  0.00    +0.000 A 
ATOM     17  C   UNL     1     110.985 128.439 136.983  0.00  0.00    +0.000 A 
ATOM     18  C   UNL     1     110.248 128.558 136.629  0.00  0.00    +0.000 A 
ATOM     19  C   UNL     1     108.965 128.031 136.156  0.00  0.00    +0.000 A 
ATOM     20  C   UNL     1     108.728 128.816 135.897  0.00  0.00    +0.000 A 
ATOM     21  C   UNL     1     109.263 129.480 136.009  0.00  0.00    +0.000 A 
BRANCH  21  23
ATOM     22  O   UNL     1     108.382 132.505 135.029  0.00  0.00    +0.000 OA
ATOM     23  C   UNL     1     109.043 130.236 135.763  0.00  0.00    +0.000 A 
ATOM     24  C   UNL     1     108.679 130.751 136.295  0.00  0.00    +0.000 A 
ATOM     25  C   UNL     1     109.187 130.476 134.987  0.00  0.00    +0.000 A 
ATOM     26  C   UNL     1     108.459 131.508 136.050  0.00  0.00    +0.000 A 
ATOM     27  C   UNL     1     108.967 131.232 134.743  0.00  0.00    +0.000 A 
ATOM     28  C   UNL     1     108.602 131.749 135.274  0.00  0.00    +0.000 A 
BRANCH  26  29
ATOM     29  O   UNL     1     108.095 132.024 136.580  0.00  0.00    +0.000 OA
ATOM     30  C   UNL     1     108.281 131.989 137.383  0.00  0.00    +0.000 C 
ENDBRANCH  26  29
ENDBRANCH  21  23
ENDBRANCH   6  13
BRANCH   8  32
ATOM     31  O   UNL     1     112.420 124.926 135.954  0.00  0.00    +0.000 OA
ATOM     32  C   UNL     1     112.153 124.631 136.678  0.00  0.00    +0.000 C 
ENDBRANCH   8  32
BRANCH   4  33
ATOM     33  O   UNL     1     110.126 126.443 138.549  0.00  0.00    +0.000 OA
BRANCH  33  38
ATOM     34  O   UNL     1     111.011 126.606 139.660  0.00  0.00    +0.000 OA
ATOM     35  O   UNL     1     108.850 126.308 139.586  0.00  0.00    +0.000 OA
ATOM     36  O   UNL     1     109.096 126.403 141.215  0.00  0.00    +0.000 OA
ATOM     37  O   UNL     1     110.619 126.634 141.807  0.00  0.00    +0.000 OA
ATOM     38  C   UNL     1     110.250 126.491 139.364  0.00  0.00    +0.000 C 
ATOM     39  C   UNL     1     109.612 126.423 139.882  0.00  0.00    +0.000 C 
ATOM     40  C   UNL     1     109.734 126.471 140.696  0.00  0.00    +0.000 C 
ATOM     41  C   UNL     1     110.497 126.586 140.993  0.00  0.00    +0.000 C 
ATOM     42  C   UNL     1     111.135 126.654 140.474  0.00  0.00    +0.000 C 
BRANCH  42  43
ATOM     43  C   UNL     1     111.896 126.769 140.770  0.00  0.00    +0.000 C 
BRANCH  43  44
ATOM     44  O   UNL     1     112.367 127.378 140.473  0.00  0.00    +0.000 OA
BRANCH  44  46
ATOM     45  O   UNL     1     113.637 126.792 140.766  0.00  0.00    +0.000 OA
ATOM     46  C   UNL     1     113.148 127.456 140.725  0.00  0.00    +0.000 C 
BRANCH  46  47
ATOM     47  C   UNL     1     113.442 128.198 140.937  0.00  0.00    +0.000 C 
ATOM     48  C   UNL     1     113.797 128.679 140.370  0.00  0.00    +0.000 C 
BRANCH  48  50
ATOM     49  O   UNL     1     114.974 131.643 141.216  0.00  0.00    +0.000 OA
ATOM     50  C   UNL     1     114.091 129.420 140.582  0.00  0.00    +0.000 A 
ATOM     51  C   UNL     1     113.636 129.927 141.047  0.00  0.00    +0.000 A 
ATOM     52  C   UNL     1     114.840 129.654 140.328  0.00  0.00    +0.000 A 
ATOM     53  C   UNL     1     113.930 130.668 141.258  0.00  0.00    +0.000 A 
ATOM     54  C   UNL     1     115.135 130.395 140.539  0.00  0.00    +0.000 A 
ATOM     55  C   UNL     1     114.680 130.901 141.004  0.00  0.00    +0.000 A 
ENDBRANCH  48  50
ENDBRANCH  46  47
ENDBRANCH  44  46
ENDBRANCH  43  44
ENDBRANCH  42  43
ENDBRANCH  33  38
ENDBRANCH   4  33
TORSDOF 11
ENDMDL
MODEL 4
REMARK VINA RESULT:     -10.5      2.160      4.511
REMARK  Name = 44258168
REMARK  11 active torsions:
REMARK  status: ('A' for Active; 'I' for Inactive)
REMARK    1  A    between atoms: O_1  and  C_19
REMARK    2  A    between atoms: O_1  and  C_24
REMARK    3  A    between atoms: O_10  and  C_31
REMARK    4  A    between atoms: O_10  and  C_40
REMARK    5  A    between atoms: O_16  and  C_46
REMARK    6  A    between atoms: C_21  and  C_29
REMARK    7  A    between atoms: C_23  and  C_30
REMARK    8  A    between atoms: C_28  and  C_31
REMARK    9  A    between atoms: C_39  and  C_41
REMARK   10  A    between atoms: C_40  and  C_42
REMARK   11  A    between atoms: C_45  and  C_49
REMARK                            x       y       z     vdW  Elec       q    Type
REMARK                         _______ _______ _______ _____ _____    ______ ____
ROOT
ATOM      1  O   UNL     1     113.391 125.829 137.350  0.00  0.00    +0.000 OA
ATOM      2  O   UNL     1     111.230 124.670 137.682  0.00  0.00    +0.000 OA
ATOM      3  O   UNL     1     112.221 124.227 136.441  0.00  0.00    +0.000 OA
ATOM      4  C   UNL     1     112.175 125.665 138.082  0.00  0.00    +0.000 C 
ATOM      5  C   UNL     1     111.950 125.057 137.572  0.00  0.00    +0.000 C 
ATOM      6  C   UNL     1     112.895 126.051 137.971  0.00  0.00    +0.000 C 
ATOM      7  C   UNL     1     112.446 124.835 136.951  0.00  0.00    +0.000 C 
ATOM      8  C   UNL     1     113.166 125.222 136.840  0.00  0.00    +0.000 C 
ENDROOT
BRANCH   6  13
ATOM      9  O   UNL     1     112.760 127.624 137.491  0.00  0.00    +0.000 OA
ATOM     10  O   UNL     1     113.481 125.694 139.471  0.00  0.00    +0.000 OA
ATOM     11  O   UNL     1     113.809 128.499 140.043  0.00  0.00    +0.000 OA
ATOM     12  O   UNL     1     112.909 129.038 137.739  0.00  0.00    +0.000 OA
ATOM     13  C   UNL     1     113.120 126.660 138.481  0.00  0.00    +0.000 A 
ATOM     14  C   UNL     1     113.053 127.446 138.241  0.00  0.00    +0.000 A 
ATOM     15  C   UNL     1     113.414 126.481 139.232  0.00  0.00    +0.000 A 
ATOM     16  C   UNL     1     113.278 128.054 138.751  0.00  0.00    +0.000 A 
ATOM     17  C   UNL     1     113.639 127.088 139.742  0.00  0.00    +0.000 A 
ATOM     18  C   UNL     1     113.571 127.875 139.503  0.00  0.00    +0.000 A 
ATOM     19  C   UNL     1     113.203 128.869 138.490  0.00  0.00    +0.000 A 
ATOM     20  C   UNL     1     113.436 129.507 139.017  0.00  0.00    +0.000 A 
ATOM     21  C   UNL     1     113.741 129.320 139.799  0.00  0.00    +0.000 A 
BRANCH  21  23
ATOM     22  O   UNL     1     114.645 131.743 141.849  0.00  0.00    +0.000 OA
ATOM     23  C   UNL     1     113.967 129.926 140.311  0.00  0.00    +0.000 A 
ATOM     24  C   UNL     1     113.431 130.218 140.866  0.00  0.00    +0.000 A 
ATOM     25  C   UNL     1     114.729 130.240 140.269  0.00  0.00    +0.000 A 
ATOM     26  C   UNL     1     113.657 130.823 141.379  0.00  0.00    +0.000 A 
ATOM     27  C   UNL     1     114.955 130.845 140.781  0.00  0.00    +0.000 A 
ATOM     28  C   UNL     1     114.418 131.137 141.336  0.00  0.00    +0.000 A 
BRANCH  26  29
ATOM     29  O   UNL     1     113.121 131.115 141.934  0.00  0.00    +0.000 OA
ATOM     30  C   UNL     1     112.563 130.612 142.273  0.00  0.00    +0.000 C 
ENDBRANCH  26  29
ENDBRANCH  21  23
ENDBRANCH   6  13
BRANCH   8  32
ATOM     31  O   UNL     1     114.470 124.894 136.354  0.00  0.00    +0.000 OA
ATOM     32  C   UNL     1     113.662 125.000 136.219  0.00  0.00    +0.000 C 
ENDBRANCH   8  32
BRANCH   4  33
ATOM     33  O   UNL     1     111.679 125.887 138.703  0.00  0.00    +0.000 OA
BRANCH  33  38
ATOM     34  O   UNL     1     110.647 126.393 137.853  0.00  0.00    +0.000 OA
ATOM     35  O   UNL     1     110.547 125.473 139.830  0.00  0.00    +0.000 OA
ATOM     36  O   UNL     1     108.950 125.771 139.544  0.00  0.00    +0.000 OA
ATOM     37  O   UNL     1     108.484 126.484 138.131  0.00  0.00    +0.000 OA
ATOM     38  C   UNL     1     110.880 126.037 138.559  0.00  0.00    +0.000 C 
ATOM     39  C   UNL     1     110.314 125.830 139.123  0.00  0.00    +0.000 C 
ATOM     40  C   UNL     1     109.515 125.978 138.981  0.00  0.00    +0.000 C 
ATOM     41  C   UNL     1     109.283 126.335 138.273  0.00  0.00    +0.000 C 
ATOM     42  C   UNL     1     109.848 126.542 137.710  0.00  0.00    +0.000 C 
BRANCH  42  43
ATOM     43  C   UNL     1     109.615 126.898 137.004  0.00  0.00    +0.000 C 
BRANCH  43  44
ATOM     44  O   UNL     1     109.899 127.647 136.805  0.00  0.00    +0.000 OA
BRANCH  44  46
ATOM     45  O   UNL     1     109.908 127.459 135.389  0.00  0.00    +0.000 OA
ATOM     46  C   UNL     1     109.784 127.945 136.045  0.00  0.00    +0.000 C 
BRANCH  46  47
ATOM     47  C   UNL     1     109.544 128.727 135.939  0.00  0.00    +0.000 C 
ATOM     48  C   UNL     1     110.053 129.270 135.584  0.00  0.00    +0.000 C 
BRANCH  48  50
ATOM     49  O   UNL     1     109.096 132.400 135.163  0.00  0.00    +0.000 OA
ATOM     50  C   UNL     1     109.813 130.053 135.478  0.00  0.00    +0.000 A 
ATOM     51  C   UNL     1     109.422 130.275 134.788  0.00  0.00    +0.000 A 
ATOM     52  C   UNL     1     109.966 130.613 136.064  0.00  0.00    +0.000 A 
ATOM     53  C   UNL     1     109.183 131.057 134.682  0.00  0.00    +0.000 A 
ATOM     54  C   UNL     1     109.727 131.396 135.959  0.00  0.00    +0.000 A 
ATOM     55  C   UNL     1     109.336 131.617 135.268  0.00  0.00    +0.000 A 
ENDBRANCH  48  50
ENDBRANCH  46  47
ENDBRANCH  44  46
ENDBRANCH  43  44
ENDBRANCH  42  43
ENDBRANCH  33  38
ENDBRANCH   4  33
TORSDOF 11
ENDMDL
MODEL 5
REMARK VINA RESULT:     -10.4      5.341      8.227
REMARK  Name = 44258168
REMARK  11 active torsions:
REMARK  status: ('A' for Active; 'I' for Inactive)
REMARK    1  A    between atoms: O_1  and  C_19
REMARK    2  A    between atoms: O_1  and  C_24
REMARK    3  A    between atoms: O_10  and  C_31
REMARK    4  A    between atoms: O_10  and  C_40
REMARK    5  A    between atoms: O_16  and  C_46
REMARK    6  A    between atoms: C_21  and  C_29
REMARK    7  A    between atoms: C_23  and  C_30
REMARK    8  A    between atoms: C_28  and  C_31
REMARK    9  A    between atoms: C_39  and  C_41
REMARK   10  A    between atoms: C_40  and  C_42
REMARK   11  A    between atoms: C_45  and  C_49
REMARK                            x       y       z     vdW  Elec       q    Type
REMARK                         _______ _______ _______ _____ _____    ______ ____
ROOT
ATOM      1  O   UNL     1     105.355 128.022 143.189  0.00  0.00    +0.000 OA
ATOM      2  O   UNL     1     107.173 128.630 141.624  0.00  0.00    +0.000 OA
ATOM      3  O   UNL     1     105.601 128.894 141.204  0.00  0.00    +0.000 OA
ATOM      4  C   UNL     1     106.747 128.092 142.878  0.00  0.00    +0.000 C 
ATOM      5  C   UNL     1     106.567 128.427 142.146  0.00  0.00    +0.000 C 
ATOM      6  C   UNL     1     106.142 127.889 143.399  0.00  0.00    +0.000 C 
ATOM      7  C   UNL     1     105.781 128.559 141.935  0.00  0.00    +0.000 C 
ATOM      8  C   UNL     1     105.175 128.356 142.457  0.00  0.00    +0.000 C 
ENDROOT
BRANCH   6  13
ATOM      9  O   UNL     1     105.953 126.267 143.634  0.00  0.00    +0.000 OA
ATOM     10  O   UNL     1     106.690 128.843 144.629  0.00  0.00    +0.000 OA
ATOM     11  O   UNL     1     106.872 126.550 146.364  0.00  0.00    +0.000 OA
ATOM     12  O   UNL     1     106.030 125.094 144.471  0.00  0.00    +0.000 OA
ATOM     13  C   UNL     1     106.321 127.554 144.132  0.00  0.00    +0.000 A 
ATOM     14  C   UNL     1     106.227 126.744 144.249  0.00  0.00    +0.000 A 
ATOM     15  C   UNL     1     106.596 128.031 144.747  0.00  0.00    +0.000 A 
ATOM     16  C   UNL     1     106.407 126.408 144.981  0.00  0.00    +0.000 A 
ATOM     17  C   UNL     1     106.776 127.697 145.479  0.00  0.00    +0.000 A 
ATOM     18  C   UNL     1     106.681 126.886 145.597  0.00  0.00    +0.000 A 
ATOM     19  C   UNL     1     106.304 125.563 145.091  0.00  0.00    +0.000 A 
ATOM     20  C   UNL     1     106.490 125.208 145.852  0.00  0.00    +0.000 A 
ATOM     21  C   UNL     1     106.776 125.705 146.493  0.00  0.00    +0.000 A 
BRANCH  21  23
ATOM     22  O   UNL     1     107.497 124.378 149.427  0.00  0.00    +0.000 OA
ATOM     23  C   UNL     1     106.956 125.373 147.226  0.00  0.00    +0.000 A 
ATOM     24  C   UNL     1     106.349 125.157 147.741  0.00  0.00    +0.000 A 
ATOM     25  C   UNL     1     107.744 125.258 147.444  0.00  0.00    +0.000 A 
ATOM     26  C   UNL     1     106.529 124.825 148.475  0.00  0.00    +0.000 A 
ATOM     27  C   UNL     1     107.923 124.926 148.177  0.00  0.00    +0.000 A 
ATOM     28  C   UNL     1     107.316 124.709 148.693  0.00  0.00    +0.000 A 
BRANCH  26  29
ATOM     29  O   UNL     1     105.923 124.609 148.990  0.00  0.00    +0.000 OA
ATOM     30  C   UNL     1     105.226 125.050 149.016  0.00  0.00    +0.000 C 
ENDBRANCH  26  29
ENDBRANCH  21  23
ENDBRANCH   6  13
BRANCH   8  32
ATOM     31  O   UNL     1     103.912 128.974 142.714  0.00  0.00    +0.000 OA
ATOM     32  C   UNL     1     104.388 128.489 142.247  0.00  0.00    +0.000 C 
ENDBRANCH   8  32
BRANCH   4  33
ATOM     33  O   UNL     1     107.535 127.959 143.089  0.00  0.00    +0.000 OA
BRANCH  33  38
ATOM     34  O   UNL     1     107.814 126.937 142.130  0.00  0.00    +0.000 OA
ATOM     35  O   UNL     1     109.043 128.588 142.857  0.00  0.00    +0.000 OA
ATOM     36  O   UNL     1     110.076 127.880 141.783  0.00  0.00    +0.000 OA
ATOM     37  O   UNL     1     109.601 126.543 140.940  0.00  0.00    +0.000 OA
ATOM     38  C   UNL     1     108.051 127.605 142.551  0.00  0.00    +0.000 C 
ATOM     39  C   UNL     1     108.805 127.919 142.436  0.00  0.00    +0.000 C 
ATOM     40  C   UNL     1     109.322 127.566 141.899  0.00  0.00    +0.000 C 
ATOM     41  C   UNL     1     109.084 126.897 141.477  0.00  0.00    +0.000 C 
ATOM     42  C   UNL     1     108.330 126.582 141.593  0.00  0.00    +0.000 C 
BRANCH  42  43
ATOM     43  C   UNL     1     108.093 125.914 141.172  0.00  0.00    +0.000 C 
BRANCH  43  44
ATOM     44  O   UNL     1     107.372 125.553 141.343  0.00  0.00    +0.000 OA
BRANCH  44  46
ATOM     45  O   UNL     1     107.587 124.145 141.227  0.00  0.00    +0.000 OA
ATOM     46  C   UNL     1     107.182 124.828 140.999  0.00  0.00    +0.000 C 
BRANCH  46  47
ATOM     47  C   UNL     1     106.587 124.784 140.429  0.00  0.00    +0.000 C 
ATOM     48  C   UNL     1     105.909 124.338 140.573  0.00  0.00    +0.000 C 
BRANCH  48  50
ATOM     49  O   UNL     1     103.532 124.159 138.290  0.00  0.00    +0.000 OA
ATOM     50  C   UNL     1     105.314 124.294 140.002  0.00  0.00    +0.000 A 
ATOM     51  C   UNL     1     104.891 124.970 139.794  0.00  0.00    +0.000 A 
ATOM     52  C   UNL     1     105.143 123.573 139.640  0.00  0.00    +0.000 A 
ATOM     53  C   UNL     1     104.297 124.926 139.223  0.00  0.00    +0.000 A 
ATOM     54  C   UNL     1     104.549 123.527 139.069  0.00  0.00    +0.000 A 
ATOM     55  C   UNL     1     104.127 124.204 138.861  0.00  0.00    +0.000 A 
ENDBRANCH  48  50
ENDBRANCH  46  47
ENDBRANCH  44  46
ENDBRANCH  43  44
ENDBRANCH  42  43
ENDBRANCH  33  38
ENDBRANCH   4  33
TORSDOF 11
ENDMDL
MODEL 6
REMARK VINA RESULT:     -10.3      7.227     12.380
REMARK  Name = 44258168
REMARK  11 active torsions:
REMARK  status: ('A' for Active; 'I' for Inactive)
REMARK    1  A    between atoms: O_1  and  C_19
REMARK    2  A    between atoms: O_1  and  C_24
REMARK    3  A    between atoms: O_10  and  C_31
REMARK    4  A    between atoms: O_10  and  C_40
REMARK    5  A    between atoms: O_16  and  C_46
REMARK    6  A    between atoms: C_21  and  C_29
REMARK    7  A    between atoms: C_23  and  C_30
REMARK    8  A    between atoms: C_28  and  C_31
REMARK    9  A    between atoms: C_39  and  C_41
REMARK   10  A    between atoms: C_40  and  C_42
REMARK   11  A    between atoms: C_45  and  C_49
REMARK                            x       y       z     vdW  Elec       q    Type
REMARK                         _______ _______ _______ _____ _____    ______ ____
ROOT
ATOM      1  O   UNL     1     106.813 125.701 146.726  0.00  0.00    +0.000 OA
ATOM      2  O   UNL     1     105.239 123.931 147.443  0.00  0.00    +0.000 OA
ATOM      3  O   UNL     1     106.627 124.194 148.294  0.00  0.00    +0.000 OA
ATOM      4  C   UNL     1     105.595 124.979 146.539  0.00  0.00    +0.000 C 
ATOM      5  C   UNL     1     105.764 124.520 147.204  0.00  0.00    +0.000 C 
ATOM      6  C   UNL     1     106.119 125.569 146.300  0.00  0.00    +0.000 C 
ATOM      7  C   UNL     1     106.458 124.652 147.630  0.00  0.00    +0.000 C 
ATOM      8  C   UNL     1     106.982 125.243 147.390  0.00  0.00    +0.000 C 
ENDROOT
BRANCH   6  13
ATOM      9  O   UNL     1     105.584 127.119 146.480  0.00  0.00    +0.000 OA
ATOM     10  O   UNL     1     106.317 124.934 144.790  0.00  0.00    +0.000 OA
ATOM     11  O   UNL     1     105.441 127.409 143.603  0.00  0.00    +0.000 OA
ATOM     12  O   UNL     1     105.141 128.375 145.924  0.00  0.00    +0.000 OA
ATOM     13  C   UNL     1     105.950 126.027 145.635  0.00  0.00    +0.000 A 
ATOM     14  C   UNL     1     105.683 126.802 145.725  0.00  0.00    +0.000 A 
ATOM     15  C   UNL     1     106.049 125.710 144.879  0.00  0.00    +0.000 A 
ATOM     16  C   UNL     1     105.514 127.261 145.060  0.00  0.00    +0.000 A 
ATOM     17  C   UNL     1     105.881 126.167 144.215  0.00  0.00    +0.000 A 
ATOM     18  C   UNL     1     105.613 126.943 144.304  0.00  0.00    +0.000 A 
ATOM     19  C   UNL     1     105.237 128.066 145.167  0.00  0.00    +0.000 A 
ATOM     20  C   UNL     1     105.059 128.549 144.477  0.00  0.00    +0.000 A 
ATOM     21  C   UNL     1     105.162 128.218 143.690  0.00  0.00    +0.000 A 
BRANCH  21  23
ATOM     22  O   UNL     1     104.493 130.041 141.023  0.00  0.00    +0.000 OA
ATOM     23  C   UNL     1     104.995 128.674 143.023  0.00  0.00    +0.000 A 
ATOM     24  C   UNL     1     105.608 128.929 142.535  0.00  0.00    +0.000 A 
ATOM     25  C   UNL     1     104.214 128.873 142.846  0.00  0.00    +0.000 A 
ATOM     26  C   UNL     1     105.440 129.385 141.868  0.00  0.00    +0.000 A 
ATOM     27  C   UNL     1     104.047 129.329 142.180  0.00  0.00    +0.000 A 
ATOM     28  C   UNL     1     104.661 129.585 141.690  0.00  0.00    +0.000 A 
BRANCH  26  29
ATOM     29  O   UNL     1     106.053 129.641 141.378  0.00  0.00    +0.000 OA
ATOM     30  C   UNL     1     106.786 129.836 141.703  0.00  0.00    +0.000 C 
ENDBRANCH  26  29
ENDBRANCH  21  23
ENDBRANCH   6  13
BRANCH   8  32
ATOM     31  O   UNL     1     108.401 125.411 147.423  0.00  0.00    +0.000 OA
ATOM     32  C   UNL     1     107.676 125.375 147.816  0.00  0.00    +0.000 C 
ENDBRANCH   8  32
BRANCH   4  33
ATOM     33  O   UNL     1     104.900 124.847 146.112  0.00  0.00    +0.000 OA
BRANCH  33  38
ATOM     34  O   UNL     1     103.999 125.306 147.122  0.00  0.00    +0.000 OA
ATOM     35  O   UNL     1     103.818 123.680 145.677  0.00  0.00    +0.000 OA
ATOM     36  O   UNL     1     102.376 123.555 146.468  0.00  0.00    +0.000 OA
ATOM     37  O   UNL     1     102.015 124.598 147.695  0.00  0.00    +0.000 OA
ATOM     38  C   UNL     1     104.179 124.785 146.509  0.00  0.00    +0.000 C 
ATOM     39  C   UNL     1     103.638 124.202 146.291  0.00  0.00    +0.000 C 
ATOM     40  C   UNL     1     102.917 124.139 146.686  0.00  0.00    +0.000 C 
ATOM     41  C   UNL     1     102.736 124.661 147.300  0.00  0.00    +0.000 C 
ATOM     42  C   UNL     1     103.277 125.244 147.518  0.00  0.00    +0.000 C 
BRANCH  42  43
ATOM     43  C   UNL     1     103.097 125.765 148.131  0.00  0.00    +0.000 C 
BRANCH  43  44
ATOM     44  O   UNL     1     103.218 126.575 148.034  0.00  0.00    +0.000 OA
BRANCH  44  46
ATOM     45  O   UNL     1     103.272 126.925 149.419  0.00  0.00    +0.000 OA
ATOM     46  C   UNL     1     103.035 127.096 148.646  0.00  0.00    +0.000 C 
BRANCH  46  47
ATOM     47  C   UNL     1     102.616 127.789 148.488  0.00  0.00    +0.000 C 
ATOM     48  C   UNL     1     102.929 128.520 148.706  0.00  0.00    +0.000 C 
BRANCH  48  50
ATOM     49  O   UNL     1     101.255 131.292 148.071  0.00  0.00    +0.000 OA
ATOM     50  C   UNL     1     102.510 129.213 148.547  0.00  0.00    +0.000 A 
ATOM     51  C   UNL     1     101.752 129.316 148.854  0.00  0.00    +0.000 A 
ATOM     52  C   UNL     1     102.850 129.803 148.082  0.00  0.00    +0.000 A 
ATOM     53  C   UNL     1     101.333 130.008 148.695  0.00  0.00    +0.000 A 
ATOM     54  C   UNL     1     102.432 130.496 147.923  0.00  0.00    +0.000 A 
ATOM     55  C   UNL     1     101.674 130.599 148.230  0.00  0.00    +0.000 A 
ENDBRANCH  48  50
ENDBRANCH  46  47
ENDBRANCH  44  46
ENDBRANCH  43  44
ENDBRANCH  42  43
ENDBRANCH  33  38
ENDBRANCH   4  33
TORSDOF 11
ENDMDL
MODEL 7
REMARK VINA RESULT:     -10.3      1.710      2.550
REMARK  Name = 44258168
REMARK  11 active torsions:
REMARK  status: ('A' for Active; 'I' for Inactive)
REMARK    1  A    between atoms: O_1  and  C_19
REMARK    2  A    between atoms: O_1  and  C_24
REMARK    3  A    between atoms: O_10  and  C_31
REMARK    4  A    between atoms: O_10  and  C_40
REMARK    5  A    between atoms: O_16  and  C_46
REMARK    6  A    between atoms: C_21  and  C_29
REMARK    7  A    between atoms: C_23  and  C_30
REMARK    8  A    between atoms: C_28  and  C_31
REMARK    9  A    between atoms: C_39  and  C_41
REMARK   10  A    between atoms: C_40  and  C_42
REMARK   11  A    between atoms: C_45  and  C_49
REMARK                            x       y       z     vdW  Elec       q    Type
REMARK                         _______ _______ _______ _____ _____    ______ ____
ROOT
ATOM      1  O   UNL     1     110.441 132.511 137.417  0.00  0.00    +0.000 OA
ATOM      2  O   UNL     1     109.045 131.385 135.712  0.00  0.00    +0.000 OA
ATOM      3  O   UNL     1     109.749 132.837 135.373  0.00  0.00    +0.000 OA
ATOM      4  C   UNL     1     109.624 131.409 137.018  0.00  0.00    +0.000 C 
ATOM      5  C   UNL     1     109.510 131.760 136.280  0.00  0.00    +0.000 C 
ATOM      6  C   UNL     1     110.089 131.784 137.586  0.00  0.00    +0.000 C 
ATOM      7  C   UNL     1     109.862 132.486 136.111  0.00  0.00    +0.000 C 
ATOM      8  C   UNL     1     110.327 132.861 136.680  0.00  0.00    +0.000 C 
ENDROOT
BRANCH   6  13
ATOM      9  O   UNL     1     111.525 131.054 137.942  0.00  0.00    +0.000 OA
ATOM     10  O   UNL     1     108.879 131.813 138.708  0.00  0.00    +0.000 OA
ATOM     11  O   UNL     1     110.534 130.370 140.574  0.00  0.00    +0.000 OA
ATOM     12  O   UNL     1     112.386 130.331 138.847  0.00  0.00    +0.000 OA
ATOM     13  C   UNL     1     110.203 131.433 138.325  0.00  0.00    +0.000 A 
ATOM     14  C   UNL     1     110.920 131.068 138.502  0.00  0.00    +0.000 A 
ATOM     15  C   UNL     1     109.597 131.447 138.886  0.00  0.00    +0.000 A 
ATOM     16  C   UNL     1     111.034 130.717 139.240  0.00  0.00    +0.000 A 
ATOM     17  C   UNL     1     109.710 131.097 139.623  0.00  0.00    +0.000 A 
ATOM     18  C   UNL     1     110.428 130.732 139.802  0.00  0.00    +0.000 A 
ATOM     19  C   UNL     1     111.786 130.341 139.413  0.00  0.00    +0.000 A 
ATOM     20  C   UNL     1     111.911 129.973 140.180  0.00  0.00    +0.000 A 
ATOM     21  C   UNL     1     111.280 129.988 140.765  0.00  0.00    +0.000 A 
BRANCH  21  23
ATOM     22  O   UNL     1     111.721 128.588 143.720  0.00  0.00    +0.000 OA
ATOM     23  C   UNL     1     111.390 129.639 141.504  0.00  0.00    +0.000 A 
ATOM     24  C   UNL     1     111.144 128.862 141.633  0.00  0.00    +0.000 A 
ATOM     25  C   UNL     1     111.747 130.065 142.113  0.00  0.00    +0.000 A 
ATOM     26  C   UNL     1     111.254 128.512 142.372  0.00  0.00    +0.000 A 
ATOM     27  C   UNL     1     111.857 129.716 142.851  0.00  0.00    +0.000 A 
ATOM     28  C   UNL     1     111.611 128.938 142.981  0.00  0.00    +0.000 A 
BRANCH  26  29
ATOM     29  O   UNL     1     111.008 127.736 142.501  0.00  0.00    +0.000 OA
ATOM     30  C   UNL     1     110.726 127.282 141.872  0.00  0.00    +0.000 C 
ENDBRANCH  26  29
ENDBRANCH  21  23
ENDBRANCH   6  13
BRANCH   8  32
ATOM     31  O   UNL     1     110.681 134.188 137.078  0.00  0.00    +0.000 OA
ATOM     32  C   UNL     1     110.679 133.588 136.510  0.00  0.00    +0.000 C 
ENDBRANCH   8  32
BRANCH   4  33
ATOM     33  O   UNL     1     109.272 130.681 137.188  0.00  0.00    +0.000 OA
BRANCH  33  38
ATOM     34  O   UNL     1     110.077 129.835 136.364  0.00  0.00    +0.000 OA
ATOM     35  O   UNL     1     107.919 129.877 136.692  0.00  0.00    +0.000 OA
ATOM     36  O   UNL     1     108.048 128.629 135.620  0.00  0.00    +0.000 OA
ATOM     37  O   UNL     1     109.529 128.185 135.045  0.00  0.00    +0.000 OA
ATOM     38  C   UNL     1     109.337 130.057 136.652  0.00  0.00    +0.000 C 
ATOM     39  C   UNL     1     108.661 129.655 136.404  0.00  0.00    +0.000 C 
ATOM     40  C   UNL     1     108.724 129.031 135.868  0.00  0.00    +0.000 C 
ATOM     41  C   UNL     1     109.466 128.809 135.580  0.00  0.00    +0.000 C 
ATOM     42  C   UNL     1     110.142 129.211 135.828  0.00  0.00    +0.000 C 
BRANCH  42  43
ATOM     43  C   UNL     1     110.882 128.990 135.541  0.00  0.00    +0.000 C 
BRANCH  43  44
ATOM     44  O   UNL     1     111.491 128.804 136.066  0.00  0.00    +0.000 OA
BRANCH  44  46
ATOM     45  O   UNL     1     112.627 128.964 135.213  0.00  0.00    +0.000 OA
ATOM     46  C   UNL     1     112.213 128.528 135.780  0.00  0.00    +0.000 C 
BRANCH  46  47
ATOM     47  C   UNL     1     112.523 127.816 136.059  0.00  0.00    +0.000 C 
ATOM     48  C   UNL     1     113.159 127.820 136.583  0.00  0.00    +0.000 C 
BRANCH  48  50
ATOM     49  O   UNL     1     114.398 124.974 137.703  0.00  0.00    +0.000 OA
ATOM     50  C   UNL     1     113.469 127.108 136.863  0.00  0.00    +0.000 A 
ATOM     51  C   UNL     1     113.906 126.623 136.360  0.00  0.00    +0.000 A 
ATOM     52  C   UNL     1     113.341 126.882 137.646  0.00  0.00    +0.000 A 
ATOM     53  C   UNL     1     114.216 125.912 136.639  0.00  0.00    +0.000 A 
ATOM     54  C   UNL     1     113.651 126.171 137.926  0.00  0.00    +0.000 A 
ATOM     55  C   UNL     1     114.088 125.686 137.423  0.00  0.00    +0.000 A 
ENDBRANCH  48  50
ENDBRANCH  46  47
ENDBRANCH  44  46
ENDBRANCH  43  44
ENDBRANCH  42  43
ENDBRANCH  33  38
ENDBRANCH   4  33
TORSDOF 11
ENDMDL
MODEL 8
REMARK VINA RESULT:     -10.2      3.974      6.226
REMARK  Name = 44258168
REMARK  11 active torsions:
REMARK  status: ('A' for Active; 'I' for Inactive)
REMARK    1  A    between atoms: O_1  and  C_19
REMARK    2  A    between atoms: O_1  and  C_24
REMARK    3  A    between atoms: O_10  and  C_31
REMARK    4  A    between atoms: O_10  and  C_40
REMARK    5  A    between atoms: O_16  and  C_46
REMARK    6  A    between atoms: C_21  and  C_29
REMARK    7  A    between atoms: C_23  and  C_30
REMARK    8  A    between atoms: C_28  and  C_31
REMARK    9  A    between atoms: C_39  and  C_41
REMARK   10  A    between atoms: C_40  and  C_42
REMARK   11  A    between atoms: C_45  and  C_49
REMARK                            x       y       z     vdW  Elec       q    Type
REMARK                         _______ _______ _______ _____ _____    ______ ____
ROOT
ATOM      1  O   UNL     1     110.308 130.867 141.736  0.00  0.00    +0.000 OA
ATOM      2  O   UNL     1     112.111 130.570 140.068  0.00  0.00    +0.000 OA
ATOM      3  O   UNL     1     110.532 130.501 139.597  0.00  0.00    +0.000 OA
ATOM      4  C   UNL     1     111.698 130.802 141.416  0.00  0.00    +0.000 C 
ATOM      5  C   UNL     1     111.510 130.669 140.624  0.00  0.00    +0.000 C 
ATOM      6  C   UNL     1     111.098 130.901 141.972  0.00  0.00    +0.000 C 
ATOM      7  C   UNL     1     110.721 130.634 140.388  0.00  0.00    +0.000 C 
ATOM      8  C   UNL     1     110.120 130.733 140.945  0.00  0.00    +0.000 C 
ENDROOT
BRANCH   6  13
ATOM      9  O   UNL     1     111.545 132.409 142.473  0.00  0.00    +0.000 OA
ATOM     10  O   UNL     1     111.026 129.660 143.057  0.00  0.00    +0.000 OA
ATOM     11  O   UNL     1     111.854 131.425 145.177  0.00  0.00    +0.000 OA
ATOM     12  O   UNL     1     111.962 133.325 143.507  0.00  0.00    +0.000 OA
ATOM     13  C   UNL     1     111.286 131.035 142.765  0.00  0.00    +0.000 A 
ATOM     14  C   UNL     1     111.509 131.788 143.015  0.00  0.00    +0.000 A 
ATOM     15  C   UNL     1     111.250 130.413 143.307  0.00  0.00    +0.000 A 
ATOM     16  C   UNL     1     111.697 131.921 143.807  0.00  0.00    +0.000 A 
ATOM     17  C   UNL     1     111.438 130.546 144.099  0.00  0.00    +0.000 A 
ATOM     18  C   UNL     1     111.661 131.300 144.350  0.00  0.00    +0.000 A 
ATOM     19  C   UNL     1     111.929 132.710 144.055  0.00  0.00    +0.000 A 
ATOM     20  C   UNL     1     112.126 132.856 144.879  0.00  0.00    +0.000 A 
ATOM     21  C   UNL     1     112.088 132.208 145.444  0.00  0.00    +0.000 A 
BRANCH  21  23
ATOM     22  O   UNL     1     112.836 132.729 148.616  0.00  0.00    +0.000 OA
ATOM     23  C   UNL     1     112.275 132.338 146.237  0.00  0.00    +0.000 A 
ATOM     24  C   UNL     1     111.753 132.755 146.721  0.00  0.00    +0.000 A 
ATOM     25  C   UNL     1     112.985 132.052 146.546  0.00  0.00    +0.000 A 
ATOM     26  C   UNL     1     111.940 132.885 147.513  0.00  0.00    +0.000 A 
ATOM     27  C   UNL     1     113.172 132.182 147.338  0.00  0.00    +0.000 A 
ATOM     28  C   UNL     1     112.649 132.599 147.823  0.00  0.00    +0.000 A 
BRANCH  26  29
ATOM     29  O   UNL     1     111.418 133.302 147.998  0.00  0.00    +0.000 OA
ATOM     30  C   UNL     1     110.638 133.422 147.756  0.00  0.00    +0.000 C 
ENDBRANCH  26  29
ENDBRANCH  21  23
ENDBRANCH   6  13
BRANCH   8  32
ATOM     31  O   UNL     1     108.795 131.270 140.972  0.00  0.00    +0.000 OA
ATOM     32  C   UNL     1     109.330 130.699 140.709  0.00  0.00    +0.000 C 
ENDBRANCH   8  32
BRANCH   4  33
ATOM     33  O   UNL     1     112.489 130.837 141.652  0.00  0.00    +0.000 OA
BRANCH  33  38
ATOM     34  O   UNL     1     112.798 129.488 141.297  0.00  0.00    +0.000 OA
ATOM     35  O   UNL     1     114.024 131.294 141.253  0.00  0.00    +0.000 OA
ATOM     36  O   UNL     1     115.100 130.173 140.698  0.00  0.00    +0.000 OA
ATOM     37  O   UNL     1     114.642 128.595 140.542  0.00  0.00    +0.000 OA
ATOM     38  C   UNL     1     113.027 130.276 141.375  0.00  0.00    +0.000 C 
ATOM     39  C   UNL     1     113.794 130.504 141.175  0.00  0.00    +0.000 C 
ATOM     40  C   UNL     1     114.333 129.945 140.898  0.00  0.00    +0.000 C 
ATOM     41  C   UNL     1     114.103 129.155 140.820  0.00  0.00    +0.000 C 
ATOM     42  C   UNL     1     113.336 128.927 141.019  0.00  0.00    +0.000 C 
BRANCH  42  43
ATOM     43  C   UNL     1     113.107 128.139 140.941  0.00  0.00    +0.000 C 
BRANCH  43  44
ATOM     44  O   UNL     1     112.448 127.857 141.349  0.00  0.00    +0.000 OA
BRANCH  44  46
ATOM     45  O   UNL     1     112.607 126.449 141.164  0.00  0.00    +0.000 OA
ATOM     46  C   UNL     1     112.128 127.122 141.160  0.00  0.00    +0.000 C 
BRANCH  46  47
ATOM     47  C   UNL     1     111.328 127.056 140.966  0.00  0.00    +0.000 C 
ATOM     48  C   UNL     1     110.819 126.626 141.451  0.00  0.00    +0.000 C 
BRANCH  48  50
ATOM     49  O   UNL     1     107.622 126.368 140.676  0.00  0.00    +0.000 OA
ATOM     50  C   UNL     1     110.020 126.561 141.257  0.00  0.00    +0.000 A 
ATOM     51  C   UNL     1     109.759 125.937 140.785  0.00  0.00    +0.000 A 
ATOM     52  C   UNL     1     109.481 127.121 141.535  0.00  0.00    +0.000 A 
ATOM     53  C   UNL     1     108.960 125.873 140.592  0.00  0.00    +0.000 A 
ATOM     54  C   UNL     1     108.682 127.057 141.342  0.00  0.00    +0.000 A 
ATOM     55  C   UNL     1     108.422 126.432 140.870  0.00  0.00    +0.000 A 
ENDBRANCH  48  50
ENDBRANCH  46  47
ENDBRANCH  44  46
ENDBRANCH  43  44
ENDBRANCH  42  43
ENDBRANCH  33  38
ENDBRANCH   4  33
TORSDOF 11
ENDMDL
MODEL 9
REMARK VINA RESULT:     -10.2      2.984      5.117
REMARK  Name = 44258168
REMARK  11 active torsions:
REMARK  status: ('A' for Active; 'I' for Inactive)
REMARK    1  A    between atoms: O_1  and  C_19
REMARK    2  A    between atoms: O_1  and  C_24
REMARK    3  A    between atoms: O_10  and  C_31
REMARK    4  A    between atoms: O_10  and  C_40
REMARK    5  A    between atoms: O_16  and  C_46
REMARK    6  A    between atoms: C_21  and  C_29
REMARK    7  A    between atoms: C_23  and  C_30
REMARK    8  A    between atoms: C_28  and  C_31
REMARK    9  A    between atoms: C_39  and  C_41
REMARK   10  A    between atoms: C_40  and  C_42
REMARK   11  A    between atoms: C_45  and  C_49
REMARK                            x       y       z     vdW  Elec       q    Type
REMARK                         _______ _______ _______ _____ _____    ______ ____
ROOT
ATOM      1  O   UNL     1     110.373 128.044 142.363  0.00  0.00    +0.000 OA
ATOM      2  O   UNL     1     110.476 130.078 140.958  0.00  0.00    +0.000 OA
ATOM      3  O   UNL     1     111.622 129.815 142.114  0.00  0.00    +0.000 OA
ATOM      4  C   UNL     1     109.833 128.853 141.317  0.00  0.00    +0.000 C 
ATOM      5  C   UNL     1     110.441 129.400 141.426  0.00  0.00    +0.000 C 
ATOM      6  C   UNL     1     109.799 128.175 141.785  0.00  0.00    +0.000 C 
ATOM      7  C   UNL     1     111.015 129.269 142.004  0.00  0.00    +0.000 C 
ATOM      8  C   UNL     1     110.980 128.590 142.472  0.00  0.00    +0.000 C 
ENDROOT
BRANCH   6  13
ATOM      9  O   UNL     1     110.099 126.751 141.007  0.00  0.00    +0.000 OA
ATOM     10  O   UNL     1     108.282 128.506 142.345  0.00  0.00    +0.000 OA
ATOM     11  O   UNL     1     107.332 125.974 141.351  0.00  0.00    +0.000 OA
ATOM     12  O   UNL     1     109.662 125.475 140.495  0.00  0.00    +0.000 OA
ATOM     13  C   UNL     1     109.191 127.628 141.676  0.00  0.00    +0.000 A 
ATOM     14  C   UNL     1     109.340 126.917 141.287  0.00  0.00    +0.000 A 
ATOM     15  C   UNL     1     108.432 127.794 141.956  0.00  0.00    +0.000 A 
ATOM     16  C   UNL     1     108.733 126.370 141.178  0.00  0.00    +0.000 A 
ATOM     17  C   UNL     1     107.824 127.247 141.847  0.00  0.00    +0.000 A 
ATOM     18  C   UNL     1     107.973 126.535 141.458  0.00  0.00    +0.000 A 
ATOM     19  C   UNL     1     108.901 125.632 140.771  0.00  0.00    +0.000 A 
ATOM     20  C   UNL     1     108.272 125.058 140.655  0.00  0.00    +0.000 A 
ATOM     21  C   UNL     1     107.481 125.231 140.947  0.00  0.00    +0.000 A 
BRANCH  21  23
ATOM     22  O   UNL     1     105.041 123.052 140.516  0.00  0.00    +0.000 OA
ATOM     23  C   UNL     1     106.871 124.686 140.839  0.00  0.00    +0.000 A 
ATOM     24  C   UNL     1     106.384 124.740 140.176  0.00  0.00    +0.000 A 
ATOM     25  C   UNL     1     106.750 124.088 141.394  0.00  0.00    +0.000 A 
ATOM     26  C   UNL     1     105.773 124.195 140.069  0.00  0.00    +0.000 A 
ATOM     27  C   UNL     1     106.140 123.544 141.287  0.00  0.00    +0.000 A 
ATOM     28  C   UNL     1     105.651 123.597 140.623  0.00  0.00    +0.000 A 
BRANCH  26  29
ATOM     29  O   UNL     1     105.285 124.248 139.406  0.00  0.00    +0.000 OA
ATOM     30  C   UNL     1     104.863 124.941 139.259  0.00  0.00    +0.000 C 
ENDBRANCH  26  29
ENDBRANCH  21  23
ENDBRANCH   6  13
BRANCH   8  32
ATOM     31  O   UNL     1     111.336 128.417 143.846  0.00  0.00    +0.000 OA
ATOM     32  C   UNL     1     111.554 128.459 143.050  0.00  0.00    +0.000 C 
ENDBRANCH   8  32
BRANCH   4  33
ATOM     33  O   UNL     1     109.259 128.985 140.738  0.00  0.00    +0.000 OA
BRANCH  33  38
ATOM     34  O   UNL     1     110.157 128.839 139.636  0.00  0.00    +0.000 OA
ATOM     35  O   UNL     1     108.368 130.067 139.868  0.00  0.00    +0.000 OA
ATOM     36  O   UNL     1     108.821 130.462 138.331  0.00  0.00    +0.000 OA
ATOM     37  O   UNL     1     110.165 129.775 137.665  0.00  0.00    +0.000 OA
ATOM     38  C   UNL     1     109.486 129.182 139.970  0.00  0.00    +0.000 C 
ATOM     39  C   UNL     1     109.041 129.723 139.534  0.00  0.00    +0.000 C 
ATOM     40  C   UNL     1     109.267 129.921 138.766  0.00  0.00    +0.000 C 
ATOM     41  C   UNL     1     109.939 129.577 138.433  0.00  0.00    +0.000 C 
ATOM     42  C   UNL     1     110.384 129.036 138.868  0.00  0.00    +0.000 C 
BRANCH  42  43
ATOM     43  C   UNL     1     111.056 128.692 138.535  0.00  0.00    +0.000 C 
BRANCH  43  44
ATOM     44  O   UNL     1     111.148 127.872 138.544  0.00  0.00    +0.000 OA
BRANCH  44  46
ATOM     45  O   UNL     1     112.577 127.905 138.572  0.00  0.00    +0.000 OA
ATOM     46  C   UNL     1     111.874 127.537 138.343  0.00  0.00    +0.000 C 
BRANCH  46  47
ATOM     47  C   UNL     1     111.899 126.832 137.914  0.00  0.00    +0.000 C 
ATOM     48  C   UNL     1     112.253 126.163 138.239  0.00  0.00    +0.000 C 
BRANCH  48  50
ATOM     49  O   UNL     1     112.350 123.346 136.522  0.00  0.00    +0.000 OA
ATOM     50  C   UNL     1     112.278 125.459 137.810  0.00  0.00    +0.000 A 
ATOM     51  C   UNL     1     112.971 125.236 137.422  0.00  0.00    +0.000 A 
ATOM     52  C   UNL     1     111.609 124.977 137.768  0.00  0.00    +0.000 A 
ATOM     53  C   UNL     1     112.995 124.532 136.993  0.00  0.00    +0.000 A 
ATOM     54  C   UNL     1     111.633 124.273 137.339  0.00  0.00    +0.000 A 
ATOM     55  C   UNL     1     112.326 124.051 136.952  0.00  0.00    +0.000 A 
ENDBRANCH  48  50
ENDBRANCH  46  47
ENDBRANCH  44  46
ENDBRANCH  43  44
ENDBRANCH  42  43
ENDBRANCH  33  38
ENDBRANCH   4  33
TORSDOF 11
ENDMDL
MODEL 10
REMARK VINA RESULT:     -10.1      5.435      8.698
REMARK  Name = 44258168
REMARK  11 active torsions:
REMARK  status: ('A' for Active; 'I' for Inactive)
REMARK    1  A    between atoms: O_1  and  C_19
REMARK    2  A    between atoms: O_1  and  C_24
REMARK    3  A    between atoms: O_10  and  C_31
REMARK    4  A    between atoms: O_10  and  C_40
REMARK    5  A    between atoms: O_16  and  C_46
REMARK    6  A    between atoms: C_21  and  C_29
REMARK    7  A    between atoms: C_23  and  C_30
REMARK    8  A    between atoms: C_28  and  C_31
REMARK    9  A    between atoms: C_39  and  C_41
REMARK   10  A    between atoms: C_40  and  C_42
REMARK   11  A    between atoms: C_45  and  C_49
REMARK                            x       y       z     vdW  Elec       q    Type
REMARK                         _______ _______ _______ _____ _____    ______ ____
ROOT
ATOM      1  O   UNL     1     105.213 127.995 143.485  0.00  0.00    +0.000 OA
ATOM      2  O   UNL     1     106.369 127.513 141.351  0.00  0.00    +0.000 OA
ATOM      3  O   UNL     1     105.218 128.692 141.417  0.00  0.00    +0.000 OA
ATOM      4  C   UNL     1     106.174 127.245 142.741  0.00  0.00    +0.000 C 
ATOM      5  C   UNL     1     105.984 127.674 142.062  0.00  0.00    +0.000 C 
ATOM      6  C   UNL     1     105.789 127.405 143.452  0.00  0.00    +0.000 C 
ATOM      7  C   UNL     1     105.408 128.263 142.095  0.00  0.00    +0.000 C 
ATOM      8  C   UNL     1     105.023 128.424 142.807  0.00  0.00    +0.000 C 
ENDROOT
BRANCH   6  13
ATOM      9  O   UNL     1     106.702 128.098 144.638  0.00  0.00    +0.000 OA
ATOM     10  O   UNL     1     105.255 125.853 143.622  0.00  0.00    +0.000 OA
ATOM     11  O   UNL     1     106.548 125.659 146.189  0.00  0.00    +0.000 OA
ATOM     12  O   UNL     1     107.364 128.041 145.920  0.00  0.00    +0.000 OA
ATOM     13  C   UNL     1     105.979 126.976 144.131  0.00  0.00    +0.000 A 
ATOM     14  C   UNL     1     106.435 127.322 144.724  0.00  0.00    +0.000 A 
ATOM     15  C   UNL     1     105.712 126.199 144.216  0.00  0.00    +0.000 A 
ATOM     16  C   UNL     1     106.625 126.893 145.402  0.00  0.00    +0.000 A 
ATOM     17  C   UNL     1     105.901 125.770 144.894  0.00  0.00    +0.000 A 
ATOM     18  C   UNL     1     106.358 126.116 145.488  0.00  0.00    +0.000 A 
ATOM     19  C   UNL     1     107.101 127.265 146.013  0.00  0.00    +0.000 A 
ATOM     20  C   UNL     1     107.302 126.823 146.722  0.00  0.00    +0.000 A 
ATOM     21  C   UNL     1     107.024 126.014 146.811  0.00  0.00    +0.000 A 
BRANCH  21  23
ATOM     22  O   UNL     1     107.774 124.288 149.521  0.00  0.00    +0.000 OA
ATOM     23  C   UNL     1     107.212 125.583 147.489  0.00  0.00    +0.000 A 
ATOM     24  C   UNL     1     106.643 125.470 148.076  0.00  0.00    +0.000 A 
ATOM     25  C   UNL     1     107.967 125.264 147.578  0.00  0.00    +0.000 A 
ATOM     26  C   UNL     1     106.831 125.038 148.753  0.00  0.00    +0.000 A 
ATOM     27  C   UNL     1     108.155 124.833 148.255  0.00  0.00    +0.000 A 
ATOM     28  C   UNL     1     107.586 124.720 148.844  0.00  0.00    +0.000 A 
BRANCH  26  29
ATOM     29  O   UNL     1     106.263 124.925 149.341  0.00  0.00    +0.000 OA
ATOM     30  C   UNL     1     105.465 124.882 149.140  0.00  0.00    +0.000 C 
ENDBRANCH  26  29
ENDBRANCH  21  23
ENDBRANCH   6  13
BRANCH   8  32
ATOM     31  O   UNL     1     104.165 129.275 143.571  0.00  0.00    +0.000 OA
ATOM     32  C   UNL     1     104.448 129.014 142.840  0.00  0.00    +0.000 C 
ENDBRANCH   8  32
BRANCH   4  33
ATOM     33  O   UNL     1     106.750 126.654 142.707  0.00  0.00    +0.000 OA
BRANCH  33  38
ATOM     34  O   UNL     1     107.855 127.527 142.466  0.00  0.00    +0.000 OA
ATOM     35  O   UNL     1     107.440 125.512 141.736  0.00  0.00    +0.000 OA
ATOM     36  O   UNL     1     108.890 125.815 141.009  0.00  0.00    +0.000 OA
ATOM     37  O   UNL     1     109.650 127.259 141.253  0.00  0.00    +0.000 OA
ATOM     38  C   UNL     1     107.476 126.806 142.344  0.00  0.00    +0.000 C 
ATOM     39  C   UNL     1     107.820 126.235 141.858  0.00  0.00    +0.000 C 
ATOM     40  C   UNL     1     108.545 126.386 141.494  0.00  0.00    +0.000 C 
ATOM     41  C   UNL     1     108.926 127.108 141.617  0.00  0.00    +0.000 C 
ATOM     42  C   UNL     1     108.581 127.679 142.102  0.00  0.00    +0.000 C 
BRANCH  42  43
ATOM     43  C   UNL     1     108.961 128.400 142.224  0.00  0.00    +0.000 C 
BRANCH  43  44
ATOM     44  O   UNL     1     109.133 128.653 142.991  0.00  0.00    +0.000 OA
BRANCH  44  46
ATOM     45  O   UNL     1     108.803 130.036 142.846  0.00  0.00    +0.000 OA
ATOM     46  C   UNL     1     109.303 129.446 143.136  0.00  0.00    +0.000 C 
BRANCH  46  47
ATOM     47  C   UNL     1     109.974 129.652 143.571  0.00  0.00    +0.000 C 
ATOM     48  C   UNL     1     109.898 129.895 144.355  0.00  0.00    +0.000 C 
BRANCH  48  50
ATOM     49  O   UNL     1     112.578 130.720 146.095  0.00  0.00    +0.000 OA
ATOM     50  C   UNL     1     110.569 130.101 144.790  0.00  0.00    +0.000 A 
ATOM     51  C   UNL     1     111.082 129.515 145.059  0.00  0.00    +0.000 A 
ATOM     52  C   UNL     1     110.724 130.894 144.956  0.00  0.00    +0.000 A 
ATOM     53  C   UNL     1     111.752 129.721 145.494  0.00  0.00    +0.000 A 
ATOM     54  C   UNL     1     111.394 131.101 145.391  0.00  0.00    +0.000 A 
ATOM     55  C   UNL     1     111.908 130.514 145.660  0.00  0.00    +0.000 A 
ENDBRANCH  48  50
ENDBRANCH  46  47
ENDBRANCH  44  46
ENDBRANCH  43  44
ENDBRANCH  42  43
ENDBRANCH  33  38
ENDBRANCH   4  33
TORSDOF 11
ENDMDL
