MODEL 1
REMARK VINA RESULT:      -7.2      0.000      0.000
REMARK  Name = 629965
REMARK  5 active torsions:
REMARK  status: ('A' for Active; 'I' for Inactive)
REMARK    1  A    between atoms: O_2  and  C_11
REMARK    2  A    between atoms: O_3  and  C_15
REMARK    3  A    between atoms: O_4  and  C_16
REMARK    4  A    between atoms: O_5  and  C_17
REMARK    5  A    between atoms: C_9  and  C_10
REMARK                            x       y       z     vdW  Elec       q    Type
REMARK                         _______ _______ _______ _____ _____    ______ ____
ROOT
ATOM      1  O   UNL     1     113.283 126.833 136.336  0.00  0.00    +0.000 OA
ATOM      2  O   UNL     1     112.572 127.860 138.473  0.00  0.00    +0.000 OA
ATOM      3  C   UNL     1     113.149 127.984 137.172  0.00  0.00    +0.000 A 
ATOM      4  C   UNL     1     113.386 127.642 136.460  0.00  0.00    +0.000 A 
ATOM      5  C   UNL     1     112.943 126.366 136.926  0.00  0.00    +0.000 A 
ATOM      6  C   UNL     1     113.252 128.826 137.312  0.00  0.00    +0.000 A 
ATOM      7  C   UNL     1     112.809 127.518 137.761  0.00  0.00    +0.000 A 
ATOM      8  C   UNL     1     112.706 126.708 137.638  0.00  0.00    +0.000 A 
ATOM      9  C   UNL     1     113.742 128.118 135.839  0.00  0.00    +0.000 A 
ATOM     10  C   UNL     1     113.605 129.317 136.703  0.00  0.00    +0.000 A 
ATOM     11  C   UNL     1     113.852 128.961 135.960  0.00  0.00    +0.000 A 
ENDROOT
BRANCH   5  12
ATOM     12  C   UNL     1     112.840 125.557 136.802  0.00  0.00    +0.000 A 
ATOM     13  C   UNL     1     113.441 125.029 137.002  0.00  0.00    +0.000 A 
ATOM     14  C   UNL     1     112.134 125.276 136.479  0.00  0.00    +0.000 A 
ATOM     15  C   UNL     1     113.337 124.220 136.878  0.00  0.00    +0.000 A 
ATOM     16  C   UNL     1     112.031 124.467 136.355  0.00  0.00    +0.000 A 
ATOM     17  C   UNL     1     112.633 123.939 136.554  0.00  0.00    +0.000 A 
BRANCH  13  18
ATOM     18  O   UNL     1     114.146 125.309 137.325  0.00  0.00    +0.000 OA
ATOM     19  C   UNL     1     114.759 124.785 137.495  0.00  0.00    +0.000 C 
ENDBRANCH  13  18
BRANCH  14  20
ATOM     20  O   UNL     1     111.533 125.804 136.279  0.00  0.00    +0.000 OA
ATOM     21  C   UNL     1     110.836 125.526 135.937  0.00  0.00    +0.000 C 
ENDBRANCH  14  20
ENDBRANCH   5  12
BRANCH   6  22
ATOM     22  O   UNL     1     113.012 129.160 138.028  0.00  0.00    +0.000 OA
ATOM     23  C   UNL     1     112.208 129.266 138.183  0.00  0.00    +0.000 C 
ENDBRANCH   6  22
BRANCH  10  24
ATOM     24  O   UNL     1     113.707 130.126 136.829  0.00  0.00    +0.000 OA
ATOM     25  C   UNL     1     114.193 130.564 136.325  0.00  0.00    +0.000 C 
ENDBRANCH  10  24
TORSDOF 5
ENDMDL
MODEL 2
REMARK VINA RESULT:      -7.2      0.007      1.565
REMARK  Name = 629965
REMARK  5 active torsions:
REMARK  status: ('A' for Active; 'I' for Inactive)
REMARK    1  A    between atoms: O_2  and  C_11
REMARK    2  A    between atoms: O_3  and  C_15
REMARK    3  A    between atoms: O_4  and  C_16
REMARK    4  A    between atoms: O_5  and  C_17
REMARK    5  A    between atoms: C_9  and  C_10
REMARK                            x       y       z     vdW  Elec       q    Type
REMARK                         _______ _______ _______ _____ _____    ______ ____
ROOT
ATOM      1  O   UNL     1     113.278 126.829 136.339  0.00  0.00    +0.000 OA
ATOM      2  O   UNL     1     112.572 127.853 138.478  0.00  0.00    +0.000 OA
ATOM      3  C   UNL     1     113.146 127.979 137.176  0.00  0.00    +0.000 A 
ATOM      4  C   UNL     1     113.381 127.637 136.463  0.00  0.00    +0.000 A 
ATOM      5  C   UNL     1     112.939 126.361 136.929  0.00  0.00    +0.000 A 
ATOM      6  C   UNL     1     113.249 128.821 137.317  0.00  0.00    +0.000 A 
ATOM      7  C   UNL     1     112.808 127.512 137.765  0.00  0.00    +0.000 A 
ATOM      8  C   UNL     1     112.704 126.702 137.642  0.00  0.00    +0.000 A 
ATOM      9  C   UNL     1     113.736 128.114 135.842  0.00  0.00    +0.000 A 
ATOM     10  C   UNL     1     113.601 129.313 136.707  0.00  0.00    +0.000 A 
ATOM     11  C   UNL     1     113.846 128.956 135.964  0.00  0.00    +0.000 A 
ENDROOT
BRANCH   5  12
ATOM     12  C   UNL     1     112.836 125.552 136.804  0.00  0.00    +0.000 A 
ATOM     13  C   UNL     1     112.130 125.270 136.482  0.00  0.00    +0.000 A 
ATOM     14  C   UNL     1     113.439 125.024 137.003  0.00  0.00    +0.000 A 
ATOM     15  C   UNL     1     112.028 124.461 136.358  0.00  0.00    +0.000 A 
ATOM     16  C   UNL     1     113.335 124.215 136.878  0.00  0.00    +0.000 A 
ATOM     17  C   UNL     1     112.630 123.934 136.556  0.00  0.00    +0.000 A 
BRANCH  13  18
ATOM     18  O   UNL     1     111.528 125.798 136.284  0.00  0.00    +0.000 OA
ATOM     19  C   UNL     1     110.832 125.518 135.942  0.00  0.00    +0.000 C 
ENDBRANCH  13  18
BRANCH  14  20
ATOM     20  O   UNL     1     114.144 125.306 137.325  0.00  0.00    +0.000 OA
ATOM     21  C   UNL     1     114.758 124.782 137.493  0.00  0.00    +0.000 C 
ENDBRANCH  14  20
ENDBRANCH   5  12
BRANCH   6  22
ATOM     22  O   UNL     1     113.011 129.154 138.034  0.00  0.00    +0.000 OA
ATOM     23  C   UNL     1     112.208 129.262 138.190  0.00  0.00    +0.000 C 
ENDBRANCH   6  22
BRANCH  10  24
ATOM     24  O   UNL     1     113.704 130.121 136.834  0.00  0.00    +0.000 OA
ATOM     25  C   UNL     1     114.191 130.559 136.332  0.00  0.00    +0.000 C 
ENDBRANCH  10  24
TORSDOF 5
ENDMDL
MODEL 3
REMARK VINA RESULT:      -7.2     12.565     13.836
REMARK  Name = 629965
REMARK  5 active torsions:
REMARK  status: ('A' for Active; 'I' for Inactive)
REMARK    1  A    between atoms: O_2  and  C_11
REMARK    2  A    between atoms: O_3  and  C_15
REMARK    3  A    between atoms: O_4  and  C_16
REMARK    4  A    between atoms: O_5  and  C_17
REMARK    5  A    between atoms: C_9  and  C_10
REMARK                            x       y       z     vdW  Elec       q    Type
REMARK                         _______ _______ _______ _____ _____    ______ ____
ROOT
ATOM      1  O   UNL     1     104.970 124.162 146.711  0.00  0.00    +0.000 OA
ATOM      2  O   UNL     1     103.211 125.617 147.666  0.00  0.00    +0.000 OA
ATOM      3  C   UNL     1     103.588 124.471 146.901  0.00  0.00    +0.000 A 
ATOM      4  C   UNL     1     104.175 123.986 146.583  0.00  0.00    +0.000 A 
ATOM      5  C   UNL     1     105.179 124.824 147.157  0.00  0.00    +0.000 A 
ATOM      6  C   UNL     1     102.756 124.298 146.775  0.00  0.00    +0.000 A 
ATOM      7  C   UNL     1     103.797 125.132 147.347  0.00  0.00    +0.000 A 
ATOM      8  C   UNL     1     104.593 125.309 147.476  0.00  0.00    +0.000 A 
ATOM      9  C   UNL     1     103.969 123.294 146.116  0.00  0.00    +0.000 A 
ATOM     10  C   UNL     1     102.532 123.611 146.311  0.00  0.00    +0.000 A 
ATOM     11  C   UNL     1     103.143 123.105 145.979  0.00  0.00    +0.000 A 
ENDROOT
BRANCH   5  12
ATOM     12  C   UNL     1     105.975 125.000 147.285  0.00  0.00    +0.000 A 
ATOM     13  C   UNL     1     106.350 124.741 147.973  0.00  0.00    +0.000 A 
ATOM     14  C   UNL     1     106.396 125.436 146.725  0.00  0.00    +0.000 A 
ATOM     15  C   UNL     1     107.147 124.917 148.099  0.00  0.00    +0.000 A 
ATOM     16  C   UNL     1     107.192 125.612 146.852  0.00  0.00    +0.000 A 
ATOM     17  C   UNL     1     107.567 125.353 147.540  0.00  0.00    +0.000 A 
BRANCH  13  18
ATOM     18  O   UNL     1     105.930 124.305 148.532  0.00  0.00    +0.000 OA
ATOM     19  C   UNL     1     106.293 124.082 149.238  0.00  0.00    +0.000 C 
ENDBRANCH  13  18
BRANCH  14  20
ATOM     20  O   UNL     1     106.021 125.696 146.037  0.00  0.00    +0.000 OA
ATOM     21  C   UNL     1     106.436 126.147 145.486  0.00  0.00    +0.000 C 
ENDBRANCH  14  20
ENDBRANCH   5  12
BRANCH   6  22
ATOM     22  O   UNL     1     102.176 124.789 147.097  0.00  0.00    +0.000 OA
ATOM     23  C   UNL     1     102.017 124.761 147.906  0.00  0.00    +0.000 C 
ENDBRANCH   6  22
BRANCH  10  24
ATOM     24  O   UNL     1     101.735 123.436 146.184  0.00  0.00    +0.000 OA
ATOM     25  C   UNL     1     101.521 122.876 145.618  0.00  0.00    +0.000 C 
ENDBRANCH  10  24
TORSDOF 5
ENDMDL
MODEL 4
REMARK VINA RESULT:      -7.2     12.570     13.874
REMARK  Name = 629965
REMARK  5 active torsions:
REMARK  status: ('A' for Active; 'I' for Inactive)
REMARK    1  A    between atoms: O_2  and  C_11
REMARK    2  A    between atoms: O_3  and  C_15
REMARK    3  A    between atoms: O_4  and  C_16
REMARK    4  A    between atoms: O_5  and  C_17
REMARK    5  A    between atoms: C_9  and  C_10
REMARK                            x       y       z     vdW  Elec       q    Type
REMARK                         _______ _______ _______ _____ _____    ______ ____
ROOT
ATOM      1  O   UNL     1     104.948 124.145 146.687  0.00  0.00    +0.000 OA
ATOM      2  O   UNL     1     103.178 125.582 147.650  0.00  0.00    +0.000 OA
ATOM      3  C   UNL     1     103.563 124.444 146.879  0.00  0.00    +0.000 A 
ATOM      4  C   UNL     1     104.153 123.965 146.557  0.00  0.00    +0.000 A 
ATOM      5  C   UNL     1     105.152 124.806 147.138  0.00  0.00    +0.000 A 
ATOM      6  C   UNL     1     102.732 124.266 146.751  0.00  0.00    +0.000 A 
ATOM      7  C   UNL     1     103.768 125.103 147.329  0.00  0.00    +0.000 A 
ATOM      8  C   UNL     1     104.562 125.285 147.459  0.00  0.00    +0.000 A 
ATOM      9  C   UNL     1     103.953 123.274 146.086  0.00  0.00    +0.000 A 
ATOM     10  C   UNL     1     102.513 123.580 146.282  0.00  0.00    +0.000 A 
ATOM     11  C   UNL     1     103.128 123.080 145.947  0.00  0.00    +0.000 A 
ENDROOT
BRANCH   5  12
ATOM     12  C   UNL     1     105.947 124.986 147.267  0.00  0.00    +0.000 A 
ATOM     13  C   UNL     1     106.368 125.422 146.707  0.00  0.00    +0.000 A 
ATOM     14  C   UNL     1     106.320 124.730 147.957  0.00  0.00    +0.000 A 
ATOM     15  C   UNL     1     107.162 125.601 146.837  0.00  0.00    +0.000 A 
ATOM     16  C   UNL     1     107.115 124.911 148.086  0.00  0.00    +0.000 A 
ATOM     17  C   UNL     1     107.536 125.346 147.526  0.00  0.00    +0.000 A 
BRANCH  13  18
ATOM     18  O   UNL     1     105.994 125.677 146.018  0.00  0.00    +0.000 OA
ATOM     19  C   UNL     1     106.413 126.120 145.462  0.00  0.00    +0.000 C 
ENDBRANCH  13  18
BRANCH  14  20
ATOM     20  O   UNL     1     105.899 124.295 148.517  0.00  0.00    +0.000 OA
ATOM     21  C   UNL     1     106.260 124.076 149.225  0.00  0.00    +0.000 C 
ENDBRANCH  14  20
ENDBRANCH   5  12
BRANCH   6  22
ATOM     22  O   UNL     1     102.149 124.750 147.076  0.00  0.00    +0.000 OA
ATOM     23  C   UNL     1     101.990 124.717 147.885  0.00  0.00    +0.000 C 
ENDBRANCH   6  22
BRANCH  10  24
ATOM     24  O   UNL     1     101.718 123.401 146.154  0.00  0.00    +0.000 OA
ATOM     25  C   UNL     1     101.507 122.846 145.581  0.00  0.00    +0.000 C 
ENDBRANCH  10  24
TORSDOF 5
ENDMDL
MODEL 5
REMARK VINA RESULT:      -7.2     12.336     13.450
REMARK  Name = 629965
REMARK  5 active torsions:
REMARK  status: ('A' for Active; 'I' for Inactive)
REMARK    1  A    between atoms: O_2  and  C_11
REMARK    2  A    between atoms: O_3  and  C_15
REMARK    3  A    between atoms: O_4  and  C_16
REMARK    4  A    between atoms: O_5  and  C_17
REMARK    5  A    between atoms: C_9  and  C_10
REMARK                            x       y       z     vdW  Elec       q    Type
REMARK                         _______ _______ _______ _____ _____    ______ ____
ROOT
ATOM      1  O   UNL     1     104.776 124.416 147.529  0.00  0.00    +0.000 OA
ATOM      2  O   UNL     1     105.616 125.860 145.703  0.00  0.00    +0.000 OA
ATOM      3  C   UNL     1     105.849 125.124 146.904  0.00  0.00    +0.000 A 
ATOM      4  C   UNL     1     105.569 124.642 147.513  0.00  0.00    +0.000 A 
ATOM      5  C   UNL     1     104.262 124.672 146.936  0.00  0.00    +0.000 A 
ATOM      6  C   UNL     1     106.674 125.366 146.877  0.00  0.00    +0.000 A 
ATOM      7  C   UNL     1     105.336 125.379 146.312  0.00  0.00    +0.000 A 
ATOM      8  C   UNL     1     104.542 125.154 146.327  0.00  0.00    +0.000 A 
ATOM      9  C   UNL     1     106.095 124.370 148.137  0.00  0.00    +0.000 A 
ATOM     10  C   UNL     1     107.213 125.103 147.492  0.00  0.00    +0.000 A 
ATOM     11  C   UNL     1     106.921 124.601 148.126  0.00  0.00    +0.000 A 
ENDROOT
BRANCH   5  12
ATOM     12  C   UNL     1     103.469 124.446 146.952  0.00  0.00    +0.000 A 
ATOM     13  C   UNL     1     102.927 124.874 147.403  0.00  0.00    +0.000 A 
ATOM     14  C   UNL     1     103.219 123.790 146.517  0.00  0.00    +0.000 A 
ATOM     15  C   UNL     1     102.134 124.647 147.418  0.00  0.00    +0.000 A 
ATOM     16  C   UNL     1     102.426 123.564 146.533  0.00  0.00    +0.000 A 
ATOM     17  C   UNL     1     101.883 123.992 146.984  0.00  0.00    +0.000 A 
BRANCH  13  18
ATOM     18  O   UNL     1     103.177 125.528 147.837  0.00  0.00    +0.000 OA
ATOM     19  C   UNL     1     102.640 125.941 148.308  0.00  0.00    +0.000 C 
ENDBRANCH  13  18
BRANCH  14  20
ATOM     20  O   UNL     1     103.761 123.362 146.066  0.00  0.00    +0.000 OA
ATOM     21  C   UNL     1     103.502 122.741 145.590  0.00  0.00    +0.000 C 
ENDBRANCH  14  20
ENDBRANCH   5  12
BRANCH   6  22
ATOM     22  O   UNL     1     106.944 125.847 146.264  0.00  0.00    +0.000 OA
ATOM     23  C   UNL     1     106.721 126.641 146.236  0.00  0.00    +0.000 C 
ENDBRANCH   6  22
BRANCH  10  24
ATOM     24  O   UNL     1     108.006 125.330 147.473  0.00  0.00    +0.000 OA
ATOM     25  C   UNL     1     108.553 124.959 147.967  0.00  0.00    +0.000 C 
ENDBRANCH  10  24
TORSDOF 5
ENDMDL
MODEL 6
REMARK VINA RESULT:      -7.1      2.337      3.124
REMARK  Name = 629965
REMARK  5 active torsions:
REMARK  status: ('A' for Active; 'I' for Inactive)
REMARK    1  A    between atoms: O_2  and  C_11
REMARK    2  A    between atoms: O_3  and  C_15
REMARK    3  A    between atoms: O_4  and  C_16
REMARK    4  A    between atoms: O_5  and  C_17
REMARK    5  A    between atoms: C_9  and  C_10
REMARK                            x       y       z     vdW  Elec       q    Type
REMARK                         _______ _______ _______ _____ _____    ______ ____
ROOT
ATOM      1  O   UNL     1     112.142 126.298 137.744  0.00  0.00    +0.000 OA
ATOM      2  O   UNL     1     110.803 125.727 139.746  0.00  0.00    +0.000 OA
ATOM      3  C   UNL     1     111.988 126.275 139.165  0.00  0.00    +0.000 A 
ATOM      4  C   UNL     1     112.434 126.465 138.498  0.00  0.00    +0.000 A 
ATOM      5  C   UNL     1     111.403 125.940 137.658  0.00  0.00    +0.000 A 
ATOM      6  C   UNL     1     112.281 126.444 139.955  0.00  0.00    +0.000 A 
ATOM      7  C   UNL     1     111.250 125.917 139.079  0.00  0.00    +0.000 A 
ATOM      8  C   UNL     1     110.957 125.750 138.326  0.00  0.00    +0.000 A 
ATOM      9  C   UNL     1     113.205 126.838 138.574  0.00  0.00    +0.000 A 
ATOM     10  C   UNL     1     113.049 126.816 140.051  0.00  0.00    +0.000 A 
ATOM     11  C   UNL     1     113.515 127.014 139.355  0.00  0.00    +0.000 A 
ENDROOT
BRANCH   5  12
ATOM     12  C   UNL     1     111.112 125.773 136.905  0.00  0.00    +0.000 A 
ATOM     13  C   UNL     1     111.294 125.055 136.541  0.00  0.00    +0.000 A 
ATOM     14  C   UNL     1     110.638 126.325 136.515  0.00  0.00    +0.000 A 
ATOM     15  C   UNL     1     111.001 124.889 135.788  0.00  0.00    +0.000 A 
ATOM     16  C   UNL     1     110.346 126.158 135.762  0.00  0.00    +0.000 A 
ATOM     17  C   UNL     1     110.528 125.440 135.398  0.00  0.00    +0.000 A 
BRANCH  13  18
ATOM     18  O   UNL     1     111.767 124.504 136.931  0.00  0.00    +0.000 OA
ATOM     19  C   UNL     1     111.964 123.794 136.561  0.00  0.00    +0.000 C 
ENDBRANCH  13  18
BRANCH  14  20
ATOM     20  O   UNL     1     110.456 127.043 136.879  0.00  0.00    +0.000 OA
ATOM     21  C   UNL     1     109.988 127.597 136.486  0.00  0.00    +0.000 C 
ENDBRANCH  14  20
ENDBRANCH   5  12
BRANCH   6  22
ATOM     22  O   UNL     1     111.828 126.250 140.616  0.00  0.00    +0.000 OA
ATOM     23  C   UNL     1     111.171 126.709 140.814  0.00  0.00    +0.000 C 
ENDBRANCH   6  22
BRANCH  10  24
ATOM     24  O   UNL     1     113.339 126.982 140.805  0.00  0.00    +0.000 OA
ATOM     25  C   UNL     1     114.121 127.226 140.902  0.00  0.00    +0.000 C 
ENDBRANCH  10  24
TORSDOF 5
ENDMDL
MODEL 7
REMARK VINA RESULT:      -6.9      0.973      4.223
REMARK  Name = 629965
REMARK  5 active torsions:
REMARK  status: ('A' for Active; 'I' for Inactive)
REMARK    1  A    between atoms: O_2  and  C_11
REMARK    2  A    between atoms: O_3  and  C_15
REMARK    3  A    between atoms: O_4  and  C_16
REMARK    4  A    between atoms: O_5  and  C_17
REMARK    5  A    between atoms: C_9  and  C_10
REMARK                            x       y       z     vdW  Elec       q    Type
REMARK                         _______ _______ _______ _____ _____    ______ ____
ROOT
ATOM      1  O   UNL     1     113.717 127.678 136.687  0.00  0.00    +0.000 OA
ATOM      2  O   UNL     1     111.468 127.438 135.682  0.00  0.00    +0.000 OA
ATOM      3  C   UNL     1     112.622 126.852 136.286  0.00  0.00    +0.000 A 
ATOM      4  C   UNL     1     113.371 126.932 136.621  0.00  0.00    +0.000 A 
ATOM      5  C   UNL     1     113.311 128.345 136.418  0.00  0.00    +0.000 A 
ATOM      6  C   UNL     1     112.252 126.079 136.211  0.00  0.00    +0.000 A 
ATOM      7  C   UNL     1     112.217 127.518 136.017  0.00  0.00    +0.000 A 
ATOM      8  C   UNL     1     112.562 128.265 136.083  0.00  0.00    +0.000 A 
ATOM      9  C   UNL     1     113.803 126.245 136.905  0.00  0.00    +0.000 A 
ATOM     10  C   UNL     1     112.669 125.382 136.490  0.00  0.00    +0.000 A 
ATOM     11  C   UNL     1     113.450 125.465 136.839  0.00  0.00    +0.000 A 
ENDROOT
BRANCH   5  12
ATOM     12  C   UNL     1     113.656 129.091 136.484  0.00  0.00    +0.000 A 
ATOM     13  C   UNL     1     114.139 129.379 135.880  0.00  0.00    +0.000 A 
ATOM     14  C   UNL     1     113.519 129.551 137.157  0.00  0.00    +0.000 A 
ATOM     15  C   UNL     1     114.484 130.125 135.948  0.00  0.00    +0.000 A 
ATOM     16  C   UNL     1     113.864 130.297 137.223  0.00  0.00    +0.000 A 
ATOM     17  C   UNL     1     114.346 130.584 136.619  0.00  0.00    +0.000 A 
BRANCH  13  18
ATOM     18  O   UNL     1     114.276 128.920 135.209  0.00  0.00    +0.000 OA
ATOM     19  C   UNL     1     114.773 129.199 134.613  0.00  0.00    +0.000 C 
ENDBRANCH  13  18
BRANCH  14  20
ATOM     20  O   UNL     1     113.036 129.264 137.761  0.00  0.00    +0.000 OA
ATOM     21  C   UNL     1     112.912 129.716 138.439  0.00  0.00    +0.000 C 
ENDBRANCH  14  20
ENDBRANCH   5  12
BRANCH   6  22
ATOM     22  O   UNL     1     111.502 126.009 135.875  0.00  0.00    +0.000 OA
ATOM     23  C   UNL     1     110.836 126.239 136.304  0.00  0.00    +0.000 C 
ENDBRANCH   6  22
BRANCH  10  24
ATOM     24  O   UNL     1     112.322 124.636 136.422  0.00  0.00    +0.000 OA
ATOM     25  C   UNL     1     112.743 123.963 136.647  0.00  0.00    +0.000 C 
ENDBRANCH  10  24
TORSDOF 5
ENDMDL
