MODEL 1
REMARK VINA RESULT:      -9.2      0.000      0.000
REMARK  Name = 102004611
REMARK  5 active torsions:
REMARK  status: ('A' for Active; 'I' for Inactive)
REMARK    1  A    between atoms: O_2  and  C_15
REMARK    2  A    between atoms: O_2  and  C_17
REMARK    3  A    between atoms: O_10  and  C_31
REMARK    4  A    between atoms: C_14  and  C_16
REMARK    5  A    between atoms: C_18  and  C_26
REMARK                            x       y       z     vdW  Elec       q    Type
REMARK                         _______ _______ _______ _____ _____    ______ ____
ROOT
ATOM      1  O   UNL     1     103.139 130.274 142.015  0.00  0.00    +0.000 OA
ATOM      2  O   UNL     1     103.691 128.034 140.276  0.00  0.00    +0.000 OA
ATOM      3  O   UNL     1     102.758 129.065 139.889  0.00  0.00    +0.000 OA
ATOM      4  C   UNL     1     104.507 128.531 142.301  0.00  0.00    +0.000 A 
ATOM      5  C   UNL     1     102.611 130.576 141.457  0.00  0.00    +0.000 C 
ATOM      6  C   UNL     1     102.485 130.173 140.749  0.00  0.00    +0.000 C 
ATOM      7  C   UNL     1     103.540 129.569 141.864  0.00  0.00    +0.000 A 
ATOM      8  C   UNL     1     103.413 129.166 141.155  0.00  0.00    +0.000 A 
ATOM      9  C   UNL     1     104.087 129.265 142.453  0.00  0.00    +0.000 A 
ATOM     10  C   UNL     1     104.375 128.111 141.564  0.00  0.00    +0.000 A 
ATOM     11  C   UNL     1     102.885 129.468 140.597  0.00  0.00    +0.000 C 
ATOM     12  C   UNL     1     103.824 128.431 140.987  0.00  0.00    +0.000 A 
ENDROOT
BRANCH   5  13
ATOM     13  C   UNL     1     102.211 131.281 141.608  0.00  0.00    +0.000 A 
ATOM     14  C   UNL     1     102.579 132.005 141.461  0.00  0.00    +0.000 A 
ATOM     15  C   UNL     1     101.441 131.263 141.905  0.00  0.00    +0.000 A 
ATOM     16  C   UNL     1     102.178 132.710 141.611  0.00  0.00    +0.000 A 
ATOM     17  C   UNL     1     101.040 131.968 142.056  0.00  0.00    +0.000 A 
ATOM     18  C   UNL     1     101.408 132.691 141.909  0.00  0.00    +0.000 A 
BRANCH  18  19
ATOM     19  O   UNL     1     101.007 133.396 142.060  0.00  0.00    +0.000 OA
ATOM     20  C   UNL     1     101.098 134.040 141.552  0.00  0.00    +0.000 C 
ENDBRANCH  18  19
ENDBRANCH   5  13
BRANCH   4  21
ATOM     21  O   UNL     1     105.034 128.231 142.861  0.00  0.00    +0.000 OA
BRANCH  21  30
ATOM     22  O   UNL     1     106.202 128.854 142.324  0.00  0.00    +0.000 OA
ATOM     23  O   UNL     1     107.549 126.878 142.960  0.00  0.00    +0.000 OA
ATOM     24  O   UNL     1     108.267 128.159 142.211  0.00  0.00    +0.000 OA
ATOM     25  O   UNL     1     105.932 126.913 143.285  0.00  0.00    +0.000 OA
ATOM     26  C   UNL     1     107.100 127.537 142.748  0.00  0.00    +0.000 C 
ATOM     27  C   UNL     1     107.459 128.177 142.373  0.00  0.00    +0.000 C 
ATOM     28  C   UNL     1     106.291 127.554 142.911  0.00  0.00    +0.000 C 
ATOM     29  C   UNL     1     107.010 128.836 142.161  0.00  0.00    +0.000 C 
ATOM     30  C   UNL     1     105.842 128.213 142.699  0.00  0.00    +0.000 C 
BRANCH  29  32
ATOM     31  O   UNL     1     107.175 129.660 141.006  0.00  0.00    +0.000 OA
ATOM     32  C   UNL     1     107.370 129.477 141.787  0.00  0.00    +0.000 C 
ENDBRANCH  29  32
ENDBRANCH  21  30
ENDBRANCH   4  21
TORSDOF 5
ENDMDL
MODEL 2
REMARK VINA RESULT:      -9.1      4.911      6.346
REMARK  Name = 102004611
REMARK  5 active torsions:
REMARK  status: ('A' for Active; 'I' for Inactive)
REMARK    1  A    between atoms: O_2  and  C_15
REMARK    2  A    between atoms: O_2  and  C_17
REMARK    3  A    between atoms: O_10  and  C_31
REMARK    4  A    between atoms: C_14  and  C_16
REMARK    5  A    between atoms: C_18  and  C_26
REMARK                            x       y       z     vdW  Elec       q    Type
REMARK                         _______ _______ _______ _____ _____    ______ ____
ROOT
ATOM      1  O   UNL     1     104.627 124.575 139.568  0.00  0.00    +0.000 OA
ATOM      2  O   UNL     1     105.579 123.620 142.123  0.00  0.00    +0.000 OA
ATOM      3  O   UNL     1     104.818 122.765 141.246  0.00  0.00    +0.000 OA
ATOM      4  C   UNL     1     105.814 125.621 141.145  0.00  0.00    +0.000 A 
ATOM      5  C   UNL     1     104.283 123.839 139.422  0.00  0.00    +0.000 C 
ATOM      6  C   UNL     1     104.347 123.236 139.981  0.00  0.00    +0.000 C 
ATOM      7  C   UNL     1     105.035 124.707 140.272  0.00  0.00    +0.000 A 
ATOM      8  C   UNL     1     105.098 124.103 140.832  0.00  0.00    +0.000 A 
ATOM      9  C   UNL     1     105.389 125.478 140.412  0.00  0.00    +0.000 A 
ATOM     10  C   UNL     1     105.881 124.993 141.727  0.00  0.00    +0.000 A 
ATOM     11  C   UNL     1     104.754 123.368 140.686  0.00  0.00    +0.000 C 
ATOM     12  C   UNL     1     105.521 124.230 141.570  0.00  0.00    +0.000 A 
ENDROOT
BRANCH   5  13
ATOM     13  C   UNL     1     103.876 123.706 138.717  0.00  0.00    +0.000 A 
ATOM     14  C   UNL     1     104.283 123.450 138.047  0.00  0.00    +0.000 A 
ATOM     15  C   UNL     1     103.061 123.830 138.682  0.00  0.00    +0.000 A 
ATOM     16  C   UNL     1     103.875 123.318 137.342  0.00  0.00    +0.000 A 
ATOM     17  C   UNL     1     102.652 123.697 137.978  0.00  0.00    +0.000 A 
ATOM     18  C   UNL     1     103.060 123.441 137.308  0.00  0.00    +0.000 A 
BRANCH  18  19
ATOM     19  O   UNL     1     102.652 123.309 136.603  0.00  0.00    +0.000 OA
ATOM     20  C   UNL     1     103.065 123.110 135.918  0.00  0.00    +0.000 C 
ENDBRANCH  18  19
ENDBRANCH   5  13
BRANCH   4  21
ATOM     21  O   UNL     1     106.157 126.358 141.288  0.00  0.00    +0.000 OA
BRANCH  21  30
ATOM     22  O   UNL     1     107.447 126.079 140.738  0.00  0.00    +0.000 OA
ATOM     23  O   UNL     1     108.506 127.360 142.571  0.00  0.00    +0.000 OA
ATOM     24  O   UNL     1     109.441 126.654 141.411  0.00  0.00    +0.000 OA
ATOM     25  O   UNL     1     106.864 127.212 142.510  0.00  0.00    +0.000 OA
ATOM     26  C   UNL     1     108.153 126.933 141.960  0.00  0.00    +0.000 C 
ATOM     27  C   UNL     1     108.620 126.580 141.381  0.00  0.00    +0.000 C 
ATOM     28  C   UNL     1     107.331 126.859 141.930  0.00  0.00    +0.000 C 
ATOM     29  C   UNL     1     108.267 126.153 140.770  0.00  0.00    +0.000 C 
ATOM     30  C   UNL     1     106.978 126.432 141.319  0.00  0.00    +0.000 C 
BRANCH  29  32
ATOM     31  O   UNL     1     108.619 125.991 139.394  0.00  0.00    +0.000 OA
ATOM     32  C   UNL     1     108.735 125.800 140.189  0.00  0.00    +0.000 C 
ENDBRANCH  29  32
ENDBRANCH  21  30
ENDBRANCH   4  21
TORSDOF 5
ENDMDL
MODEL 3
REMARK VINA RESULT:      -9.1      7.585      9.425
REMARK  Name = 102004611
REMARK  5 active torsions:
REMARK  status: ('A' for Active; 'I' for Inactive)
REMARK    1  A    between atoms: O_2  and  C_15
REMARK    2  A    between atoms: O_2  and  C_17
REMARK    3  A    between atoms: O_10  and  C_31
REMARK    4  A    between atoms: C_14  and  C_16
REMARK    5  A    between atoms: C_18  and  C_26
REMARK                            x       y       z     vdW  Elec       q    Type
REMARK                         _______ _______ _______ _____ _____    ______ ____
ROOT
ATOM      1  O   UNL     1     110.345 127.887 136.038  0.00  0.00    +0.000 OA
ATOM      2  O   UNL     1     107.909 129.425 135.819  0.00  0.00    +0.000 OA
ATOM      3  O   UNL     1     107.887 127.984 135.759  0.00  0.00    +0.000 OA
ATOM      4  C   UNL     1     110.028 130.098 136.089  0.00  0.00    +0.000 A 
ATOM      5  C   UNL     1     109.910 127.190 135.961  0.00  0.00    +0.000 C 
ATOM      6  C   UNL     1     109.091 127.222 135.868  0.00  0.00    +0.000 C 
ATOM      7  C   UNL     1     109.960 128.617 136.023  0.00  0.00    +0.000 A 
ATOM      8  C   UNL     1     109.140 128.648 135.930  0.00  0.00    +0.000 A 
ATOM      9  C   UNL     1     110.423 129.335 136.105  0.00  0.00    +0.000 A 
ATOM     10  C   UNL     1     109.175 130.132 135.992  0.00  0.00    +0.000 A 
ATOM     11  C   UNL     1     108.706 127.951 135.852  0.00  0.00    +0.000 C 
ATOM     12  C   UNL     1     108.729 129.403 135.912  0.00  0.00    +0.000 A 
ENDROOT
BRANCH   5  13
ATOM     13  C   UNL     1     110.295 126.460 135.976  0.00  0.00    +0.000 A 
ATOM     14  C   UNL     1     110.474 126.073 135.270  0.00  0.00    +0.000 A 
ATOM     15  C   UNL     1     110.500 126.117 136.698  0.00  0.00    +0.000 A 
ATOM     16  C   UNL     1     110.859 125.343 135.286  0.00  0.00    +0.000 A 
ATOM     17  C   UNL     1     110.885 125.388 136.714  0.00  0.00    +0.000 A 
ATOM     18  C   UNL     1     111.064 125.001 136.008  0.00  0.00    +0.000 A 
BRANCH  18  19
ATOM     19  O   UNL     1     111.449 124.271 136.024  0.00  0.00    +0.000 OA
ATOM     20  C   UNL     1     112.067 124.141 136.554  0.00  0.00    +0.000 C 
ENDBRANCH  18  19
ENDBRANCH   5  13
BRANCH   4  21
ATOM     21  O   UNL     1     110.465 130.794 136.167  0.00  0.00    +0.000 OA
BRANCH  21  30
ATOM     22  O   UNL     1     110.606 130.801 137.589  0.00  0.00    +0.000 OA
ATOM     23  O   UNL     1     110.180 133.238 137.619  0.00  0.00    +0.000 OA
ATOM     24  O   UNL     1     110.463 132.433 139.030  0.00  0.00    +0.000 OA
ATOM     25  O   UNL     1     110.180 132.419 136.187  0.00  0.00    +0.000 OA
ATOM     26  C   UNL     1     110.322 132.426 137.609  0.00  0.00    +0.000 C 
ATOM     27  C   UNL     1     110.463 132.024 138.314  0.00  0.00    +0.000 C 
ATOM     28  C   UNL     1     110.322 132.017 136.893  0.00  0.00    +0.000 C 
ATOM     29  C   UNL     1     110.606 131.211 138.304  0.00  0.00    +0.000 C 
ATOM     30  C   UNL     1     110.464 131.204 136.882  0.00  0.00    +0.000 C 
BRANCH  29  32
ATOM     31  O   UNL     1     111.442 130.371 139.102  0.00  0.00    +0.000 OA
ATOM     32  C   UNL     1     110.747 130.808 139.010  0.00  0.00    +0.000 C 
ENDBRANCH  29  32
ENDBRANCH  21  30
ENDBRANCH   4  21
TORSDOF 5
ENDMDL
MODEL 4
REMARK VINA RESULT:      -9.0      3.789      6.205
REMARK  Name = 102004611
REMARK  5 active torsions:
REMARK  status: ('A' for Active; 'I' for Inactive)
REMARK    1  A    between atoms: O_2  and  C_15
REMARK    2  A    between atoms: O_2  and  C_17
REMARK    3  A    between atoms: O_10  and  C_31
REMARK    4  A    between atoms: C_14  and  C_16
REMARK    5  A    between atoms: C_18  and  C_26
REMARK                            x       y       z     vdW  Elec       q    Type
REMARK                         _______ _______ _______ _____ _____    ______ ____
ROOT
ATOM      1  O   UNL     1     105.378 126.440 144.097  0.00  0.00    +0.000 OA
ATOM      2  O   UNL     1     107.212 126.350 146.327  0.00  0.00    +0.000 OA
ATOM      3  O   UNL     1     107.219 127.457 145.403  0.00  0.00    +0.000 OA
ATOM      4  C   UNL     1     105.631 124.897 145.693  0.00  0.00    +0.000 A 
ATOM      5  C   UNL     1     105.699 127.164 143.864  0.00  0.00    +0.000 C 
ATOM      6  C   UNL     1     106.312 127.503 144.299  0.00  0.00    +0.000 C 
ATOM      7  C   UNL     1     105.671 126.055 144.765  0.00  0.00    +0.000 A 
ATOM      8  C   UNL     1     106.285 126.395 145.200  0.00  0.00    +0.000 A 
ATOM      9  C   UNL     1     105.330 125.302 144.998  0.00  0.00    +0.000 A 
ATOM     10  C   UNL     1     106.269 125.250 146.146  0.00  0.00    +0.000 A 
ATOM     11  C   UNL     1     106.606 127.119 144.968  0.00  0.00    +0.000 C 
ATOM     12  C   UNL     1     106.599 126.003 145.898  0.00  0.00    +0.000 A 
ENDROOT
BRANCH   5  13
ATOM     13  C   UNL     1     105.406 127.549 143.196  0.00  0.00    +0.000 A 
ATOM     14  C   UNL     1     104.989 128.256 143.276  0.00  0.00    +0.000 A 
ATOM     15  C   UNL     1     105.530 127.227 142.446  0.00  0.00    +0.000 A 
ATOM     16  C   UNL     1     104.696 128.641 142.608  0.00  0.00    +0.000 A 
ATOM     17  C   UNL     1     105.238 127.611 141.778  0.00  0.00    +0.000 A 
ATOM     18  C   UNL     1     104.820 128.318 141.859  0.00  0.00    +0.000 A 
BRANCH  18  19
ATOM     19  O   UNL     1     104.527 128.703 141.190  0.00  0.00    +0.000 OA
ATOM     20  C   UNL     1     103.715 128.815 141.100  0.00  0.00    +0.000 C 
ENDBRANCH  18  19
ENDBRANCH   5  13
BRANCH   4  21
ATOM     21  O   UNL     1     105.309 124.173 145.924  0.00  0.00    +0.000 OA
BRANCH  21  30
ATOM     22  O   UNL     1     104.280 124.704 146.761  0.00  0.00    +0.000 OA
ATOM     23  O   UNL     1     102.747 122.910 146.013  0.00  0.00    +0.000 OA
ATOM     24  O   UNL     1     102.229 124.038 147.100  0.00  0.00    +0.000 OA
ATOM     25  O   UNL     1     104.287 122.978 145.425  0.00  0.00    +0.000 OA
ATOM     26  C   UNL     1     103.258 123.508 146.263  0.00  0.00    +0.000 C 
ATOM     27  C   UNL     1     102.999 124.072 146.806  0.00  0.00    +0.000 C 
ATOM     28  C   UNL     1     104.028 123.541 145.968  0.00  0.00    +0.000 C 
ATOM     29  C   UNL     1     103.510 124.669 147.055  0.00  0.00    +0.000 C 
ATOM     30  C   UNL     1     104.539 124.139 146.217  0.00  0.00    +0.000 C 
BRANCH  29  32
ATOM     31  O   UNL     1     103.689 125.376 148.284  0.00  0.00    +0.000 OA
ATOM     32  C   UNL     1     103.251 125.234 147.599  0.00  0.00    +0.000 C 
ENDBRANCH  29  32
ENDBRANCH  21  30
ENDBRANCH   4  21
TORSDOF 5
ENDMDL
MODEL 5
REMARK VINA RESULT:      -9.0      7.697     10.397
REMARK  Name = 102004611
REMARK  5 active torsions:
REMARK  status: ('A' for Active; 'I' for Inactive)
REMARK    1  A    between atoms: O_2  and  C_15
REMARK    2  A    between atoms: O_2  and  C_17
REMARK    3  A    between atoms: O_10  and  C_31
REMARK    4  A    between atoms: C_14  and  C_16
REMARK    5  A    between atoms: C_18  and  C_26
REMARK                            x       y       z     vdW  Elec       q    Type
REMARK                         _______ _______ _______ _____ _____    ______ ____
ROOT
ATOM      1  O   UNL     1     112.333 128.252 135.467  0.00  0.00    +0.000 OA
ATOM      2  O   UNL     1     109.528 128.422 134.792  0.00  0.00    +0.000 OA
ATOM      3  O   UNL     1     110.407 129.553 134.614  0.00  0.00    +0.000 OA
ATOM      4  C   UNL     1     110.719 126.714 135.617  0.00  0.00    +0.000 A 
ATOM      5  C   UNL     1     112.436 129.036 135.231  0.00  0.00    +0.000 C 
ATOM      6  C   UNL     1     111.794 129.469 134.947  0.00  0.00    +0.000 C 
ATOM      7  C   UNL     1     111.587 127.901 135.418  0.00  0.00    +0.000 A 
ATOM      8  C   UNL     1     110.945 128.335 135.133  0.00  0.00    +0.000 A 
ATOM      9  C   UNL     1     111.493 127.084 135.666  0.00  0.00    +0.000 A 
ATOM     10  C   UNL     1     110.050 127.165 135.321  0.00  0.00    +0.000 A 
ATOM     11  C   UNL     1     111.049 129.119 134.898  0.00  0.00    +0.000 C 
ATOM     12  C   UNL     1     110.165 127.981 135.078  0.00  0.00    +0.000 A 
ENDROOT
BRANCH   5  13
ATOM     13  C   UNL     1     113.181 129.387 135.280  0.00  0.00    +0.000 A 
ATOM     14  C   UNL     1     113.377 129.849 135.935  0.00  0.00    +0.000 A 
ATOM     15  C   UNL     1     113.730 129.275 134.675  0.00  0.00    +0.000 A 
ATOM     16  C   UNL     1     114.122 130.200 135.984  0.00  0.00    +0.000 A 
ATOM     17  C   UNL     1     114.475 129.625 134.723  0.00  0.00    +0.000 A 
ATOM     18  C   UNL     1     114.671 130.088 135.377  0.00  0.00    +0.000 A 
BRANCH  18  19
ATOM     19  O   UNL     1     115.416 130.438 135.426  0.00  0.00    +0.000 OA
ATOM     20  C   UNL     1     115.519 131.224 135.197  0.00  0.00    +0.000 C 
ENDBRANCH  18  19
ENDBRANCH   5  13
BRANCH   4  21
ATOM     21  O   UNL     1     110.618 125.930 135.853  0.00  0.00    +0.000 OA
BRANCH  21  30
ATOM     22  O   UNL     1     110.215 126.165 137.203  0.00  0.00    +0.000 OA
ATOM     23  O   UNL     1     111.621 124.272 137.954  0.00  0.00    +0.000 OA
ATOM     24  O   UNL     1     110.750 125.139 139.053  0.00  0.00    +0.000 OA
ATOM     25  O   UNL     1     111.556 124.668 136.353  0.00  0.00    +0.000 OA
ATOM     26  C   UNL     1     111.153 124.903 137.704  0.00  0.00    +0.000 C 
ATOM     27  C   UNL     1     110.717 125.336 138.253  0.00  0.00    +0.000 C 
ATOM     28  C   UNL     1     111.120 125.101 136.903  0.00  0.00    +0.000 C 
ATOM     29  C   UNL     1     110.248 125.967 138.003  0.00  0.00    +0.000 C 
ATOM     30  C   UNL     1     110.651 125.732 136.653  0.00  0.00    +0.000 C 
BRANCH  29  32
ATOM     31  O   UNL     1     108.987 126.378 138.535  0.00  0.00    +0.000 OA
ATOM     32  C   UNL     1     109.812 126.401 138.553  0.00  0.00    +0.000 C 
ENDBRANCH  29  32
ENDBRANCH  21  30
ENDBRANCH   4  21
TORSDOF 5
ENDMDL
MODEL 6
REMARK VINA RESULT:      -9.0      2.199      4.125
REMARK  Name = 102004611
REMARK  5 active torsions:
REMARK  status: ('A' for Active; 'I' for Inactive)
REMARK    1  A    between atoms: O_2  and  C_15
REMARK    2  A    between atoms: O_2  and  C_17
REMARK    3  A    between atoms: O_10  and  C_31
REMARK    4  A    between atoms: C_14  and  C_16
REMARK    5  A    between atoms: C_18  and  C_26
REMARK                            x       y       z     vdW  Elec       q    Type
REMARK                         _______ _______ _______ _____ _____    ______ ____
ROOT
ATOM      1  O   UNL     1     104.970 127.702 142.521  0.00  0.00    +0.000 OA
ATOM      2  O   UNL     1     107.844 127.531 142.755  0.00  0.00    +0.000 OA
ATOM      3  O   UNL     1     107.202 128.759 142.354  0.00  0.00    +0.000 OA
ATOM      4  C   UNL     1     106.268 125.980 143.109  0.00  0.00    +0.000 A 
ATOM      5  C   UNL     1     105.036 128.492 142.293  0.00  0.00    +0.000 C 
ATOM      6  C   UNL     1     105.780 128.844 142.238  0.00  0.00    +0.000 C 
ATOM      7  C   UNL     1     105.647 127.263 142.693  0.00  0.00    +0.000 A 
ATOM      8  C   UNL     1     106.392 127.616 142.637  0.00  0.00    +0.000 A 
ATOM      9  C   UNL     1     105.565 126.441 142.928  0.00  0.00    +0.000 A 
ATOM     10  C   UNL     1     107.042 126.347 143.051  0.00  0.00    +0.000 A 
ATOM     11  C   UNL     1     106.458 128.407 142.410  0.00  0.00    +0.000 C 
ATOM     12  C   UNL     1     107.104 127.170 142.814  0.00  0.00    +0.000 A 
ENDROOT
BRANCH   5  13
ATOM     13  C   UNL     1     104.359 128.930 142.121  0.00  0.00    +0.000 A 
ATOM     14  C   UNL     1     103.984 128.841 141.392  0.00  0.00    +0.000 A 
ATOM     15  C   UNL     1     104.056 129.457 142.679  0.00  0.00    +0.000 A 
ATOM     16  C   UNL     1     103.307 129.280 141.220  0.00  0.00    +0.000 A 
ATOM     17  C   UNL     1     103.378 129.895 142.508  0.00  0.00    +0.000 A 
ATOM     18  C   UNL     1     103.004 129.807 141.778  0.00  0.00    +0.000 A 
BRANCH  18  19
ATOM     19  O   UNL     1     102.326 130.245 141.606  0.00  0.00    +0.000 OA
ATOM     20  C   UNL     1     102.392 131.032 141.368  0.00  0.00    +0.000 C 
ENDBRANCH  18  19
ENDBRANCH   5  13
BRANCH   4  21
ATOM     21  O   UNL     1     106.198 125.190 143.336  0.00  0.00    +0.000 OA
BRANCH  21  30
ATOM     22  O   UNL     1     106.349 125.365 144.746  0.00  0.00    +0.000 OA
ATOM     23  O   UNL     1     104.559 123.703 145.143  0.00  0.00    +0.000 OA
ATOM     24  O   UNL     1     105.306 124.432 146.420  0.00  0.00    +0.000 OA
ATOM     25  O   UNL     1     105.005 124.082 143.600  0.00  0.00    +0.000 OA
ATOM     26  C   UNL     1     105.156 124.257 145.011  0.00  0.00    +0.000 C 
ATOM     27  C   UNL     1     105.529 124.621 145.649  0.00  0.00    +0.000 C 
ATOM     28  C   UNL     1     105.378 124.446 144.239  0.00  0.00    +0.000 C 
ATOM     29  C   UNL     1     106.125 125.175 145.517  0.00  0.00    +0.000 C 
ATOM     30  C   UNL     1     105.975 125.000 144.107  0.00  0.00    +0.000 C 
BRANCH  29  32
ATOM     31  O   UNL     1     107.315 125.459 146.256  0.00  0.00    +0.000 OA
ATOM     32  C   UNL     1     106.499 125.540 146.155  0.00  0.00    +0.000 C 
ENDBRANCH  29  32
ENDBRANCH  21  30
ENDBRANCH   4  21
TORSDOF 5
ENDMDL
MODEL 7
REMARK VINA RESULT:      -9.0      8.711     10.219
REMARK  Name = 102004611
REMARK  5 active torsions:
REMARK  status: ('A' for Active; 'I' for Inactive)
REMARK    1  A    between atoms: O_2  and  C_15
REMARK    2  A    between atoms: O_2  and  C_17
REMARK    3  A    between atoms: O_10  and  C_31
REMARK    4  A    between atoms: C_14  and  C_16
REMARK    5  A    between atoms: C_18  and  C_26
REMARK                            x       y       z     vdW  Elec       q    Type
REMARK                         _______ _______ _______ _____ _____    ______ ____
ROOT
ATOM      1  O   UNL     1     111.588 128.758 136.063  0.00  0.00    +0.000 OA
ATOM      2  O   UNL     1     114.391 128.439 135.443  0.00  0.00    +0.000 OA
ATOM      3  O   UNL     1     113.585 129.418 134.758  0.00  0.00    +0.000 OA
ATOM      4  C   UNL     1     113.103 127.359 136.923  0.00  0.00    +0.000 A 
ATOM      5  C   UNL     1     111.532 129.357 135.498  0.00  0.00    +0.000 C 
ATOM      6  C   UNL     1     112.198 129.577 135.063  0.00  0.00    +0.000 C 
ATOM      7  C   UNL     1     112.309 128.379 136.193  0.00  0.00    +0.000 A 
ATOM      8  C   UNL     1     112.975 128.600 135.757  0.00  0.00    +0.000 A 
ATOM      9  C   UNL     1     112.354 127.757 136.783  0.00  0.00    +0.000 A 
ATOM     10  C   UNL     1     113.796 127.588 136.470  0.00  0.00    +0.000 A 
ATOM     11  C   UNL     1     112.919 129.199 135.193  0.00  0.00    +0.000 C 
ATOM     12  C   UNL     1     113.731 128.212 135.883  0.00  0.00    +0.000 A 
ENDROOT
BRANCH   5  13
ATOM     13  C   UNL     1     110.811 129.736 135.368  0.00  0.00    +0.000 A 
ATOM     14  C   UNL     1     110.327 129.500 134.743  0.00  0.00    +0.000 A 
ATOM     15  C   UNL     1     110.573 130.352 135.864  0.00  0.00    +0.000 A 
ATOM     16  C   UNL     1     109.606 129.880 134.613  0.00  0.00    +0.000 A 
ATOM     17  C   UNL     1     109.853 130.731 135.735  0.00  0.00    +0.000 A 
ATOM     18  C   UNL     1     109.369 130.495 135.110  0.00  0.00    +0.000 A 
BRANCH  18  19
ATOM     19  O   UNL     1     108.648 130.874 134.980  0.00  0.00    +0.000 OA
ATOM     20  C   UNL     1     108.633 131.644 134.684  0.00  0.00    +0.000 C 
ENDBRANCH  18  19
ENDBRANCH   5  13
BRANCH   4  21
ATOM     21  O   UNL     1     113.155 126.760 137.488  0.00  0.00    +0.000 OA
BRANCH  21  30
ATOM     22  O   UNL     1     112.485 125.704 136.797  0.00  0.00    +0.000 OA
ATOM     23  O   UNL     1     114.267 124.127 137.480  0.00  0.00    +0.000 OA
ATOM     24  O   UNL     1     113.003 123.597 136.562  0.00  0.00    +0.000 OA
ATOM     25  O   UNL     1     114.343 125.709 137.943  0.00  0.00    +0.000 OA
ATOM     26  C   UNL     1     113.673 124.653 137.253  0.00  0.00    +0.000 C 
ATOM     27  C   UNL     1     113.042 124.388 136.794  0.00  0.00    +0.000 C 
ATOM     28  C   UNL     1     113.712 125.444 137.484  0.00  0.00    +0.000 C 
ATOM     29  C   UNL     1     112.448 124.913 136.566  0.00  0.00    +0.000 C 
ATOM     30  C   UNL     1     113.118 125.969 137.257  0.00  0.00    +0.000 C 
BRANCH  29  32
ATOM     31  O   UNL     1     111.040 124.804 136.344  0.00  0.00    +0.000 OA
ATOM     32  C   UNL     1     111.816 124.648 136.107  0.00  0.00    +0.000 C 
ENDBRANCH  29  32
ENDBRANCH  21  30
ENDBRANCH   4  21
TORSDOF 5
ENDMDL
MODEL 8
REMARK VINA RESULT:      -9.0      7.271     10.229
REMARK  Name = 102004611
REMARK  5 active torsions:
REMARK  status: ('A' for Active; 'I' for Inactive)
REMARK    1  A    between atoms: O_2  and  C_15
REMARK    2  A    between atoms: O_2  and  C_17
REMARK    3  A    between atoms: O_10  and  C_31
REMARK    4  A    between atoms: C_14  and  C_16
REMARK    5  A    between atoms: C_18  and  C_26
REMARK                            x       y       z     vdW  Elec       q    Type
REMARK                         _______ _______ _______ _____ _____    ______ ____
ROOT
ATOM      1  O   UNL     1     111.076 126.268 136.624  0.00  0.00    +0.000 OA
ATOM      2  O   UNL     1     108.880 126.291 134.747  0.00  0.00    +0.000 OA
ATOM      3  O   UNL     1     109.952 125.334 134.626  0.00  0.00    +0.000 OA
ATOM      4  C   UNL     1     109.281 127.595 136.523  0.00  0.00    +0.000 A 
ATOM      5  C   UNL     1     111.413 125.632 136.220  0.00  0.00    +0.000 C 
ATOM      6  C   UNL     1     111.038 125.321 135.555  0.00  0.00    +0.000 C 
ATOM      7  C   UNL     1     110.364 126.592 136.362  0.00  0.00    +0.000 A 
ATOM      8  C   UNL     1     109.989 126.280 135.696  0.00  0.00    +0.000 A 
ATOM      9  C   UNL     1     110.023 127.253 136.791  0.00  0.00    +0.000 A 
ATOM     10  C   UNL     1     108.891 127.271 135.830  0.00  0.00    +0.000 A 
ATOM     11  C   UNL     1     110.327 125.645 135.292  0.00  0.00    +0.000 C 
ATOM     12  C   UNL     1     109.248 126.610 135.414  0.00  0.00    +0.000 A 
ENDROOT
BRANCH   5  13
ATOM     13  C   UNL     1     112.125 125.308 136.482  0.00  0.00    +0.000 A 
ATOM     14  C   UNL     1     112.149 124.527 136.749  0.00  0.00    +0.000 A 
ATOM     15  C   UNL     1     112.813 125.764 136.477  0.00  0.00    +0.000 A 
ATOM     16  C   UNL     1     112.861 124.203 137.011  0.00  0.00    +0.000 A 
ATOM     17  C   UNL     1     113.524 125.440 136.739  0.00  0.00    +0.000 A 
ATOM     18  C   UNL     1     113.549 124.660 137.006  0.00  0.00    +0.000 A 
BRANCH  18  19
ATOM     19  O   UNL     1     114.261 124.335 137.268  0.00  0.00    +0.000 OA
ATOM     20  C   UNL     1     114.957 124.776 137.224  0.00  0.00    +0.000 C 
ENDBRANCH  18  19
ENDBRANCH   5  13
BRANCH   4  21
ATOM     21  O   UNL     1     108.947 128.231 136.929  0.00  0.00    +0.000 OA
BRANCH  21  30
ATOM     22  O   UNL     1     109.323 129.278 136.033  0.00  0.00    +0.000 OA
ATOM     23  O   UNL     1     109.882 130.726 137.960  0.00  0.00    +0.000 OA
ATOM     24  O   UNL     1     110.072 131.290 136.422  0.00  0.00    +0.000 OA
ATOM     25  O   UNL     1     109.319 129.196 138.214  0.00  0.00    +0.000 OA
ATOM     26  C   UNL     1     109.696 130.243 137.318  0.00  0.00    +0.000 C 
ATOM     27  C   UNL     1     109.791 130.526 136.549  0.00  0.00    +0.000 C 
ATOM     28  C   UNL     1     109.414 129.478 137.445  0.00  0.00    +0.000 C 
ATOM     29  C   UNL     1     109.604 130.043 135.906  0.00  0.00    +0.000 C 
ATOM     30  C   UNL     1     109.228 128.996 136.803  0.00  0.00    +0.000 C 
BRANCH  29  32
ATOM     31  O   UNL     1     109.060 130.319 134.614  0.00  0.00    +0.000 OA
ATOM     32  C   UNL     1     109.699 130.325 135.137  0.00  0.00    +0.000 C 
ENDBRANCH  29  32
ENDBRANCH  21  30
ENDBRANCH   4  21
TORSDOF 5
ENDMDL
MODEL 9
REMARK VINA RESULT:      -8.9      8.020     10.494
REMARK  Name = 102004611
REMARK  5 active torsions:
REMARK  status: ('A' for Active; 'I' for Inactive)
REMARK    1  A    between atoms: O_2  and  C_15
REMARK    2  A    between atoms: O_2  and  C_17
REMARK    3  A    between atoms: O_10  and  C_31
REMARK    4  A    between atoms: C_14  and  C_16
REMARK    5  A    between atoms: C_18  and  C_26
REMARK                            x       y       z     vdW  Elec       q    Type
REMARK                         _______ _______ _______ _____ _____    ______ ____
ROOT
ATOM      1  O   UNL     1     112.369 126.672 137.484  0.00  0.00    +0.000 OA
ATOM      2  O   UNL     1     111.092 124.579 135.956  0.00  0.00    +0.000 OA
ATOM      3  O   UNL     1     111.699 124.302 137.235  0.00  0.00    +0.000 OA
ATOM      4  C   UNL     1     111.348 126.756 135.499  0.00  0.00    +0.000 A 
ATOM      5  C   UNL     1     112.554 126.126 138.075  0.00  0.00    +0.000 C 
ATOM      6  C   UNL     1     112.331 125.337 137.991  0.00  0.00    +0.000 C 
ATOM      7  C   UNL     1     111.961 126.428 136.810  0.00  0.00    +0.000 A 
ATOM      8  C   UNL     1     111.737 125.637 136.728  0.00  0.00    +0.000 A 
ATOM      9  C   UNL     1     111.774 127.005 136.203  0.00  0.00    +0.000 A 
ATOM     10  C   UNL     1     111.116 125.934 135.412  0.00  0.00    +0.000 A 
ATOM     11  C   UNL     1     111.923 125.092 137.318  0.00  0.00    +0.000 C 
ATOM     12  C   UNL     1     111.312 125.371 136.030  0.00  0.00    +0.000 A 
ENDROOT
BRANCH   5  13
ATOM     13  C   UNL     1     112.963 126.370 138.749  0.00  0.00    +0.000 A 
ATOM     14  C   UNL     1     113.788 126.393 138.746  0.00  0.00    +0.000 A 
ATOM     15  C   UNL     1     112.547 126.592 139.426  0.00  0.00    +0.000 A 
ATOM     16  C   UNL     1     114.196 126.637 139.419  0.00  0.00    +0.000 A 
ATOM     17  C   UNL     1     112.955 126.836 140.100  0.00  0.00    +0.000 A 
ATOM     18  C   UNL     1     113.779 126.859 140.097  0.00  0.00    +0.000 A 
BRANCH  18  19
ATOM     19  O   UNL     1     114.188 127.103 140.770  0.00  0.00    +0.000 OA
ATOM     20  C   UNL     1     114.256 127.906 140.944  0.00  0.00    +0.000 C 
ENDBRANCH  18  19
ENDBRANCH   5  13
BRANCH   4  21
ATOM     21  O   UNL     1     111.164 127.304 134.910  0.00  0.00    +0.000 OA
BRANCH  21  30
ATOM     22  O   UNL     1     109.833 127.631 135.314  0.00  0.00    +0.000 OA
ATOM     23  O   UNL     1     110.287 130.024 134.875  0.00  0.00    +0.000 OA
ATOM     24  O   UNL     1     108.806 129.553 135.425  0.00  0.00    +0.000 OA
ATOM     25  O   UNL     1     111.467 128.900 134.617  0.00  0.00    +0.000 OA
ATOM     26  C   UNL     1     110.136 129.226 135.021  0.00  0.00    +0.000 C 
ATOM     27  C   UNL     1     109.395 128.991 135.296  0.00  0.00    +0.000 C 
ATOM     28  C   UNL     1     110.726 128.664 134.892  0.00  0.00    +0.000 C 
ATOM     29  C   UNL     1     109.244 128.193 135.443  0.00  0.00    +0.000 C 
ATOM     30  C   UNL     1     110.575 127.867 135.038  0.00  0.00    +0.000 C 
BRANCH  29  32
ATOM     31  O   UNL     1     108.441 127.532 136.423  0.00  0.00    +0.000 OA
ATOM     32  C   UNL     1     108.503 127.957 135.718  0.00  0.00    +0.000 C 
ENDBRANCH  29  32
ENDBRANCH  21  30
ENDBRANCH   4  21
TORSDOF 5
ENDMDL
MODEL 10
REMARK VINA RESULT:      -8.8      7.379     10.507
REMARK  Name = 102004611
REMARK  5 active torsions:
REMARK  status: ('A' for Active; 'I' for Inactive)
REMARK    1  A    between atoms: O_2  and  C_15
REMARK    2  A    between atoms: O_2  and  C_17
REMARK    3  A    between atoms: O_10  and  C_31
REMARK    4  A    between atoms: C_14  and  C_16
REMARK    5  A    between atoms: C_18  and  C_26
REMARK                            x       y       z     vdW  Elec       q    Type
REMARK                         _______ _______ _______ _____ _____    ______ ____
ROOT
ATOM      1  O   UNL     1     111.506 127.182 136.171  0.00  0.00    +0.000 OA
ATOM      2  O   UNL     1     113.318 129.368 135.638  0.00  0.00    +0.000 OA
ATOM      3  O   UNL     1     113.800 128.110 136.154  0.00  0.00    +0.000 OA
ATOM      4  C   UNL     1     111.098 129.232 135.381  0.00  0.00    +0.000 A 
ATOM      5  C   UNL     1     112.140 126.719 136.424  0.00  0.00    +0.000 C 
ATOM      6  C   UNL     1     112.905 127.029 136.418  0.00  0.00    +0.000 C 
ATOM      7  C   UNL     1     111.636 127.955 135.912  0.00  0.00    +0.000 A 
ATOM      8  C   UNL     1     112.402 128.264 135.907  0.00  0.00    +0.000 A 
ATOM      9  C   UNL     1     110.967 128.427 135.651  0.00  0.00    +0.000 A 
ATOM     10  C   UNL     1     111.894 129.554 135.375  0.00  0.00    +0.000 A 
ATOM     11  C   UNL     1     113.036 127.801 136.160  0.00  0.00    +0.000 C 
ATOM     12  C   UNL     1     112.550 129.067 135.640  0.00  0.00    +0.000 A 
ENDROOT
BRANCH   5  13
ATOM     13  C   UNL     1     112.010 125.947 136.682  0.00  0.00    +0.000 A 
ATOM     14  C   UNL     1     112.061 125.319 136.149  0.00  0.00    +0.000 A 
ATOM     15  C   UNL     1     111.828 125.802 137.474  0.00  0.00    +0.000 A 
ATOM     16  C   UNL     1     111.931 124.546 136.408  0.00  0.00    +0.000 A 
ATOM     17  C   UNL     1     111.697 125.030 137.733  0.00  0.00    +0.000 A 
ATOM     18  C   UNL     1     111.749 124.402 137.200  0.00  0.00    +0.000 A 
BRANCH  18  19
ATOM     19  O   UNL     1     111.619 123.629 137.458  0.00  0.00    +0.000 OA
ATOM     20  C   UNL     1     112.090 123.014 137.176  0.00  0.00    +0.000 C 
ENDBRANCH  18  19
ENDBRANCH   5  13
BRANCH   4  21
ATOM     21  O   UNL     1     110.462 129.693 135.129  0.00  0.00    +0.000 OA
BRANCH  21  30
ATOM     22  O   UNL     1     110.216 130.395 136.349  0.00  0.00    +0.000 OA
ATOM     23  O   UNL     1     107.778 130.152 135.999  0.00  0.00    +0.000 OA
ATOM     24  O   UNL     1     108.346 130.935 137.334  0.00  0.00    +0.000 OA
ATOM     25  O   UNL     1     108.836 129.530 134.895  0.00  0.00    +0.000 OA
ATOM     26  C   UNL     1     108.591 130.233 136.115  0.00  0.00    +0.000 C 
ATOM     27  C   UNL     1     108.874 130.624 136.783  0.00  0.00    +0.000 C 
ATOM     28  C   UNL     1     109.119 129.922 135.563  0.00  0.00    +0.000 C 
ATOM     29  C   UNL     1     109.687 130.706 136.900  0.00  0.00    +0.000 C 
ATOM     30  C   UNL     1     109.932 130.003 135.680  0.00  0.00    +0.000 C 
BRANCH  29  32
ATOM     31  O   UNL     1     110.524 131.705 137.485  0.00  0.00    +0.000 OA
ATOM     32  C   UNL     1     109.971 131.097 137.568  0.00  0.00    +0.000 C 
ENDBRANCH  29  32
ENDBRANCH  21  30
ENDBRANCH   4  21
TORSDOF 5
ENDMDL
