MODEL 1
REMARK VINA RESULT:      -8.1      0.000      0.000
REMARK  Name = 44260025
REMARK  6 active torsions:
REMARK  status: ('A' for Active; 'I' for Inactive)
REMARK    1  A    between atoms: O_3  and  C_17
REMARK    2  A    between atoms: O_3  and  C_25
REMARK    3  A    between atoms: O_5  and  C_13
REMARK    4  A    between atoms: O_6  and  C_14
REMARK    5  A    between atoms: C_11  and  C_12
REMARK    6  A    between atoms: C_25  and  C_26
REMARK                            x       y       z     vdW  Elec       q    Type
REMARK                         _______ _______ _______ _____ _____    ______ ____
ROOT
ATOM      1  O   UNL     1     103.864 124.958 147.030  0.00  0.00    +0.000 OA
ATOM      2  O   UNL     1     105.906 124.310 145.093  0.00  0.00    +0.000 OA
ATOM      3  O   UNL     1     104.762 123.453 145.282  0.00  0.00    +0.000 OA
ATOM      4  C   UNL     1     104.874 124.639 146.073  0.00  0.00    +0.000 A 
ATOM      5  C   UNL     1     104.575 125.140 146.655  0.00  0.00    +0.000 A 
ATOM      6  C   UNL     1     103.451 124.274 146.823  0.00  0.00    +0.000 A 
ATOM      7  C   UNL     1     103.750 123.773 146.241  0.00  0.00    +0.000 A 
ATOM      8  C   UNL     1     104.995 125.856 146.880  0.00  0.00    +0.000 A 
ATOM      9  C   UNL     1     104.463 123.955 145.865  0.00  0.00    +0.000 A 
ATOM     10  C   UNL     1     105.615 124.817 145.674  0.00  0.00    +0.000 A 
ATOM     11  C   UNL     1     105.737 126.051 146.492  0.00  0.00    +0.000 A 
ATOM     12  C   UNL     1     106.049 125.528 145.885  0.00  0.00    +0.000 A 
ENDROOT
BRANCH   6  15
ATOM     13  O   UNL     1     101.853 122.977 148.906  0.00  0.00    +0.000 OA
ATOM     14  O   UNL     1     100.710 123.455 148.430  0.00  0.00    +0.000 OA
ATOM     15  C   UNL     1     102.740 124.092 147.198  0.00  0.00    +0.000 A 
ATOM     16  C   UNL     1     102.738 123.612 147.869  0.00  0.00    +0.000 A 
ATOM     17  C   UNL     1     102.026 123.429 148.244  0.00  0.00    +0.000 A 
ATOM     18  C   UNL     1     101.316 123.727 147.948  0.00  0.00    +0.000 A 
ATOM     19  C   UNL     1     102.029 124.389 146.902  0.00  0.00    +0.000 A 
ATOM     20  C   UNL     1     101.317 124.207 147.278  0.00  0.00    +0.000 A 
ATOM     21  C   UNL     1     101.041 122.993 149.020  0.00  0.00    +0.000 C 
ENDBRANCH   6  15
BRANCH   7  22
ATOM     22  O   UNL     1     103.339 123.089 146.033  0.00  0.00    +0.000 OA
ATOM     23  C   UNL     1     103.459 122.742 145.294  0.00  0.00    +0.000 C 
ENDBRANCH   7  22
BRANCH   8  24
ATOM     24  O   UNL     1     104.688 126.351 147.463  0.00  0.00    +0.000 OA
ATOM     25  C   UNL     1     104.988 126.319 148.231  0.00  0.00    +0.000 C 
ENDBRANCH   8  24
BRANCH  11  26
ATOM     26  O   UNL     1     106.147 126.736 146.702  0.00  0.00    +0.000 OA
BRANCH  26  27
ATOM     27  C   UNL     1     106.503 127.198 146.118  0.00  0.00    +0.000 C 
BRANCH  27  28
ATOM     28  C   UNL     1     107.056 127.772 146.328  0.00  0.00    +0.000 C 
ATOM     29  C   UNL     1     107.235 128.384 145.804  0.00  0.00    +0.000 C 
ATOM     30  C   UNL     1     107.789 128.959 146.014  0.00  0.00    +0.000 C 
ATOM     31  C   UNL     1     106.860 128.421 145.070  0.00  0.00    +0.000 C 
ENDBRANCH  27  28
ENDBRANCH  26  27
ENDBRANCH  11  26
TORSDOF 6
ENDMDL
MODEL 2
REMARK VINA RESULT:      -8.1     13.034     13.950
REMARK  Name = 44260025
REMARK  6 active torsions:
REMARK  status: ('A' for Active; 'I' for Inactive)
REMARK    1  A    between atoms: O_3  and  C_17
REMARK    2  A    between atoms: O_3  and  C_25
REMARK    3  A    between atoms: O_5  and  C_13
REMARK    4  A    between atoms: O_6  and  C_14
REMARK    5  A    between atoms: C_11  and  C_12
REMARK    6  A    between atoms: C_25  and  C_26
REMARK                            x       y       z     vdW  Elec       q    Type
REMARK                         _______ _______ _______ _____ _____    ______ ____
ROOT
ATOM      1  O   UNL     1     110.275 130.624 135.914  0.00  0.00    +0.000 OA
ATOM      2  O   UNL     1     112.472 131.133 137.720  0.00  0.00    +0.000 OA
ATOM      3  O   UNL     1     111.380 132.068 137.594  0.00  0.00    +0.000 OA
ATOM      4  C   UNL     1     111.362 130.875 136.807  0.00  0.00    +0.000 A 
ATOM      5  C   UNL     1     110.993 130.394 136.247  0.00  0.00    +0.000 A 
ATOM      6  C   UNL     1     109.924 131.336 136.141  0.00  0.00    +0.000 A 
ATOM      7  C   UNL     1     110.292 131.817 136.701  0.00  0.00    +0.000 A 
ATOM      8  C   UNL     1     111.349 129.650 136.002  0.00  0.00    +0.000 A 
ATOM      9  C   UNL     1     111.012 131.587 137.034  0.00  0.00    +0.000 A 
ATOM     10  C   UNL     1     112.111 130.646 137.161  0.00  0.00    +0.000 A 
ATOM     11  C   UNL     1     112.097 129.405 136.345  0.00  0.00    +0.000 A 
ATOM     12  C   UNL     1     112.481 129.907 136.929  0.00  0.00    +0.000 A 
ENDROOT
BRANCH   6  15
ATOM     13  O   UNL     1     106.998 131.387 136.018  0.00  0.00    +0.000 OA
ATOM     14  O   UNL     1     106.984 132.163 134.941  0.00  0.00    +0.000 OA
ATOM     15  C   UNL     1     109.206 131.566 135.809  0.00  0.00    +0.000 A 
ATOM     16  C   UNL     1     108.495 131.315 136.145  0.00  0.00    +0.000 A 
ATOM     17  C   UNL     1     107.777 131.546 135.812  0.00  0.00    +0.000 A 
ATOM     18  C   UNL     1     107.768 132.028 135.143  0.00  0.00    +0.000 A 
ATOM     19  C   UNL     1     109.197 132.049 135.140  0.00  0.00    +0.000 A 
ATOM     20  C   UNL     1     108.478 132.280 134.806  0.00  0.00    +0.000 A 
ATOM     21  C   UNL     1     106.511 131.769 135.480  0.00  0.00    +0.000 C 
ENDBRANCH   6  15
BRANCH   7  22
ATOM     22  O   UNL     1     109.942 132.529 136.929  0.00  0.00    +0.000 OA
ATOM     23  C   UNL     1     110.163 132.889 137.637  0.00  0.00    +0.000 C 
ENDBRANCH   7  22
BRANCH   8  24
ATOM     24  O   UNL     1     110.973 129.176 135.441  0.00  0.00    +0.000 OA
ATOM     25  C   UNL     1     111.250 129.159 134.665  0.00  0.00    +0.000 C 
ENDBRANCH   8  24
BRANCH  11  26
ATOM     26  O   UNL     1     112.445 128.693 136.116  0.00  0.00    +0.000 OA
BRANCH  26  27
ATOM     27  C   UNL     1     112.806 128.210 136.680  0.00  0.00    +0.000 C 
BRANCH  27  28
ATOM     28  C   UNL     1     113.312 127.605 136.441  0.00  0.00    +0.000 C 
ATOM     29  C   UNL     1     113.431 126.950 136.927  0.00  0.00    +0.000 C 
ATOM     30  C   UNL     1     113.938 126.344 136.688  0.00  0.00    +0.000 C 
ATOM     31  C   UNL     1     113.044 126.900 137.654  0.00  0.00    +0.000 C 
ENDBRANCH  27  28
ENDBRANCH  26  27
ENDBRANCH  11  26
TORSDOF 6
ENDMDL
MODEL 3
REMARK VINA RESULT:      -8.1      2.912      4.829
REMARK  Name = 44260025
REMARK  6 active torsions:
REMARK  status: ('A' for Active; 'I' for Inactive)
REMARK    1  A    between atoms: O_3  and  C_17
REMARK    2  A    between atoms: O_3  and  C_25
REMARK    3  A    between atoms: O_5  and  C_13
REMARK    4  A    between atoms: O_6  and  C_14
REMARK    5  A    between atoms: C_11  and  C_12
REMARK    6  A    between atoms: C_25  and  C_26
REMARK                            x       y       z     vdW  Elec       q    Type
REMARK                         _______ _______ _______ _____ _____    ______ ____
ROOT
ATOM      1  O   UNL     1     106.324 125.243 145.899  0.00  0.00    +0.000 OA
ATOM      2  O   UNL     1     106.518 127.343 143.924  0.00  0.00    +0.000 OA
ATOM      3  O   UNL     1     106.878 127.580 145.300  0.00  0.00    +0.000 OA
ATOM      4  C   UNL     1     106.420 126.281 144.921  0.00  0.00    +0.000 A 
ATOM      5  C   UNL     1     106.235 125.502 145.121  0.00  0.00    +0.000 A 
ATOM      6  C   UNL     1     106.598 125.763 146.478  0.00  0.00    +0.000 A 
ATOM      7  C   UNL     1     106.783 126.542 146.278  0.00  0.00    +0.000 A 
ATOM      8  C   UNL     1     105.949 124.950 144.527  0.00  0.00    +0.000 A 
ATOM      9  C   UNL     1     106.694 126.801 145.500  0.00  0.00    +0.000 A 
ATOM     10  C   UNL     1     106.331 126.563 144.113  0.00  0.00    +0.000 A 
ATOM     11  C   UNL     1     105.854 125.214 143.715  0.00  0.00    +0.000 A 
ATOM     12  C   UNL     1     106.047 126.026 143.507  0.00  0.00    +0.000 A 
ENDROOT
BRANCH   6  15
ATOM     13  O   UNL     1     108.118 124.565 148.676  0.00  0.00    +0.000 OA
ATOM     14  O   UNL     1     107.113 124.687 149.534  0.00  0.00    +0.000 OA
ATOM     15  C   UNL     1     106.687 125.505 147.256  0.00  0.00    +0.000 A 
ATOM     16  C   UNL     1     107.400 125.170 147.501  0.00  0.00    +0.000 A 
ATOM     17  C   UNL     1     107.489 124.912 148.279  0.00  0.00    +0.000 A 
ATOM     18  C   UNL     1     106.865 124.988 148.813  0.00  0.00    +0.000 A 
ATOM     19  C   UNL     1     106.063 125.581 147.790  0.00  0.00    +0.000 A 
ATOM     20  C   UNL     1     106.151 125.323 148.569  0.00  0.00    +0.000 A 
ATOM     21  C   UNL     1     107.885 124.427 149.450  0.00  0.00    +0.000 C 
ENDBRANCH   6  15
BRANCH   7  22
ATOM     22  O   UNL     1     107.056 127.063 146.857  0.00  0.00    +0.000 OA
ATOM     23  C   UNL     1     107.218 127.848 146.662  0.00  0.00    +0.000 C 
ENDBRANCH   7  22
BRANCH   8  24
ATOM     24  O   UNL     1     105.767 124.173 144.736  0.00  0.00    +0.000 OA
ATOM     25  C   UNL     1     104.980 123.950 144.844  0.00  0.00    +0.000 C 
ENDBRANCH   8  24
BRANCH  11  26
ATOM     26  O   UNL     1     105.581 124.691 143.138  0.00  0.00    +0.000 OA
BRANCH  26  27
ATOM     27  C   UNL     1     105.919 124.693 142.385  0.00  0.00    +0.000 C 
BRANCH  27  28
ATOM     28  C   UNL     1     105.531 124.325 141.757  0.00  0.00    +0.000 C 
ATOM     29  C   UNL     1     105.955 124.086 141.092  0.00  0.00    +0.000 C 
ATOM     30  C   UNL     1     105.567 123.718 140.464  0.00  0.00    +0.000 C 
ATOM     31  C   UNL     1     106.770 124.214 141.055  0.00  0.00    +0.000 C 
ENDBRANCH  27  28
ENDBRANCH  26  27
ENDBRANCH  11  26
TORSDOF 6
ENDMDL
MODEL 4
REMARK VINA RESULT:      -8.0     11.999     12.851
REMARK  Name = 44260025
REMARK  6 active torsions:
REMARK  status: ('A' for Active; 'I' for Inactive)
REMARK    1  A    between atoms: O_3  and  C_17
REMARK    2  A    between atoms: O_3  and  C_25
REMARK    3  A    between atoms: O_5  and  C_13
REMARK    4  A    between atoms: O_6  and  C_14
REMARK    5  A    between atoms: C_11  and  C_12
REMARK    6  A    between atoms: C_25  and  C_26
REMARK                            x       y       z     vdW  Elec       q    Type
REMARK                         _______ _______ _______ _____ _____    ______ ____
ROOT
ATOM      1  O   UNL     1     110.469 128.025 136.129  0.00  0.00    +0.000 OA
ATOM      2  O   UNL     1     108.030 129.534 135.789  0.00  0.00    +0.000 OA
ATOM      3  O   UNL     1     108.021 128.092 135.776  0.00  0.00    +0.000 OA
ATOM      4  C   UNL     1     109.264 128.772 135.961  0.00  0.00    +0.000 A 
ATOM      5  C   UNL     1     110.080 128.750 136.079  0.00  0.00    +0.000 A 
ATOM      6  C   UNL     1     110.044 127.321 136.062  0.00  0.00    +0.000 A 
ATOM      7  C   UNL     1     109.227 127.344 135.944  0.00  0.00    +0.000 A 
ATOM      8  C   UNL     1     110.535 129.476 136.150  0.00  0.00    +0.000 A 
ATOM      9  C   UNL     1     108.837 128.069 135.894  0.00  0.00    +0.000 A 
ATOM     10  C   UNL     1     108.845 129.522 135.907  0.00  0.00    +0.000 A 
ATOM     11  C   UNL     1     110.134 130.234 136.099  0.00  0.00    +0.000 A 
ATOM     12  C   UNL     1     109.284 130.257 135.976  0.00  0.00    +0.000 A 
ENDROOT
BRANCH   6  15
ATOM     13  O   UNL     1     111.184 125.064 137.539  0.00  0.00    +0.000 OA
ATOM     14  O   UNL     1     111.579 124.446 136.433  0.00  0.00    +0.000 OA
ATOM     15  C   UNL     1     110.433 126.597 136.112  0.00  0.00    +0.000 A 
ATOM     16  C   UNL     1     110.577 126.255 136.849  0.00  0.00    +0.000 A 
ATOM     17  C   UNL     1     110.967 125.530 136.899  0.00  0.00    +0.000 A 
ATOM     18  C   UNL     1     111.213 125.146 136.212  0.00  0.00    +0.000 A 
ATOM     19  C   UNL     1     110.679 126.212 135.424  0.00  0.00    +0.000 A 
ATOM     20  C   UNL     1     111.069 125.486 135.474  0.00  0.00    +0.000 A 
ATOM     21  C   UNL     1     111.561 124.396 137.250  0.00  0.00    +0.000 C 
ENDBRANCH   6  15
BRANCH   7  22
ATOM     22  O   UNL     1     108.801 126.641 135.876  0.00  0.00    +0.000 OA
ATOM     23  C   UNL     1     108.078 126.633 135.479  0.00  0.00    +0.000 C 
ENDBRANCH   7  22
BRANCH   8  24
ATOM     24  O   UNL     1     111.351 129.444 136.268  0.00  0.00    +0.000 OA
ATOM     25  C   UNL     1     111.863 129.585 135.637  0.00  0.00    +0.000 C 
ENDBRANCH   8  24
BRANCH  11  26
ATOM     26  O   UNL     1     110.563 130.935 136.167  0.00  0.00    +0.000 OA
BRANCH  26  27
ATOM     27  C   UNL     1     110.243 131.577 136.576  0.00  0.00    +0.000 C 
BRANCH  27  28
ATOM     28  C   UNL     1     110.482 132.344 136.391  0.00  0.00    +0.000 C 
ATOM     29  C   UNL     1     110.429 132.941 136.958  0.00  0.00    +0.000 C 
ATOM     30  C   UNL     1     110.667 133.709 136.773  0.00  0.00    +0.000 C 
ATOM     31  C   UNL     1     110.137 132.770 137.710  0.00  0.00    +0.000 C 
ENDBRANCH  27  28
ENDBRANCH  26  27
ENDBRANCH  11  26
TORSDOF 6
ENDMDL
MODEL 5
REMARK VINA RESULT:      -8.0     12.841     13.790
REMARK  Name = 44260025
REMARK  6 active torsions:
REMARK  status: ('A' for Active; 'I' for Inactive)
REMARK    1  A    between atoms: O_3  and  C_17
REMARK    2  A    between atoms: O_3  and  C_25
REMARK    3  A    between atoms: O_5  and  C_13
REMARK    4  A    between atoms: O_6  and  C_14
REMARK    5  A    between atoms: C_11  and  C_12
REMARK    6  A    between atoms: C_25  and  C_26
REMARK                            x       y       z     vdW  Elec       q    Type
REMARK                         _______ _______ _______ _____ _____    ______ ____
ROOT
ATOM      1  O   UNL     1     110.501 128.593 135.693  0.00  0.00    +0.000 OA
ATOM      2  O   UNL     1     113.185 128.225 136.694  0.00  0.00    +0.000 OA
ATOM      3  O   UNL     1     112.604 129.541 136.590  0.00  0.00    +0.000 OA
ATOM      4  C   UNL     1     111.828 128.410 136.188  0.00  0.00    +0.000 A 
ATOM      5  C   UNL     1     111.127 128.094 135.889  0.00  0.00    +0.000 A 
ATOM      6  C   UNL     1     110.575 129.409 135.796  0.00  0.00    +0.000 A 
ATOM      7  C   UNL     1     111.276 129.725 136.095  0.00  0.00    +0.000 A 
ATOM      8  C   UNL     1     111.038 127.247 135.777  0.00  0.00    +0.000 A 
ATOM      9  C   UNL     1     111.903 129.225 136.291  0.00  0.00    +0.000 A 
ATOM     10  C   UNL     1     112.489 127.900 136.396  0.00  0.00    +0.000 A 
ATOM     11  C   UNL     1     111.687 126.722 135.979  0.00  0.00    +0.000 A 
ATOM     12  C   UNL     1     112.418 127.051 136.291  0.00  0.00    +0.000 A 
ENDROOT
BRANCH   6  15
ATOM     13  O   UNL     1     108.075 130.818 136.381  0.00  0.00    +0.000 OA
ATOM     14  O   UNL     1     108.019 131.370 135.175  0.00  0.00    +0.000 OA
ATOM     15  C   UNL     1     109.949 129.908 135.600  0.00  0.00    +0.000 A 
ATOM     16  C   UNL     1     109.357 130.065 136.153  0.00  0.00    +0.000 A 
ATOM     17  C   UNL     1     108.730 130.564 135.957  0.00  0.00    +0.000 A 
ATOM     18  C   UNL     1     108.695 130.907 135.208  0.00  0.00    +0.000 A 
ATOM     19  C   UNL     1     109.914 130.251 134.851  0.00  0.00    +0.000 A 
ATOM     20  C   UNL     1     109.286 130.751 134.654  0.00  0.00    +0.000 A 
ATOM     21  C   UNL     1     107.637 131.315 135.898  0.00  0.00    +0.000 C 
ENDBRANCH   6  15
BRANCH   7  22
ATOM     22  O   UNL     1     111.351 130.540 136.198  0.00  0.00    +0.000 OA
ATOM     23  C   UNL     1     111.872 130.838 136.764  0.00  0.00    +0.000 C 
ENDBRANCH   7  22
BRANCH   8  24
ATOM     24  O   UNL     1     110.333 126.940 135.477  0.00  0.00    +0.000 OA
ATOM     25  C   UNL     1     110.290 126.702 134.689  0.00  0.00    +0.000 C 
ENDBRANCH   8  24
BRANCH  11  26
ATOM     26  O   UNL     1     111.610 125.907 135.875  0.00  0.00    +0.000 OA
BRANCH  26  27
ATOM     27  C   UNL     1     112.113 125.390 136.275  0.00  0.00    +0.000 C 
BRANCH  27  28
ATOM     28  C   UNL     1     111.857 124.631 136.469  0.00  0.00    +0.000 C 
ATOM     29  C   UNL     1     112.405 124.047 136.667  0.00  0.00    +0.000 C 
ATOM     30  C   UNL     1     112.148 123.288 136.861  0.00  0.00    +0.000 C 
ATOM     31  C   UNL     1     113.210 124.224 136.671  0.00  0.00    +0.000 C 
ENDBRANCH  27  28
ENDBRANCH  26  27
ENDBRANCH  11  26
TORSDOF 6
ENDMDL
MODEL 6
REMARK VINA RESULT:      -7.9      9.485     11.837
REMARK  Name = 44260025
REMARK  6 active torsions:
REMARK  status: ('A' for Active; 'I' for Inactive)
REMARK    1  A    between atoms: O_3  and  C_17
REMARK    2  A    between atoms: O_3  and  C_25
REMARK    3  A    between atoms: O_5  and  C_13
REMARK    4  A    between atoms: O_6  and  C_14
REMARK    5  A    between atoms: C_11  and  C_12
REMARK    6  A    between atoms: C_25  and  C_26
REMARK                            x       y       z     vdW  Elec       q    Type
REMARK                         _______ _______ _______ _____ _____    ______ ____
ROOT
ATOM      1  O   UNL     1     111.952 126.254 138.723  0.00  0.00    +0.000 OA
ATOM      2  O   UNL     1     114.440 126.714 140.117  0.00  0.00    +0.000 OA
ATOM      3  O   UNL     1     114.421 126.103 138.811  0.00  0.00    +0.000 OA
ATOM      4  C   UNL     1     113.182 126.482 139.413  0.00  0.00    +0.000 A 
ATOM      5  C   UNL     1     112.359 126.532 139.384  0.00  0.00    +0.000 A 
ATOM      6  C   UNL     1     112.368 125.925 138.091  0.00  0.00    +0.000 A 
ATOM      7  C   UNL     1     113.191 125.874 138.120  0.00  0.00    +0.000 A 
ATOM      8  C   UNL     1     111.914 126.873 140.036  0.00  0.00    +0.000 A 
ATOM      9  C   UNL     1     113.598 126.153 138.782  0.00  0.00    +0.000 A 
ATOM     10  C   UNL     1     113.618 126.769 140.097  0.00  0.00    +0.000 A 
ATOM     11  C   UNL     1     112.333 127.165 140.727  0.00  0.00    +0.000 A 
ATOM     12  C   UNL     1     113.191 127.112 140.758  0.00  0.00    +0.000 A 
ENDROOT
BRANCH   6  15
ATOM     13  O   UNL     1     111.052 126.266 135.497  0.00  0.00    +0.000 OA
ATOM     14  O   UNL     1     110.749 124.978 135.399  0.00  0.00    +0.000 OA
ATOM     15  C   UNL     1     111.961 125.646 137.430  0.00  0.00    +0.000 A 
ATOM     16  C   UNL     1     111.743 126.168 136.829  0.00  0.00    +0.000 A 
ATOM     17  C   UNL     1     111.336 125.889 136.168  0.00  0.00    +0.000 A 
ATOM     18  C   UNL     1     111.148 125.088 136.107  0.00  0.00    +0.000 A 
ATOM     19  C   UNL     1     111.773 124.845 137.369  0.00  0.00    +0.000 A 
ATOM     20  C   UNL     1     111.366 124.566 136.707  0.00  0.00    +0.000 A 
ATOM     21  C   UNL     1     110.690 125.703 135.023  0.00  0.00    +0.000 C 
ENDBRANCH   6  15
BRANCH   7  22
ATOM     22  O   UNL     1     113.607 125.545 137.488  0.00  0.00    +0.000 OA
ATOM     23  C   UNL     1     114.397 125.327 137.583  0.00  0.00    +0.000 C 
ENDBRANCH   7  22
BRANCH   8  24
ATOM     24  O   UNL     1     111.092 126.919 139.998  0.00  0.00    +0.000 OA
ATOM     25  C   UNL     1     110.629 126.389 140.429  0.00  0.00    +0.000 C 
ENDBRANCH   8  24
BRANCH  11  26
ATOM     26  O   UNL     1     111.914 127.493 141.358  0.00  0.00    +0.000 OA
BRANCH  26  27
ATOM     27  C   UNL     1     112.212 128.155 141.750  0.00  0.00    +0.000 C 
BRANCH  27  28
ATOM     28  C   UNL     1     111.911 128.367 142.489  0.00  0.00    +0.000 C 
ATOM     29  C   UNL     1     111.986 129.143 142.758  0.00  0.00    +0.000 C 
ATOM     30  C   UNL     1     111.685 129.354 143.497  0.00  0.00    +0.000 C 
ATOM     31  C   UNL     1     112.363 129.707 142.289  0.00  0.00    +0.000 C 
ENDBRANCH  27  28
ENDBRANCH  26  27
ENDBRANCH  11  26
TORSDOF 6
ENDMDL
MODEL 7
REMARK VINA RESULT:      -7.9      5.690      7.652
REMARK  Name = 44260025
REMARK  6 active torsions:
REMARK  status: ('A' for Active; 'I' for Inactive)
REMARK    1  A    between atoms: O_3  and  C_17
REMARK    2  A    between atoms: O_3  and  C_25
REMARK    3  A    between atoms: O_5  and  C_13
REMARK    4  A    between atoms: O_6  and  C_14
REMARK    5  A    between atoms: C_11  and  C_12
REMARK    6  A    between atoms: C_25  and  C_26
REMARK                            x       y       z     vdW  Elec       q    Type
REMARK                         _______ _______ _______ _____ _____    ______ ____
ROOT
ATOM      1  O   UNL     1     103.326 130.203 142.385  0.00  0.00    +0.000 OA
ATOM      2  O   UNL     1     104.314 127.882 140.977  0.00  0.00    +0.000 OA
ATOM      3  O   UNL     1     103.372 128.783 140.358  0.00  0.00    +0.000 OA
ATOM      4  C   UNL     1     103.815 129.055 141.690  0.00  0.00    +0.000 A 
ATOM      5  C   UNL     1     103.800 129.529 142.365  0.00  0.00    +0.000 A 
ATOM      6  C   UNL     1     102.867 130.405 141.729  0.00  0.00    +0.000 A 
ATOM      7  C   UNL     1     102.883 129.932 141.054  0.00  0.00    +0.000 A 
ATOM      8  C   UNL     1     104.273 129.329 143.054  0.00  0.00    +0.000 A 
ATOM      9  C   UNL     1     103.357 129.256 141.034  0.00  0.00    +0.000 A 
ATOM     10  C   UNL     1     104.305 128.349 141.656  0.00  0.00    +0.000 A 
ATOM     11  C   UNL     1     104.769 128.627 143.040  0.00  0.00    +0.000 A 
ATOM     12  C   UNL     1     104.785 128.134 142.336  0.00  0.00    +0.000 A 
ENDROOT
BRANCH   6  15
ATOM     13  O   UNL     1     102.378 133.267 141.344  0.00  0.00    +0.000 OA
ATOM     14  O   UNL     1     101.118 133.180 141.749  0.00  0.00    +0.000 OA
ATOM     15  C   UNL     1     102.394 131.080 141.749  0.00  0.00    +0.000 A 
ATOM     16  C   UNL     1     102.703 131.809 141.517  0.00  0.00    +0.000 A 
ATOM     17  C   UNL     1     102.230 132.483 141.537  0.00  0.00    +0.000 A 
ATOM     18  C   UNL     1     101.446 132.430 141.788  0.00  0.00    +0.000 A 
ATOM     19  C   UNL     1     101.610 131.026 142.001  0.00  0.00    +0.000 A 
ATOM     20  C   UNL     1     101.136 131.702 142.021  0.00  0.00    +0.000 A 
ATOM     21  C   UNL     1     101.692 133.696 141.475  0.00  0.00    +0.000 C 
ENDBRANCH   6  15
BRANCH   7  22
ATOM     22  O   UNL     1     102.425 130.133 140.398  0.00  0.00    +0.000 OA
ATOM     23  C   UNL     1     102.236 129.560 139.835  0.00  0.00    +0.000 C 
ENDBRANCH   7  22
BRANCH   8  24
ATOM     24  O   UNL     1     104.251 129.809 143.725  0.00  0.00    +0.000 OA
ATOM     25  C   UNL     1     104.869 130.335 143.875  0.00  0.00    +0.000 C 
ENDBRANCH   8  24
BRANCH  11  26
ATOM     26  O   UNL     1     105.226 128.428 143.697  0.00  0.00    +0.000 OA
BRANCH  26  27
ATOM     27  C   UNL     1     105.436 127.642 143.830  0.00  0.00    +0.000 C 
BRANCH  27  28
ATOM     28  C   UNL     1     105.752 127.416 144.558  0.00  0.00    +0.000 C 
ATOM     29  C   UNL     1     106.043 126.652 144.663  0.00  0.00    +0.000 C 
ATOM     30  C   UNL     1     106.359 126.427 145.392  0.00  0.00    +0.000 C 
ATOM     31  C   UNL     1     106.019 126.113 144.040  0.00  0.00    +0.000 C 
ENDBRANCH  27  28
ENDBRANCH  26  27
ENDBRANCH  11  26
TORSDOF 6
ENDMDL
MODEL 8
REMARK VINA RESULT:      -7.9     11.779     13.704
REMARK  Name = 44260025
REMARK  6 active torsions:
REMARK  status: ('A' for Active; 'I' for Inactive)
REMARK    1  A    between atoms: O_3  and  C_17
REMARK    2  A    between atoms: O_3  and  C_25
REMARK    3  A    between atoms: O_5  and  C_13
REMARK    4  A    between atoms: O_6  and  C_14
REMARK    5  A    between atoms: C_11  and  C_12
REMARK    6  A    between atoms: C_25  and  C_26
REMARK                            x       y       z     vdW  Elec       q    Type
REMARK                         _______ _______ _______ _____ _____    ______ ____
ROOT
ATOM      1  O   UNL     1     112.300 126.931 136.513  0.00  0.00    +0.000 OA
ATOM      2  O   UNL     1     111.177 128.796 134.614  0.00  0.00    +0.000 OA
ATOM      3  O   UNL     1     110.565 127.511 134.846  0.00  0.00    +0.000 OA
ATOM      4  C   UNL     1     111.746 127.854 135.574  0.00  0.00    +0.000 A 
ATOM      5  C   UNL     1     112.324 127.661 136.130  0.00  0.00    +0.000 A 
ATOM      6  C   UNL     1     111.698 126.394 136.341  0.00  0.00    +0.000 A 
ATOM      7  C   UNL     1     111.120 126.587 135.785  0.00  0.00    +0.000 A 
ATOM      8  C   UNL     1     112.957 128.212 136.318  0.00  0.00    +0.000 A 
ATOM      9  C   UNL     1     111.143 127.318 135.402  0.00  0.00    +0.000 A 
ATOM     10  C   UNL     1     111.759 128.612 135.168  0.00  0.00    +0.000 A 
ATOM     11  C   UNL     1     112.987 128.974 135.922  0.00  0.00    +0.000 A 
ATOM     12  C   UNL     1     112.384 129.175 135.343  0.00  0.00    +0.000 A 
ENDROOT
BRANCH   6  15
ATOM     13  O   UNL     1     112.397 123.564 136.617  0.00  0.00    +0.000 OA
ATOM     14  O   UNL     1     111.704 123.427 137.741  0.00  0.00    +0.000 OA
ATOM     15  C   UNL     1     111.674 125.664 136.724  0.00  0.00    +0.000 A 
ATOM     16  C   UNL     1     112.081 125.019 136.409  0.00  0.00    +0.000 A 
ATOM     17  C   UNL     1     112.057 124.289 136.792  0.00  0.00    +0.000 A 
ATOM     18  C   UNL     1     111.626 124.204 137.491  0.00  0.00    +0.000 A 
ATOM     19  C   UNL     1     111.243 125.579 137.422  0.00  0.00    +0.000 A 
ATOM     20  C   UNL     1     111.219 124.848 137.806  0.00  0.00    +0.000 A 
ATOM     21  C   UNL     1     112.179 123.032 137.202  0.00  0.00    +0.000 C 
ENDBRANCH   6  15
BRANCH   7  22
ATOM     22  O   UNL     1     110.517 126.051 135.613  0.00  0.00    +0.000 OA
ATOM     23  C   UNL     1     109.984 126.210 135.003  0.00  0.00    +0.000 C 
ENDBRANCH   7  22
BRANCH   8  24
ATOM     24  O   UNL     1     113.531 128.010 136.875  0.00  0.00    +0.000 OA
ATOM     25  C   UNL     1     113.487 128.315 137.640  0.00  0.00    +0.000 C 
ENDBRANCH   8  24
BRANCH  11  26
ATOM     26  O   UNL     1     113.590 129.509 136.096  0.00  0.00    +0.000 OA
BRANCH  26  27
ATOM     27  C   UNL     1     114.053 129.821 135.488  0.00  0.00    +0.000 C 
BRANCH  27  28
ATOM     28  C   UNL     1     114.422 130.552 135.585  0.00  0.00    +0.000 C 
ATOM     29  C   UNL     1     115.096 130.736 135.148  0.00  0.00    +0.000 C 
ATOM     30  C   UNL     1     115.466 131.467 135.244  0.00  0.00    +0.000 C 
ATOM     31  C   UNL     1     115.402 130.187 134.612  0.00  0.00    +0.000 C 
ENDBRANCH  27  28
ENDBRANCH  26  27
ENDBRANCH  11  26
TORSDOF 6
ENDMDL
MODEL 9
REMARK VINA RESULT:      -7.8     12.132     13.151
REMARK  Name = 44260025
REMARK  6 active torsions:
REMARK  status: ('A' for Active; 'I' for Inactive)
REMARK    1  A    between atoms: O_3  and  C_17
REMARK    2  A    between atoms: O_3  and  C_25
REMARK    3  A    between atoms: O_5  and  C_13
REMARK    4  A    between atoms: O_6  and  C_14
REMARK    5  A    between atoms: C_11  and  C_12
REMARK    6  A    between atoms: C_25  and  C_26
REMARK                            x       y       z     vdW  Elec       q    Type
REMARK                         _______ _______ _______ _____ _____    ______ ____
ROOT
ATOM      1  O   UNL     1     112.535 127.891 137.230  0.00  0.00    +0.000 OA
ATOM      2  O   UNL     1     113.112 129.695 139.411  0.00  0.00    +0.000 OA
ATOM      3  O   UNL     1     113.436 128.293 139.500  0.00  0.00    +0.000 OA
ATOM      4  C   UNL     1     112.820 128.784 138.308  0.00  0.00    +0.000 A 
ATOM      5  C   UNL     1     112.520 128.650 137.551  0.00  0.00    +0.000 A 
ATOM      6  C   UNL     1     112.851 127.265 137.665  0.00  0.00    +0.000 A 
ATOM      7  C   UNL     1     113.151 127.399 138.422  0.00  0.00    +0.000 A 
ATOM      8  C   UNL     1     112.188 129.294 137.088  0.00  0.00    +0.000 A 
ATOM      9  C   UNL     1     113.136 128.159 138.743  0.00  0.00    +0.000 A 
ATOM     10  C   UNL     1     112.810 129.571 138.655  0.00  0.00    +0.000 A 
ATOM     11  C   UNL     1     112.169 130.087 137.417  0.00  0.00    +0.000 A 
ATOM     12  C   UNL     1     112.482 130.227 138.206  0.00  0.00    +0.000 A 
ENDROOT
BRANCH   6  15
ATOM     13  O   UNL     1     111.667 124.651 137.077  0.00  0.00    +0.000 OA
ATOM     14  O   UNL     1     112.752 124.221 136.445  0.00  0.00    +0.000 OA
ATOM     15  C   UNL     1     112.866 126.506 137.344  0.00  0.00    +0.000 A 
ATOM     16  C   UNL     1     112.208 126.013 137.415  0.00  0.00    +0.000 A 
ATOM     17  C   UNL     1     112.224 125.254 137.094  0.00  0.00    +0.000 A 
ATOM     18  C   UNL     1     112.898 124.986 136.701  0.00  0.00    +0.000 A 
ATOM     19  C   UNL     1     113.541 126.238 136.951  0.00  0.00    +0.000 A 
ATOM     20  C   UNL     1     113.557 125.477 136.630  0.00  0.00    +0.000 A 
ATOM     21  C   UNL     1     111.993 124.015 136.677  0.00  0.00    +0.000 C 
ENDBRANCH   6  15
BRANCH   7  22
ATOM     22  O   UNL     1     113.467 126.773 138.857  0.00  0.00    +0.000 OA
ATOM     23  C   UNL     1     113.504 126.820 139.680  0.00  0.00    +0.000 C 
ENDBRANCH   7  22
BRANCH   8  24
ATOM     24  O   UNL     1     111.890 129.150 136.332  0.00  0.00    +0.000 OA
ATOM     25  C   UNL     1     112.336 129.354 135.669  0.00  0.00    +0.000 C 
ENDBRANCH   8  24
BRANCH  11  26
ATOM     26  O   UNL     1     111.853 130.711 136.980  0.00  0.00    +0.000 OA
BRANCH  26  27
ATOM     27  C   UNL     1     111.458 131.325 137.364  0.00  0.00    +0.000 C 
BRANCH  27  28
ATOM     28  C   UNL     1     111.332 132.042 136.975  0.00  0.00    +0.000 C 
ATOM     29  C   UNL     1     110.735 132.551 137.229  0.00  0.00    +0.000 C 
ATOM     30  C   UNL     1     110.610 133.267 136.840  0.00  0.00    +0.000 C 
ATOM     31  C   UNL     1     110.263 132.343 137.873  0.00  0.00    +0.000 C 
ENDBRANCH  27  28
ENDBRANCH  26  27
ENDBRANCH  11  26
TORSDOF 6
ENDMDL
MODEL 10
REMARK VINA RESULT:      -7.8     11.946     13.129
REMARK  Name = 44260025
REMARK  6 active torsions:
REMARK  status: ('A' for Active; 'I' for Inactive)
REMARK    1  A    between atoms: O_3  and  C_17
REMARK    2  A    between atoms: O_3  and  C_25
REMARK    3  A    between atoms: O_5  and  C_13
REMARK    4  A    between atoms: O_6  and  C_14
REMARK    5  A    between atoms: C_11  and  C_12
REMARK    6  A    between atoms: C_25  and  C_26
REMARK                            x       y       z     vdW  Elec       q    Type
REMARK                         _______ _______ _______ _____ _____    ______ ____
ROOT
ATOM      1  O   UNL     1     113.102 128.582 139.000  0.00  0.00    +0.000 OA
ATOM      2  O   UNL     1     113.230 125.717 138.659  0.00  0.00    +0.000 OA
ATOM      3  O   UNL     1     113.791 126.353 139.825  0.00  0.00    +0.000 OA
ATOM      4  C   UNL     1     113.165 127.165 138.830  0.00  0.00    +0.000 A 
ATOM      5  C   UNL     1     112.935 127.909 138.555  0.00  0.00    +0.000 A 
ATOM      6  C   UNL     1     113.499 128.514 139.720  0.00  0.00    +0.000 A 
ATOM      7  C   UNL     1     113.728 127.771 139.995  0.00  0.00    +0.000 A 
ATOM      8  C   UNL     1     112.521 127.993 137.806  0.00  0.00    +0.000 A 
ATOM      9  C   UNL     1     113.561 127.096 139.550  0.00  0.00    +0.000 A 
ATOM     10  C   UNL     1     112.996 126.455 138.376  0.00  0.00    +0.000 A 
ATOM     11  C   UNL     1     112.344 127.294 137.339  0.00  0.00    +0.000 A 
ATOM     12  C   UNL     1     112.583 126.520 137.626  0.00  0.00    +0.000 A 
ENDROOT
BRANCH   6  15
ATOM     13  O   UNL     1     115.186 130.776 140.504  0.00  0.00    +0.000 OA
ATOM     14  O   UNL     1     114.314 131.209 141.405  0.00  0.00    +0.000 OA
ATOM     15  C   UNL     1     113.666 129.188 140.164  0.00  0.00    +0.000 A 
ATOM     16  C   UNL     1     114.375 129.594 140.049  0.00  0.00    +0.000 A 
ATOM     17  C   UNL     1     114.542 130.268 140.494  0.00  0.00    +0.000 A 
ATOM     18  C   UNL     1     114.000 130.537 141.055  0.00  0.00    +0.000 A 
ATOM     19  C   UNL     1     113.124 129.457 140.725  0.00  0.00    +0.000 A 
ATOM     20  C   UNL     1     113.291 130.132 141.170  0.00  0.00    +0.000 A 
ATOM     21  C   UNL     1     115.045 131.356 141.066  0.00  0.00    +0.000 C 
ENDBRANCH   6  15
BRANCH   7  22
ATOM     22  O   UNL     1     114.125 127.702 140.715  0.00  0.00    +0.000 OA
ATOM     23  C   UNL     1     114.599 127.043 140.863  0.00  0.00    +0.000 C 
ENDBRANCH   7  22
BRANCH   8  24
ATOM     24  O   UNL     1     112.295 128.740 137.539  0.00  0.00    +0.000 OA
ATOM     25  C   UNL     1     112.731 129.115 136.947  0.00  0.00    +0.000 C 
ENDBRANCH   8  24
BRANCH  11  26
ATOM     26  O   UNL     1     111.947 127.366 136.619  0.00  0.00    +0.000 OA
BRANCH  26  27
ATOM     27  C   UNL     1     111.547 126.717 136.302  0.00  0.00    +0.000 C 
BRANCH  27  28
ATOM     28  C   UNL     1     111.069 126.813 135.636  0.00  0.00    +0.000 C 
ATOM     29  C   UNL     1     110.721 126.155 135.281  0.00  0.00    +0.000 C 
ATOM     30  C   UNL     1     110.243 126.250 134.615  0.00  0.00    +0.000 C 
ATOM     31  C   UNL     1     110.851 125.402 135.591  0.00  0.00    +0.000 C 
ENDBRANCH  27  28
ENDBRANCH  26  27
ENDBRANCH  11  26
TORSDOF 6
ENDMDL
