MODEL 1
REMARK VINA RESULT:     -10.6      0.000      0.000
REMARK  Name = 74977759
REMARK  3 active torsions:
REMARK  status: ('A' for Active; 'I' for Inactive)
REMARK    1  A    between atoms: C_15  and  C_18
REMARK    2  A    between atoms: C_17  and  C_19
REMARK    3  A    between atoms: C_26  and  C_28
REMARK                            x       y       z     vdW  Elec       q    Type
REMARK                         _______ _______ _______ _____ _____    ______ ____
ROOT
ATOM      1  O   UNL     1     106.024 124.097 141.224  0.00  0.00    +0.000 OA
ATOM      2  O   UNL     1     105.106 126.773 140.824  0.00  0.00    +0.000 OA
ATOM      3  O   UNL     1     104.247 124.697 139.020  0.00  0.00    +0.000 OA
ATOM      4  O   UNL     1     105.617 123.029 140.344  0.00  0.00    +0.000 OA
ATOM      5  C   UNL     1     105.565 125.435 141.025  0.00  0.00    +0.000 A 
ATOM      6  C   UNL     1     105.578 124.642 140.795  0.00  0.00    +0.000 A 
ATOM      7  C   UNL     1     105.120 125.981 140.595  0.00  0.00    +0.000 A 
ATOM      8  C   UNL     1     105.147 124.396 140.137  0.00  0.00    +0.000 A 
ATOM      9  C   UNL     1     104.688 125.734 139.937  0.00  0.00    +0.000 A 
ATOM     10  C   UNL     1     104.701 124.942 139.708  0.00  0.00    +0.000 A 
ATOM     11  C   UNL     1     105.169 123.567 139.909  0.00  0.00    +0.000 A 
ATOM     12  C   UNL     1     104.257 123.873 138.777  0.00  0.00    +0.000 A 
ATOM     13  C   UNL     1     104.721 123.305 139.224  0.00  0.00    +0.000 A 
ENDROOT
BRANCH   5  20
ATOM     14  O   UNL     1     105.652 125.666 142.432  0.00  0.00    +0.000 OA
ATOM     15  O   UNL     1     107.119 125.960 140.842  0.00  0.00    +0.000 OA
ATOM     16  O   UNL     1     107.983 126.453 142.159  0.00  0.00    +0.000 OA
ATOM     17  O   UNL     1     107.293 126.422 143.656  0.00  0.00    +0.000 OA
ATOM     18  C   UNL     1     106.773 125.944 141.591  0.00  0.00    +0.000 C 
ATOM     19  C   UNL     1     107.206 126.191 142.250  0.00  0.00    +0.000 C 
ATOM     20  C   UNL     1     105.996 125.682 141.682  0.00  0.00    +0.000 C 
ATOM     21  C   UNL     1     106.860 126.175 142.999  0.00  0.00    +0.000 C 
ATOM     22  C   UNL     1     106.083 125.913 143.090  0.00  0.00    +0.000 C 
BRANCH  22  24
ATOM     23  O   UNL     1     105.297 125.243 144.077  0.00  0.00    +0.000 OA
ATOM     24  C   UNL     1     105.739 125.898 143.839  0.00  0.00    +0.000 C 
ENDBRANCH  22  24
ENDBRANCH   5  20
BRANCH  12  28
ATOM     25  O   UNL     1     102.623 123.678 138.890  0.00  0.00    +0.000 OA
ATOM     26  O   UNL     1     104.160 123.093 136.030  0.00  0.00    +0.000 OA
ATOM     27  O   UNL     1     102.525 122.897 136.143  0.00  0.00    +0.000 OA
ATOM     28  C   UNL     1     103.825 123.629 138.119  0.00  0.00    +0.000 A 
ATOM     29  C   UNL     1     103.007 123.531 138.175  0.00  0.00    +0.000 A 
ATOM     30  C   UNL     1     104.208 123.483 137.403  0.00  0.00    +0.000 A 
ATOM     31  C   UNL     1     103.775 123.239 136.745  0.00  0.00    +0.000 A 
ATOM     32  C   UNL     1     102.574 123.287 137.517  0.00  0.00    +0.000 A 
ATOM     33  C   UNL     1     102.958 123.141 136.801  0.00  0.00    +0.000 A 
ENDBRANCH  12  28
TORSDOF 3
ENDMDL
MODEL 2
REMARK VINA RESULT:     -10.1      4.564      6.412
REMARK  Name = 74977759
REMARK  3 active torsions:
REMARK  status: ('A' for Active; 'I' for Inactive)
REMARK    1  A    between atoms: C_15  and  C_18
REMARK    2  A    between atoms: C_17  and  C_19
REMARK    3  A    between atoms: C_26  and  C_28
REMARK                            x       y       z     vdW  Elec       q    Type
REMARK                         _______ _______ _______ _____ _____    ______ ____
ROOT
ATOM      1  O   UNL     1     106.481 124.609 146.092  0.00  0.00    +0.000 OA
ATOM      2  O   UNL     1     106.694 127.034 147.588  0.00  0.00    +0.000 OA
ATOM      3  O   UNL     1     106.258 127.159 144.742  0.00  0.00    +0.000 OA
ATOM      4  O   UNL     1     106.262 124.628 144.667  0.00  0.00    +0.000 OA
ATOM      5  C   UNL     1     106.588 125.822 146.841  0.00  0.00    +0.000 A 
ATOM      6  C   UNL     1     106.480 125.434 146.120  0.00  0.00    +0.000 A 
ATOM      7  C   UNL     1     106.587 126.646 146.868  0.00  0.00    +0.000 A 
ATOM      8  C   UNL     1     106.371 125.869 145.429  0.00  0.00    +0.000 A 
ATOM      9  C   UNL     1     106.478 127.082 146.176  0.00  0.00    +0.000 A 
ATOM     10  C   UNL     1     106.370 126.694 145.457  0.00  0.00    +0.000 A 
ATOM     11  C   UNL     1     106.260 125.453 144.685  0.00  0.00    +0.000 A 
ATOM     12  C   UNL     1     106.146 126.760 143.990  0.00  0.00    +0.000 A 
ATOM     13  C   UNL     1     106.147 125.901 143.961  0.00  0.00    +0.000 A 
ENDROOT
BRANCH   5  20
ATOM     14  O   UNL     1     106.043 125.146 147.976  0.00  0.00    +0.000 OA
ATOM     15  O   UNL     1     108.111 125.430 147.338  0.00  0.00    +0.000 OA
ATOM     16  O   UNL     1     108.329 124.558 148.722  0.00  0.00    +0.000 OA
ATOM     17  O   UNL     1     107.023 124.079 149.608  0.00  0.00    +0.000 OA
ATOM     18  C   UNL     1     107.458 125.190 147.781  0.00  0.00    +0.000 C 
ATOM     19  C   UNL     1     107.567 124.754 148.473  0.00  0.00    +0.000 C 
ATOM     20  C   UNL     1     106.696 125.386 147.532  0.00  0.00    +0.000 C 
ATOM     21  C   UNL     1     106.914 124.514 148.916  0.00  0.00    +0.000 C 
ATOM     22  C   UNL     1     106.152 124.710 148.667  0.00  0.00    +0.000 C 
BRANCH  22  24
ATOM     23  O   UNL     1     104.750 124.772 148.940  0.00  0.00    +0.000 OA
ATOM     24  C   UNL     1     105.499 124.471 149.111  0.00  0.00    +0.000 C 
ENDBRANCH  22  24
ENDBRANCH   5  20
BRANCH  12  28
ATOM     25  O   UNL     1     107.448 127.188 143.072  0.00  0.00    +0.000 OA
ATOM     26  O   UNL     1     104.411 128.086 142.146  0.00  0.00    +0.000 OA
ATOM     27  O   UNL     1     105.713 128.514 141.228  0.00  0.00    +0.000 OA
ATOM     28  C   UNL     1     106.037 127.198 143.300  0.00  0.00    +0.000 A 
ATOM     29  C   UNL     1     106.688 127.412 142.841  0.00  0.00    +0.000 A 
ATOM     30  C   UNL     1     105.278 127.423 143.068  0.00  0.00    +0.000 A 
ATOM     31  C   UNL     1     105.170 127.861 142.378  0.00  0.00    +0.000 A 
ATOM     32  C   UNL     1     106.581 127.851 142.150  0.00  0.00    +0.000 A 
ATOM     33  C   UNL     1     105.821 128.075 141.918  0.00  0.00    +0.000 A 
ENDBRANCH  12  28
TORSDOF 3
ENDMDL
MODEL 3
REMARK VINA RESULT:     -10.0      7.402      8.832
REMARK  Name = 74977759
REMARK  3 active torsions:
REMARK  status: ('A' for Active; 'I' for Inactive)
REMARK    1  A    between atoms: C_15  and  C_18
REMARK    2  A    between atoms: C_17  and  C_19
REMARK    3  A    between atoms: C_26  and  C_28
REMARK                            x       y       z     vdW  Elec       q    Type
REMARK                         _______ _______ _______ _____ _____    ______ ____
ROOT
ATOM      1  O   UNL     1     112.720 129.039 139.084  0.00  0.00    +0.000 OA
ATOM      2  O   UNL     1     114.145 127.641 141.128  0.00  0.00    +0.000 OA
ATOM      3  O   UNL     1     113.067 126.172 138.896  0.00  0.00    +0.000 OA
ATOM      4  O   UNL     1     112.165 128.341 137.950  0.00  0.00    +0.000 OA
ATOM      5  C   UNL     1     113.433 128.340 140.106  0.00  0.00    +0.000 A 
ATOM      6  C   UNL     1     113.015 128.334 139.395  0.00  0.00    +0.000 A 
ATOM      7  C   UNL     1     113.728 127.635 140.417  0.00  0.00    +0.000 A 
ATOM      8  C   UNL     1     112.893 127.624 138.994  0.00  0.00    +0.000 A 
ATOM      9  C   UNL     1     113.605 126.925 140.016  0.00  0.00    +0.000 A 
ATOM     10  C   UNL     1     113.188 126.919 139.305  0.00  0.00    +0.000 A 
ATOM     11  C   UNL     1     112.456 127.631 138.253  0.00  0.00    +0.000 A 
ATOM     12  C   UNL     1     112.633 126.160 138.155  0.00  0.00    +0.000 A 
ATOM     13  C   UNL     1     112.326 126.894 137.832  0.00  0.00    +0.000 A 
ENDROOT
BRANCH   5  20
ATOM     14  O   UNL     1     114.202 129.526 140.317  0.00  0.00    +0.000 OA
ATOM     15  O   UNL     1     112.384 128.811 141.290  0.00  0.00    +0.000 OA
ATOM     16  O   UNL     1     112.629 130.232 142.092  0.00  0.00    +0.000 OA
ATOM     17  O   UNL     1     113.922 131.182 141.710  0.00  0.00    +0.000 OA
ATOM     18  C   UNL     1     113.031 129.286 141.099  0.00  0.00    +0.000 C 
ATOM     19  C   UNL     1     113.153 129.997 141.500  0.00  0.00    +0.000 C 
ATOM     20  C   UNL     1     113.555 129.050 140.507  0.00  0.00    +0.000 C 
ATOM     21  C   UNL     1     113.800 130.471 141.309  0.00  0.00    +0.000 C 
ATOM     22  C   UNL     1     114.325 130.236 140.718  0.00  0.00    +0.000 C 
BRANCH  22  24
ATOM     23  O   UNL     1     115.710 130.369 140.391  0.00  0.00    +0.000 OA
ATOM     24  C   UNL     1     114.971 130.711 140.527  0.00  0.00    +0.000 C 
ENDBRANCH  22  24
ENDBRANCH   5  20
BRANCH  12  28
ATOM     25  O   UNL     1     111.265 125.281 138.434  0.00  0.00    +0.000 OA
ATOM     26  O   UNL     1     113.516 124.191 136.281  0.00  0.00    +0.000 OA
ATOM     27  O   UNL     1     112.148 123.312 136.561  0.00  0.00    +0.000 OA
ATOM     28  C   UNL     1     112.512 125.448 137.757  0.00  0.00    +0.000 A 
ATOM     29  C   UNL     1     111.828 125.009 137.896  0.00  0.00    +0.000 A 
ATOM     30  C   UNL     1     113.074 125.176 137.218  0.00  0.00    +0.000 A 
ATOM     31  C   UNL     1     112.953 124.464 136.820  0.00  0.00    +0.000 A 
ATOM     32  C   UNL     1     111.706 124.296 137.498  0.00  0.00    +0.000 A 
ATOM     33  C   UNL     1     112.269 124.024 136.959  0.00  0.00    +0.000 A 
ENDBRANCH  12  28
TORSDOF 3
ENDMDL
MODEL 4
REMARK VINA RESULT:      -9.9      7.925     10.366
REMARK  Name = 74977759
REMARK  3 active torsions:
REMARK  status: ('A' for Active; 'I' for Inactive)
REMARK    1  A    between atoms: C_15  and  C_18
REMARK    2  A    between atoms: C_17  and  C_19
REMARK    3  A    between atoms: C_26  and  C_28
REMARK                            x       y       z     vdW  Elec       q    Type
REMARK                         _______ _______ _______ _____ _____    ______ ____
ROOT
ATOM      1  O   UNL     1     113.822 126.105 139.380  0.00  0.00    +0.000 OA
ATOM      2  O   UNL     1     112.475 127.481 137.269  0.00  0.00    +0.000 OA
ATOM      3  O   UNL     1     113.216 128.922 139.652  0.00  0.00    +0.000 OA
ATOM      4  O   UNL     1     114.209 126.789 140.589  0.00  0.00    +0.000 OA
ATOM      5  C   UNL     1     113.148 126.793 138.324  0.00  0.00    +0.000 A 
ATOM      6  C   UNL     1     113.497 126.798 139.072  0.00  0.00    +0.000 A 
ATOM      7  C   UNL     1     112.824 127.486 138.016  0.00  0.00    +0.000 A 
ATOM      8  C   UNL     1     113.521 127.495 139.511  0.00  0.00    +0.000 A 
ATOM      9  C   UNL     1     112.848 128.184 138.456  0.00  0.00    +0.000 A 
ATOM     10  C   UNL     1     113.197 128.188 139.203  0.00  0.00    +0.000 A 
ATOM     11  C   UNL     1     113.887 127.487 140.289  0.00  0.00    +0.000 A 
ATOM     12  C   UNL     1     113.577 128.932 140.431  0.00  0.00    +0.000 A 
ATOM     13  C   UNL     1     113.915 128.211 140.751  0.00  0.00    +0.000 A 
ENDROOT
BRANCH   5  20
ATOM     14  O   UNL     1     113.758 125.893 137.396  0.00  0.00    +0.000 OA
ATOM     15  O   UNL     1     111.832 125.803 138.420  0.00  0.00    +0.000 OA
ATOM     16  O   UNL     1     111.784 124.407 137.541  0.00  0.00    +0.000 OA
ATOM     17  O   UNL     1     113.051 124.003 136.565  0.00  0.00    +0.000 OA
ATOM     18  C   UNL     1     112.466 125.601 137.932  0.00  0.00    +0.000 C 
ATOM     19  C   UNL     1     112.442 124.903 137.492  0.00  0.00    +0.000 C 
ATOM     20  C   UNL     1     113.124 126.096 137.884  0.00  0.00    +0.000 C 
ATOM     21  C   UNL     1     113.076 124.701 137.005  0.00  0.00    +0.000 C 
ATOM     22  C   UNL     1     113.734 125.196 136.957  0.00  0.00    +0.000 C 
BRANCH  22  24
ATOM     23  O   UNL     1     114.928 125.562 136.262  0.00  0.00    +0.000 OA
ATOM     24  C   UNL     1     114.367 124.994 136.469  0.00  0.00    +0.000 C 
ENDBRANCH  22  24
ENDBRANCH   5  20
BRANCH  12  28
ATOM     25  O   UNL     1     112.373 129.272 141.506  0.00  0.00    +0.000 OA
ATOM     26  O   UNL     1     114.872 131.389 141.106  0.00  0.00    +0.000 OA
ATOM     27  O   UNL     1     113.668 131.729 142.182  0.00  0.00    +0.000 OA
ATOM     28  C   UNL     1     113.600 129.631 140.868  0.00  0.00    +0.000 A 
ATOM     29  C   UNL     1     112.998 129.801 141.406  0.00  0.00    +0.000 A 
ATOM     30  C   UNL     1     114.225 130.161 140.769  0.00  0.00    +0.000 A 
ATOM     31  C   UNL     1     114.247 130.860 141.206  0.00  0.00    +0.000 A 
ATOM     32  C   UNL     1     113.020 130.501 141.844  0.00  0.00    +0.000 A 
ATOM     33  C   UNL     1     113.645 131.030 141.744  0.00  0.00    +0.000 A 
ENDBRANCH  12  28
TORSDOF 3
ENDMDL
MODEL 5
REMARK VINA RESULT:      -9.8      7.088      8.387
REMARK  Name = 74977759
REMARK  3 active torsions:
REMARK  status: ('A' for Active; 'I' for Inactive)
REMARK    1  A    between atoms: C_15  and  C_18
REMARK    2  A    between atoms: C_17  and  C_19
REMARK    3  A    between atoms: C_26  and  C_28
REMARK                            x       y       z     vdW  Elec       q    Type
REMARK                         _______ _______ _______ _____ _____    ______ ____
ROOT
ATOM      1  O   UNL     1     110.227 129.099 135.127  0.00  0.00    +0.000 OA
ATOM      2  O   UNL     1     109.182 129.011 137.785  0.00  0.00    +0.000 OA
ATOM      3  O   UNL     1     110.828 126.844 136.838  0.00  0.00    +0.000 OA
ATOM      4  O   UNL     1     111.055 128.035 134.615  0.00  0.00    +0.000 OA
ATOM      5  C   UNL     1     109.704 129.055 136.456  0.00  0.00    +0.000 A 
ATOM      6  C   UNL     1     110.151 128.713 135.852  0.00  0.00    +0.000 A 
ATOM      7  C   UNL     1     109.628 128.670 137.181  0.00  0.00    +0.000 A 
ATOM      8  C   UNL     1     110.522 127.987 135.974  0.00  0.00    +0.000 A 
ATOM      9  C   UNL     1     110.000 127.943 137.302  0.00  0.00    +0.000 A 
ATOM     10  C   UNL     1     110.446 127.602 136.699  0.00  0.00    +0.000 A 
ATOM     11  C   UNL     1     110.985 127.642 135.337  0.00  0.00    +0.000 A 
ATOM     12  C   UNL     1     111.295 126.484 136.213  0.00  0.00    +0.000 A 
ATOM     13  C   UNL     1     111.374 126.886 135.458  0.00  0.00    +0.000 A 
ENDROOT
BRANCH   5  20
ATOM     14  O   UNL     1     109.747 130.484 136.464  0.00  0.00    +0.000 OA
ATOM     15  O   UNL     1     108.133 129.105 135.953  0.00  0.00    +0.000 OA
ATOM     16  O   UNL     1     107.391 130.558 135.710  0.00  0.00    +0.000 OA
ATOM     17  O   UNL     1     108.218 131.961 135.970  0.00  0.00    +0.000 OA
ATOM     18  C   UNL     1     108.548 129.806 136.083  0.00  0.00    +0.000 C 
ATOM     19  C   UNL     1     108.176 130.533 135.962  0.00  0.00    +0.000 C 
ATOM     20  C   UNL     1     109.333 129.781 136.335  0.00  0.00    +0.000 C 
ATOM     21  C   UNL     1     108.590 131.235 136.092  0.00  0.00    +0.000 C 
ATOM     22  C   UNL     1     109.376 131.210 136.343  0.00  0.00    +0.000 C 
BRANCH  22  24
ATOM     23  O   UNL     1     110.486 131.904 136.914  0.00  0.00    +0.000 OA
ATOM     24  C   UNL     1     109.789 131.911 136.473  0.00  0.00    +0.000 C 
ENDBRANCH  22  24
ENDBRANCH   5  20
BRANCH  12  28
ATOM     25  O   UNL     1     110.552 125.089 135.740  0.00  0.00    +0.000 OA
ATOM     26  O   UNL     1     113.517 124.972 137.183  0.00  0.00    +0.000 OA
ATOM     27  O   UNL     1     112.775 123.576 136.710  0.00  0.00    +0.000 OA
ATOM     28  C   UNL     1     111.665 125.757 136.337  0.00  0.00    +0.000 A 
ATOM     29  C   UNL     1     111.294 125.060 136.101  0.00  0.00    +0.000 A 
ATOM     30  C   UNL     1     112.406 125.727 136.698  0.00  0.00    +0.000 A 
ATOM     31  C   UNL     1     112.776 125.001 136.822  0.00  0.00    +0.000 A 
ATOM     32  C   UNL     1     111.663 124.332 136.225  0.00  0.00    +0.000 A 
ATOM     33  C   UNL     1     112.405 124.303 136.586  0.00  0.00    +0.000 A 
ENDBRANCH  12  28
TORSDOF 3
ENDMDL
MODEL 6
REMARK VINA RESULT:      -9.8      8.142      9.253
REMARK  Name = 74977759
REMARK  3 active torsions:
REMARK  status: ('A' for Active; 'I' for Inactive)
REMARK    1  A    between atoms: C_15  and  C_18
REMARK    2  A    between atoms: C_17  and  C_19
REMARK    3  A    between atoms: C_26  and  C_28
REMARK                            x       y       z     vdW  Elec       q    Type
REMARK                         _______ _______ _______ _____ _____    ______ ____
ROOT
ATOM      1  O   UNL     1     113.932 128.269 141.081  0.00  0.00    +0.000 OA
ATOM      2  O   UNL     1     112.897 130.090 139.138  0.00  0.00    +0.000 OA
ATOM      3  O   UNL     1     113.280 127.325 138.424  0.00  0.00    +0.000 OA
ATOM      4  O   UNL     1     114.139 126.878 140.764  0.00  0.00    +0.000 OA
ATOM      5  C   UNL     1     113.415 129.180 140.109  0.00  0.00    +0.000 A 
ATOM      6  C   UNL     1     113.652 128.418 140.319  0.00  0.00    +0.000 A 
ATOM      7  C   UNL     1     113.135 129.329 139.348  0.00  0.00    +0.000 A 
ATOM      8  C   UNL     1     113.610 127.806 139.769  0.00  0.00    +0.000 A 
ATOM      9  C   UNL     1     113.092 128.716 138.797  0.00  0.00    +0.000 A 
ATOM     10  C   UNL     1     113.329 127.955 139.007  0.00  0.00    +0.000 A 
ATOM     11  C   UNL     1     113.860 127.017 140.000  0.00  0.00    +0.000 A 
ATOM     12  C   UNL     1     113.526 126.530 138.638  0.00  0.00    +0.000 A 
ATOM     13  C   UNL     1     113.818 126.375 139.431  0.00  0.00    +0.000 A 
ENDROOT
BRANCH   5  20
ATOM     14  O   UNL     1     112.837 129.916 141.190  0.00  0.00    +0.000 OA
ATOM     15  O   UNL     1     114.742 130.160 140.152  0.00  0.00    +0.000 OA
ATOM     16  O   UNL     1     114.827 131.386 141.254  0.00  0.00    +0.000 OA
ATOM     17  O   UNL     1     113.586 131.631 142.312  0.00  0.00    +0.000 OA
ATOM     18  C   UNL     1     114.121 130.282 140.681  0.00  0.00    +0.000 C 
ATOM     19  C   UNL     1     114.164 130.896 141.232  0.00  0.00    +0.000 C 
ATOM     20  C   UNL     1     113.457 129.793 140.660  0.00  0.00    +0.000 C 
ATOM     21  C   UNL     1     113.543 131.018 141.762  0.00  0.00    +0.000 C 
ATOM     22  C   UNL     1     112.880 130.528 141.740  0.00  0.00    +0.000 C 
BRANCH  22  24
ATOM     23  O   UNL     1     111.500 130.387 142.085  0.00  0.00    +0.000 OA
ATOM     24  C   UNL     1     112.259 130.651 142.269  0.00  0.00    +0.000 C 
ENDBRANCH  22  24
ENDBRANCH   5  20
BRANCH  12  28
ATOM     25  O   UNL     1     112.117 125.694 138.442  0.00  0.00    +0.000 OA
ATOM     26  O   UNL     1     114.759 124.923 136.622  0.00  0.00    +0.000 OA
ATOM     27  O   UNL     1     113.350 124.087 136.426  0.00  0.00    +0.000 OA
ATOM     28  C   UNL     1     113.482 125.920 138.085  0.00  0.00    +0.000 A 
ATOM     29  C   UNL     1     112.778 125.502 137.987  0.00  0.00    +0.000 A 
ATOM     30  C   UNL     1     114.142 125.727 137.630  0.00  0.00    +0.000 A 
ATOM     31  C   UNL     1     114.098 125.116 137.077  0.00  0.00    +0.000 A 
ATOM     32  C   UNL     1     112.733 124.890 137.434  0.00  0.00    +0.000 A 
ATOM     33  C   UNL     1     113.394 124.698 136.979  0.00  0.00    +0.000 A 
ENDBRANCH  12  28
TORSDOF 3
ENDMDL
MODEL 7
REMARK VINA RESULT:      -9.8      4.643      7.549
REMARK  Name = 74977759
REMARK  3 active torsions:
REMARK  status: ('A' for Active; 'I' for Inactive)
REMARK    1  A    between atoms: C_15  and  C_18
REMARK    2  A    between atoms: C_17  and  C_19
REMARK    3  A    between atoms: C_26  and  C_28
REMARK                            x       y       z     vdW  Elec       q    Type
REMARK                         _______ _______ _______ _____ _____    ______ ____
ROOT
ATOM      1  O   UNL     1     106.563 128.059 144.795  0.00  0.00    +0.000 OA
ATOM      2  O   UNL     1     105.691 125.722 143.402  0.00  0.00    +0.000 OA
ATOM      3  O   UNL     1     106.473 125.514 146.167  0.00  0.00    +0.000 OA
ATOM      4  O   UNL     1     106.963 127.998 146.179  0.00  0.00    +0.000 OA
ATOM      5  C   UNL     1     106.127 126.891 144.098  0.00  0.00    +0.000 A 
ATOM      6  C   UNL     1     106.402 127.250 144.788  0.00  0.00    +0.000 A 
ATOM      7  C   UNL     1     105.966 126.082 144.091  0.00  0.00    +0.000 A 
ATOM      8  C   UNL     1     106.518 126.801 145.470  0.00  0.00    +0.000 A 
ATOM      9  C   UNL     1     106.082 125.633 144.774  0.00  0.00    +0.000 A 
ATOM     10  C   UNL     1     106.357 125.992 145.463  0.00  0.00    +0.000 A 
ATOM     11  C   UNL     1     106.805 127.188 146.182  0.00  0.00    +0.000 A 
ATOM     12  C   UNL     1     106.760 125.883 146.888  0.00  0.00    +0.000 A 
ATOM     13  C   UNL     1     106.927 126.725 146.895  0.00  0.00    +0.000 A 
ENDROOT
BRANCH   5  20
ATOM     14  O   UNL     1     105.288 127.714 143.285  0.00  0.00    +0.000 OA
ATOM     15  O   UNL     1     107.344 127.041 142.995  0.00  0.00    +0.000 OA
ATOM     16  O   UNL     1     107.114 127.940 141.630  0.00  0.00    +0.000 OA
ATOM     17  O   UNL     1     105.667 128.687 141.369  0.00  0.00    +0.000 OA
ATOM     18  C   UNL     1     106.620 127.415 142.865  0.00  0.00    +0.000 C 
ATOM     19  C   UNL     1     106.505 127.864 142.181  0.00  0.00    +0.000 C 
ATOM     20  C   UNL     1     106.012 127.340 143.416  0.00  0.00    +0.000 C 
ATOM     21  C   UNL     1     105.782 128.238 142.051  0.00  0.00    +0.000 C 
ATOM     22  C   UNL     1     105.173 128.162 142.603  0.00  0.00    +0.000 C 
BRANCH  22  24
ATOM     23  O   UNL     1     104.078 128.943 143.086  0.00  0.00    +0.000 OA
ATOM     24  C   UNL     1     104.450 128.536 142.472  0.00  0.00    +0.000 C 
ENDBRANCH  22  24
ENDBRANCH   5  20
BRANCH  12  28
ATOM     25  O   UNL     1     108.272 125.351 147.281  0.00  0.00    +0.000 OA
ATOM     26  O   UNL     1     105.706 124.607 149.218  0.00  0.00    +0.000 OA
ATOM     27  O   UNL     1     107.218 124.076 149.612  0.00  0.00    +0.000 OA
ATOM     28  C   UNL     1     106.874 125.431 147.569  0.00  0.00    +0.000 A 
ATOM     29  C   UNL     1     107.630 125.165 147.765  0.00  0.00    +0.000 A 
ATOM     30  C   UNL     1     106.234 125.245 148.053  0.00  0.00    +0.000 A 
ATOM     31  C   UNL     1     106.348 124.793 148.734  0.00  0.00    +0.000 A 
ATOM     32  C   UNL     1     107.745 124.713 148.446  0.00  0.00    +0.000 A 
ATOM     33  C   UNL     1     107.104 124.527 148.931  0.00  0.00    +0.000 A 
ENDBRANCH  12  28
TORSDOF 3
ENDMDL
MODEL 8
REMARK VINA RESULT:      -9.7      2.990      6.841
REMARK  Name = 74977759
REMARK  3 active torsions:
REMARK  status: ('A' for Active; 'I' for Inactive)
REMARK    1  A    between atoms: C_15  and  C_18
REMARK    2  A    between atoms: C_17  and  C_19
REMARK    3  A    between atoms: C_26  and  C_28
REMARK                            x       y       z     vdW  Elec       q    Type
REMARK                         _______ _______ _______ _____ _____    ______ ____
ROOT
ATOM      1  O   UNL     1     105.212 124.337 143.365  0.00  0.00    +0.000 OA
ATOM      2  O   UNL     1     107.027 126.542 143.425  0.00  0.00    +0.000 OA
ATOM      3  O   UNL     1     105.950 125.527 145.897  0.00  0.00    +0.000 OA
ATOM      4  O   UNL     1     104.650 123.799 144.580  0.00  0.00    +0.000 OA
ATOM      5  C   UNL     1     106.120 125.440 143.395  0.00  0.00    +0.000 A 
ATOM      6  C   UNL     1     105.636 124.901 143.792  0.00  0.00    +0.000 A 
ATOM      7  C   UNL     1     106.544 126.004 143.821  0.00  0.00    +0.000 A 
ATOM      8  C   UNL     1     105.578 124.926 144.614  0.00  0.00    +0.000 A 
ATOM      9  C   UNL     1     106.486 126.029 144.644  0.00  0.00    +0.000 A 
ATOM     10  C   UNL     1     106.003 125.491 145.040  0.00  0.00    +0.000 A 
ATOM     11  C   UNL     1     105.071 124.360 145.015  0.00  0.00    +0.000 A 
ATOM     12  C   UNL     1     105.449 124.969 146.315  0.00  0.00    +0.000 A 
ATOM     13  C   UNL     1     105.007 124.381 145.871  0.00  0.00    +0.000 A 
ENDROOT
BRANCH   5  20
ATOM     14  O   UNL     1     106.691 124.879 142.211  0.00  0.00    +0.000 OA
ATOM     15  O   UNL     1     105.210 126.461 142.471  0.00  0.00    +0.000 OA
ATOM     16  O   UNL     1     105.326 126.410 140.826  0.00  0.00    +0.000 OA
ATOM     17  O   UNL     1     106.352 125.339 140.105  0.00  0.00    +0.000 OA
ATOM     18  C   UNL     1     105.723 125.925 142.111  0.00  0.00    +0.000 C 
ATOM     19  C   UNL     1     105.781 125.900 141.288  0.00  0.00    +0.000 C 
ATOM     20  C   UNL     1     106.178 125.414 142.573  0.00  0.00    +0.000 C 
ATOM     21  C   UNL     1     106.294 125.364 140.928  0.00  0.00    +0.000 C 
ATOM     22  C   UNL     1     106.749 124.853 141.389  0.00  0.00    +0.000 C 
BRANCH  22  24
ATOM     23  O   UNL     1     108.001 124.164 141.362  0.00  0.00    +0.000 OA
ATOM     24  C   UNL     1     107.262 124.318 141.028  0.00  0.00    +0.000 C 
ENDBRANCH  22  24
ENDBRANCH   5  20
BRANCH  12  28
ATOM     25  O   UNL     1     104.209 125.790 147.030  0.00  0.00    +0.000 OA
ATOM     26  O   UNL     1     106.463 124.259 148.892  0.00  0.00    +0.000 OA
ATOM     27  O   UNL     1     105.222 125.080 149.606  0.00  0.00    +0.000 OA
ATOM     28  C   UNL     1     105.393 124.997 147.138  0.00  0.00    +0.000 A 
ATOM     29  C   UNL     1     104.772 125.407 147.495  0.00  0.00    +0.000 A 
ATOM     30  C   UNL     1     105.955 124.614 147.604  0.00  0.00    +0.000 A 
ATOM     31  C   UNL     1     105.899 124.642 148.426  0.00  0.00    +0.000 A 
ATOM     32  C   UNL     1     104.715 125.435 148.318  0.00  0.00    +0.000 A 
ATOM     33  C   UNL     1     105.279 125.053 148.783  0.00  0.00    +0.000 A 
ENDBRANCH  12  28
TORSDOF 3
ENDMDL
MODEL 9
REMARK VINA RESULT:      -9.7      2.299      4.789
REMARK  Name = 74977759
REMARK  3 active torsions:
REMARK  status: ('A' for Active; 'I' for Inactive)
REMARK    1  A    between atoms: C_15  and  C_18
REMARK    2  A    between atoms: C_17  and  C_19
REMARK    3  A    between atoms: C_26  and  C_28
REMARK                            x       y       z     vdW  Elec       q    Type
REMARK                         _______ _______ _______ _____ _____    ______ ____
ROOT
ATOM      1  O   UNL     1     106.849 126.489 145.078  0.00  0.00    +0.000 OA
ATOM      2  O   UNL     1     105.228 124.226 145.721  0.00  0.00    +0.000 OA
ATOM      3  O   UNL     1     105.734 124.866 142.958  0.00  0.00    +0.000 OA
ATOM      4  O   UNL     1     107.126 126.844 143.708  0.00  0.00    +0.000 OA
ATOM      5  C   UNL     1     106.038 125.357 145.400  0.00  0.00    +0.000 A 
ATOM      6  C   UNL     1     106.395 125.844 144.837  0.00  0.00    +0.000 A 
ATOM      7  C   UNL     1     105.584 124.712 145.159  0.00  0.00    +0.000 A 
ATOM      8  C   UNL     1     106.297 125.686 144.034  0.00  0.00    +0.000 A 
ATOM      9  C   UNL     1     105.487 124.555 144.355  0.00  0.00    +0.000 A 
ATOM     10  C   UNL     1     105.843 125.041 143.793  0.00  0.00    +0.000 A 
ATOM     11  C   UNL     1     106.673 126.201 143.457  0.00  0.00    +0.000 A 
ATOM     12  C   UNL     1     106.102 125.370 142.368  0.00  0.00    +0.000 A 
ATOM     13  C   UNL     1     106.575 126.041 142.619  0.00  0.00    +0.000 A 
ENDROOT
BRANCH   5  20
ATOM     14  O   UNL     1     106.787 125.210 146.609  0.00  0.00    +0.000 OA
ATOM     15  O   UNL     1     104.932 126.285 146.199  0.00  0.00    +0.000 OA
ATOM     16  O   UNL     1     105.127 126.601 147.807  0.00  0.00    +0.000 OA
ATOM     17  O   UNL     1     106.428 125.990 148.615  0.00  0.00    +0.000 OA
ATOM     18  C   UNL     1     105.583 125.979 146.603  0.00  0.00    +0.000 C 
ATOM     19  C   UNL     1     105.680 126.137 147.407  0.00  0.00    +0.000 C 
ATOM     20  C   UNL     1     106.136 125.515 146.204  0.00  0.00    +0.000 C 
ATOM     21  C   UNL     1     106.331 125.831 147.811  0.00  0.00    +0.000 C 
ATOM     22  C   UNL     1     106.884 125.367 147.412  0.00  0.00    +0.000 C 
BRANCH  22  24
ATOM     23  O   UNL     1     108.297 125.191 147.530  0.00  0.00    +0.000 OA
ATOM     24  C   UNL     1     107.534 125.062 147.816  0.00  0.00    +0.000 C 
ENDBRANCH  22  24
ENDBRANCH   5  20
BRANCH  12  28
ATOM     25  O   UNL     1     107.114 124.311 141.607  0.00  0.00    +0.000 OA
ATOM     26  O   UNL     1     104.693 125.785 139.916  0.00  0.00    +0.000 OA
ATOM     27  O   UNL     1     105.705 124.727 139.155  0.00  0.00    +0.000 OA
ATOM     28  C   UNL     1     106.003 125.209 141.565  0.00  0.00    +0.000 A 
ATOM     29  C   UNL     1     106.509 124.680 141.184  0.00  0.00    +0.000 A 
ATOM     30  C   UNL     1     105.398 125.577 141.142  0.00  0.00    +0.000 A 
ATOM     31  C   UNL     1     105.299 125.417 140.339  0.00  0.00    +0.000 A 
ATOM     32  C   UNL     1     106.410 124.519 140.381  0.00  0.00    +0.000 A 
ATOM     33  C   UNL     1     105.805 124.888 139.958  0.00  0.00    +0.000 A 
ENDBRANCH  12  28
TORSDOF 3
ENDMDL
MODEL 10
REMARK VINA RESULT:      -9.7      3.844      5.901
REMARK  Name = 74977759
REMARK  3 active torsions:
REMARK  status: ('A' for Active; 'I' for Inactive)
REMARK    1  A    between atoms: C_15  and  C_18
REMARK    2  A    between atoms: C_17  and  C_19
REMARK    3  A    between atoms: C_26  and  C_28
REMARK                            x       y       z     vdW  Elec       q    Type
REMARK                         _______ _______ _______ _____ _____    ______ ____
ROOT
ATOM      1  O   UNL     1     104.674 127.415 141.090  0.00  0.00    +0.000 OA
ATOM      2  O   UNL     1     105.900 128.313 143.510  0.00  0.00    +0.000 OA
ATOM      3  O   UNL     1     103.884 129.944 142.253  0.00  0.00    +0.000 OA
ATOM      4  O   UNL     1     103.661 128.202 140.430  0.00  0.00    +0.000 OA
ATOM      5  C   UNL     1     105.287 127.864 142.300  0.00  0.00    +0.000 A 
ATOM      6  C   UNL     1     104.749 127.981 141.686  0.00  0.00    +0.000 A 
ATOM      7  C   UNL     1     105.362 128.430 142.896  0.00  0.00    +0.000 A 
ATOM      8  C   UNL     1     104.286 128.663 141.667  0.00  0.00    +0.000 A 
ATOM      9  C   UNL     1     104.898 129.112 142.876  0.00  0.00    +0.000 A 
ATOM     10  C   UNL     1     104.361 129.229 142.262  0.00  0.00    +0.000 A 
ATOM     11  C   UNL     1     103.729 128.773 141.021  0.00  0.00    +0.000 A 
ATOM     12  C   UNL     1     103.322 130.071 141.616  0.00  0.00    +0.000 A 
ATOM     13  C   UNL     1     103.244 129.482 140.996  0.00  0.00    +0.000 A 
ENDROOT
BRANCH   5  20
ATOM     14  O   UNL     1     105.468 126.501 142.690  0.00  0.00    +0.000 OA
ATOM     15  O   UNL     1     106.779 127.860 141.595  0.00  0.00    +0.000 OA
ATOM     16  O   UNL     1     107.706 126.495 141.633  0.00  0.00    +0.000 OA
ATOM     17  O   UNL     1     107.141 125.136 142.375  0.00  0.00    +0.000 OA
ATOM     18  C   UNL     1     106.496 127.180 141.967  0.00  0.00    +0.000 C 
ATOM     19  C   UNL     1     106.960 126.497 141.985  0.00  0.00    +0.000 C 
ATOM     20  C   UNL     1     105.750 127.182 142.319  0.00  0.00    +0.000 C 
ATOM     21  C   UNL     1     106.677 125.817 142.357  0.00  0.00    +0.000 C 
ATOM     22  C   UNL     1     105.931 125.819 142.709  0.00  0.00    +0.000 C 
BRANCH  22  24
ATOM     23  O   UNL     1     105.277 125.194 143.815  0.00  0.00    +0.000 OA
ATOM     24  C   UNL     1     105.649 125.139 143.080  0.00  0.00    +0.000 C 
ENDBRANCH  22  24
ENDBRANCH   5  20
BRANCH  12  28
ATOM     25  O   UNL     1     103.832 131.391 140.768  0.00  0.00    +0.000 OA
ATOM     26  O   UNL     1     100.965 131.485 142.399  0.00  0.00    +0.000 OA
ATOM     27  O   UNL     1     101.475 132.805 141.550  0.00  0.00    +0.000 OA
ATOM     28  C   UNL     1     102.860 130.754 141.600  0.00  0.00    +0.000 A 
ATOM     29  C   UNL     1     103.115 131.414 141.175  0.00  0.00    +0.000 A 
ATOM     30  C   UNL     1     102.144 130.778 142.007  0.00  0.00    +0.000 A 
ATOM     31  C   UNL     1     101.682 131.462 141.991  0.00  0.00    +0.000 A 
ATOM     32  C   UNL     1     102.653 132.098 141.159  0.00  0.00    +0.000 A 
ATOM     33  C   UNL     1     101.936 132.122 141.566  0.00  0.00    +0.000 A 
ENDBRANCH  12  28
TORSDOF 3
ENDMDL
