MODEL 1
REMARK VINA RESULT:     -11.0      0.000      0.000
REMARK  Name = 131833284
REMARK  6 active torsions:
REMARK  status: ('A' for Active; 'I' for Inactive)
REMARK    1  A    between atoms: S_1  and  O_11
REMARK    2  A    between atoms: O_11  and  C_33
REMARK    3  A    between atoms: C_21  and  C_26
REMARK    4  A    between atoms: C_25  and  C_33
REMARK    5  A    between atoms: C_27  and  C_29
REMARK    6  A    between atoms: C_39  and  C_41
REMARK                            x       y       z     vdW  Elec       q    Type
REMARK                         _______ _______ _______ _____ _____    ______ ____
ROOT
ATOM      1  O   UNL     1     113.078 127.383 138.475  0.00  0.00    +0.000 OA
ATOM      2  O   UNL     1     113.201 130.209 139.024  0.00  0.00    +0.000 OA
ATOM      3  O   UNL     1     113.963 128.349 141.056  0.00  0.00    +0.000 OA
ATOM      4  O   UNL     1     113.916 126.927 140.821  0.00  0.00    +0.000 OA
ATOM      5  C   UNL     1     113.582 129.280 140.040  0.00  0.00    +0.000 A 
ATOM      6  C   UNL     1     113.145 128.804 138.765  0.00  0.00    +0.000 A 
ATOM      7  C   UNL     1     113.309 129.431 139.276  0.00  0.00    +0.000 A 
ATOM      8  C   UNL     1     113.690 128.501 140.293  0.00  0.00    +0.000 A 
ATOM      9  C   UNL     1     113.253 128.027 139.017  0.00  0.00    +0.000 A 
ATOM     10  C   UNL     1     113.526 127.875 139.781  0.00  0.00    +0.000 A 
ATOM     11  C   UNL     1     113.643 127.069 140.055  0.00  0.00    +0.000 A 
ATOM     12  C   UNL     1     113.189 126.571 138.732  0.00  0.00    +0.000 A 
ATOM     13  C   UNL     1     113.473 126.413 139.528  0.00  0.00    +0.000 A 
ENDROOT
BRANCH   5  18
ATOM     14  O   UNL     1     113.165 130.176 141.071  0.00  0.00    +0.000 OA
ATOM     15  O   UNL     1     115.071 129.989 140.026  0.00  0.00    +0.000 OA
ATOM     16  O   UNL     1     115.399 131.240 141.050  0.00  0.00    +0.000 OA
ATOM     17  O   UNL     1     114.237 131.782 142.088  0.00  0.00    +0.000 OA
ATOM     18  C   UNL     1     113.746 129.905 140.552  0.00  0.00    +0.000 C 
ATOM     19  C   UNL     1     114.491 130.260 140.545  0.00  0.00    +0.000 C 
ATOM     20  C   UNL     1     114.654 130.886 141.057  0.00  0.00    +0.000 C 
ATOM     21  C   UNL     1     114.074 131.157 141.576  0.00  0.00    +0.000 C 
ATOM     22  C   UNL     1     113.329 130.802 141.583  0.00  0.00    +0.000 C 
BRANCH  22  23
ATOM     23  C   UNL     1     112.748 131.073 142.103  0.00  0.00    +0.000 C 
BRANCH  23  24
ATOM     24  O   UNL     1     111.951 130.955 141.927  0.00  0.00    +0.000 OA
BRANCH  24  25
ATOM     25  S   UNL     1     111.369 131.258 142.427  0.00  0.00    +0.000 S 
ATOM     26  O   UNL     1     110.788 131.563 142.927  0.00  0.00    +0.000 OA
ATOM     27  O   UNL     1     111.224 131.867 141.889  0.00  0.00    +0.000 OA
ATOM     28  O   UNL     1     111.514 130.650 142.965  0.00  0.00    +0.000 OA
ENDBRANCH  24  25
ENDBRANCH  23  24
ENDBRANCH  22  23
ENDBRANCH   5  18
BRANCH   6  33
ATOM     29  O   UNL     1     113.402 128.975 137.370  0.00  0.00    +0.000 OA
ATOM     30  O   UNL     1     111.538 129.070 138.501  0.00  0.00    +0.000 OA
ATOM     31  O   UNL     1     110.992 129.373 136.973  0.00  0.00    +0.000 OA
ATOM     32  O   UNL     1     112.054 129.411 135.711  0.00  0.00    +0.000 OA
ATOM     33  C   UNL     1     112.872 128.956 138.002  0.00  0.00    +0.000 C 
ATOM     34  C   UNL     1     112.068 129.089 137.869  0.00  0.00    +0.000 C 
ATOM     35  C   UNL     1     111.795 129.241 137.105  0.00  0.00    +0.000 C 
ATOM     36  C   UNL     1     112.327 129.260 136.474  0.00  0.00    +0.000 C 
ATOM     37  C   UNL     1     113.129 129.127 136.606  0.00  0.00    +0.000 C 
ENDBRANCH   6  33
BRANCH  12  41
ATOM     38  O   UNL     1     114.408 125.865 137.873  0.00  0.00    +0.000 OA
ATOM     39  O   UNL     1     111.311 124.779 137.538  0.00  0.00    +0.000 OA
ATOM     40  O   UNL     1     112.530 124.073 136.678  0.00  0.00    +0.000 OA
ATOM     41  C   UNL     1     113.024 125.947 138.219  0.00  0.00    +0.000 A 
ATOM     42  C   UNL     1     113.634 125.594 137.789  0.00  0.00    +0.000 A 
ATOM     43  C   UNL     1     112.250 125.675 138.135  0.00  0.00    +0.000 A 
ATOM     44  C   UNL     1     112.085 125.050 137.621  0.00  0.00    +0.000 A 
ATOM     45  C   UNL     1     113.469 124.970 137.276  0.00  0.00    +0.000 A 
ATOM     46  C   UNL     1     112.695 124.698 137.192  0.00  0.00    +0.000 A 
ENDBRANCH  12  41
TORSDOF 6
ENDMDL
MODEL 2
REMARK VINA RESULT:     -10.9      3.253      4.738
REMARK  Name = 131833284
REMARK  6 active torsions:
REMARK  status: ('A' for Active; 'I' for Inactive)
REMARK    1  A    between atoms: S_1  and  O_11
REMARK    2  A    between atoms: O_11  and  C_33
REMARK    3  A    between atoms: C_21  and  C_26
REMARK    4  A    between atoms: C_25  and  C_33
REMARK    5  A    between atoms: C_27  and  C_29
REMARK    6  A    between atoms: C_39  and  C_41
REMARK                            x       y       z     vdW  Elec       q    Type
REMARK                         _______ _______ _______ _____ _____    ______ ____
ROOT
ATOM      1  O   UNL     1     111.728 126.866 137.356  0.00  0.00    +0.000 OA
ATOM      2  O   UNL     1     109.366 128.371 138.032  0.00  0.00    +0.000 OA
ATOM      3  O   UNL     1     110.970 129.196 135.816  0.00  0.00    +0.000 OA
ATOM      4  O   UNL     1     112.160 128.470 135.445  0.00  0.00    +0.000 OA
ATOM      5  C   UNL     1     110.167 128.783 136.924  0.00  0.00    +0.000 A 
ATOM      6  C   UNL     1     110.540 127.633 137.686  0.00  0.00    +0.000 A 
ATOM      7  C   UNL     1     110.024 128.262 137.548  0.00  0.00    +0.000 A 
ATOM      8  C   UNL     1     110.826 128.675 136.439  0.00  0.00    +0.000 A 
ATOM      9  C   UNL     1     111.198 127.525 137.202  0.00  0.00    +0.000 A 
ATOM     10  C   UNL     1     111.341 128.046 136.578  0.00  0.00    +0.000 A 
ATOM     11  C   UNL     1     112.025 127.944 136.066  0.00  0.00    +0.000 A 
ATOM     12  C   UNL     1     112.416 126.748 136.855  0.00  0.00    +0.000 A 
ATOM     13  C   UNL     1     112.565 127.291 136.206  0.00  0.00    +0.000 A 
ENDROOT
BRANCH   5  18
ATOM     14  O   UNL     1     109.790 130.144 137.142  0.00  0.00    +0.000 OA
ATOM     15  O   UNL     1     108.863 128.580 135.935  0.00  0.00    +0.000 OA
ATOM     16  O   UNL     1     107.833 129.839 135.657  0.00  0.00    +0.000 OA
ATOM     17  O   UNL     1     108.108 131.302 136.369  0.00  0.00    +0.000 OA
ATOM     18  C   UNL     1     109.652 129.412 136.785  0.00  0.00    +0.000 C 
ATOM     19  C   UNL     1     109.000 129.311 136.290  0.00  0.00    +0.000 C 
ATOM     20  C   UNL     1     108.486 129.941 136.152  0.00  0.00    +0.000 C 
ATOM     21  C   UNL     1     108.623 130.672 136.508  0.00  0.00    +0.000 C 
ATOM     22  C   UNL     1     109.275 130.773 137.002  0.00  0.00    +0.000 C 
BRANCH  22  23
ATOM     23  C   UNL     1     109.413 131.505 137.359  0.00  0.00    +0.000 C 
BRANCH  23  24
ATOM     24  O   UNL     1     109.985 131.575 137.949  0.00  0.00    +0.000 OA
BRANCH  24  25
ATOM     25  S   UNL     1     110.115 132.304 138.312  0.00  0.00    +0.000 S 
ATOM     26  O   UNL     1     110.245 133.034 138.675  0.00  0.00    +0.000 OA
ATOM     27  O   UNL     1     110.705 132.473 137.760  0.00  0.00    +0.000 OA
ATOM     28  O   UNL     1     109.525 132.135 138.864  0.00  0.00    +0.000 OA
ENDBRANCH  24  25
ENDBRANCH  23  24
ENDBRANCH  22  23
ENDBRANCH   5  18
BRANCH   6  33
ATOM     29  O   UNL     1     109.995 126.405 138.173  0.00  0.00    +0.000 OA
ATOM     30  O   UNL     1     111.057 128.006 139.208  0.00  0.00    +0.000 OA
ATOM     31  O   UNL     1     110.770 126.965 140.455  0.00  0.00    +0.000 OA
ATOM     32  O   UNL     1     109.967 125.550 140.180  0.00  0.00    +0.000 OA
ATOM     33  C   UNL     1     110.397 127.113 138.310  0.00  0.00    +0.000 C 
ATOM     34  C   UNL     1     110.655 127.299 139.071  0.00  0.00    +0.000 C 
ATOM     35  C   UNL     1     110.512 126.778 139.695  0.00  0.00    +0.000 C 
ATOM     36  C   UNL     1     110.110 126.071 139.557  0.00  0.00    +0.000 C 
ATOM     37  C   UNL     1     109.852 125.884 138.796  0.00  0.00    +0.000 C 
ENDBRANCH   6  33
BRANCH  12  41
ATOM     38  O   UNL     1     112.231 125.333 136.028  0.00  0.00    +0.000 OA
ATOM     39  O   UNL     1     114.655 125.644 138.246  0.00  0.00    +0.000 OA
ATOM     40  O   UNL     1     114.471 124.228 137.418  0.00  0.00    +0.000 OA
ATOM     41  C   UNL     1     112.929 126.119 136.996  0.00  0.00    +0.000 A 
ATOM     42  C   UNL     1     112.837 125.411 136.582  0.00  0.00    +0.000 A 
ATOM     43  C   UNL     1     113.535 126.197 137.551  0.00  0.00    +0.000 A 
ATOM     44  C   UNL     1     114.049 125.566 137.691  0.00  0.00    +0.000 A 
ATOM     45  C   UNL     1     113.351 124.781 136.723  0.00  0.00    +0.000 A 
ATOM     46  C   UNL     1     113.957 124.858 137.277  0.00  0.00    +0.000 A 
ENDBRANCH  12  41
TORSDOF 6
ENDMDL
MODEL 3
REMARK VINA RESULT:     -10.8      3.173      4.671
REMARK  Name = 131833284
REMARK  6 active torsions:
REMARK  status: ('A' for Active; 'I' for Inactive)
REMARK    1  A    between atoms: S_1  and  O_11
REMARK    2  A    between atoms: O_11  and  C_33
REMARK    3  A    between atoms: C_21  and  C_26
REMARK    4  A    between atoms: C_25  and  C_33
REMARK    5  A    between atoms: C_27  and  C_29
REMARK    6  A    between atoms: C_39  and  C_41
REMARK                            x       y       z     vdW  Elec       q    Type
REMARK                         _______ _______ _______ _____ _____    ______ ____
ROOT
ATOM      1  O   UNL     1     111.543 127.526 136.993  0.00  0.00    +0.000 OA
ATOM      2  O   UNL     1     110.358 129.873 138.172  0.00  0.00    +0.000 OA
ATOM      3  O   UNL     1     111.378 130.003 135.505  0.00  0.00    +0.000 OA
ATOM      4  O   UNL     1     111.979 128.850 134.880  0.00  0.00    +0.000 OA
ATOM      5  C   UNL     1     110.868 129.938 136.839  0.00  0.00    +0.000 A 
ATOM      6  C   UNL     1     110.948 128.716 137.575  0.00  0.00    +0.000 A 
ATOM      7  C   UNL     1     110.724 129.509 137.529  0.00  0.00    +0.000 A 
ATOM      8  C   UNL     1     111.235 129.574 136.195  0.00  0.00    +0.000 A 
ATOM      9  C   UNL     1     111.315 128.352 136.933  0.00  0.00    +0.000 A 
ATOM     10  C   UNL     1     111.458 128.781 136.243  0.00  0.00    +0.000 A 
ATOM     11  C   UNL     1     111.840 128.413 135.566  0.00  0.00    +0.000 A 
ATOM     12  C   UNL     1     111.925 127.142 136.327  0.00  0.00    +0.000 A 
ATOM     13  C   UNL     1     112.075 127.588 135.609  0.00  0.00    +0.000 A 
ENDROOT
BRANCH   5  18
ATOM     14  O   UNL     1     109.898 130.932 136.502  0.00  0.00    +0.000 OA
ATOM     15  O   UNL     1     111.912 131.121 137.322  0.00  0.00    +0.000 OA
ATOM     16  O   UNL     1     111.464 132.706 137.227  0.00  0.00    +0.000 OA
ATOM     17  O   UNL     1     109.972 133.108 136.648  0.00  0.00    +0.000 OA
ATOM     18  C   UNL     1     110.644 130.731 136.792  0.00  0.00    +0.000 C 
ATOM     19  C   UNL     1     111.166 131.322 137.033  0.00  0.00    +0.000 C 
ATOM     20  C   UNL     1     110.942 132.115 136.985  0.00  0.00    +0.000 C 
ATOM     21  C   UNL     1     110.197 132.316 136.696  0.00  0.00    +0.000 C 
ATOM     22  C   UNL     1     109.675 131.724 136.455  0.00  0.00    +0.000 C 
BRANCH  22  23
ATOM     23  C   UNL     1     108.928 131.926 136.165  0.00  0.00    +0.000 C 
BRANCH  23  24
ATOM     24  O   UNL     1     108.377 131.334 136.001  0.00  0.00    +0.000 OA
BRANCH  24  25
ATOM     25  S   UNL     1     107.629 131.536 135.718  0.00  0.00    +0.000 S 
ATOM     26  O   UNL     1     106.881 131.738 135.435  0.00  0.00    +0.000 OA
ATOM     27  O   UNL     1     107.347 131.579 136.492  0.00  0.00    +0.000 OA
ATOM     28  O   UNL     1     107.910 131.493 134.944  0.00  0.00    +0.000 OA
ENDBRANCH  24  25
ENDBRANCH  23  24
ENDBRANCH  22  23
ENDBRANCH   5  18
BRANCH   6  33
ATOM     29  O   UNL     1     111.399 128.206 138.832  0.00  0.00    +0.000 OA
ATOM     30  O   UNL     1     109.473 128.020 137.822  0.00  0.00    +0.000 OA
ATOM     31  O   UNL     1     109.186 127.162 139.202  0.00  0.00    +0.000 OA
ATOM     32  O   UNL     1     110.375 127.000 140.335  0.00  0.00    +0.000 OA
ATOM     33  C   UNL     1     110.805 128.287 138.265  0.00  0.00    +0.000 C 
ATOM     34  C   UNL     1     110.067 127.939 138.389  0.00  0.00    +0.000 C 
ATOM     35  C   UNL     1     109.924 127.510 139.079  0.00  0.00    +0.000 C 
ATOM     36  C   UNL     1     110.518 127.429 139.645  0.00  0.00    +0.000 C 
ATOM     37  C   UNL     1     111.256 127.777 139.522  0.00  0.00    +0.000 C 
ENDBRANCH   6  33
BRANCH  12  41
ATOM     38  O   UNL     1     113.459 126.742 136.786  0.00  0.00    +0.000 OA
ATOM     39  O   UNL     1     111.283 124.369 136.066  0.00  0.00    +0.000 OA
ATOM     40  O   UNL     1     112.816 123.970 136.525  0.00  0.00    +0.000 OA
ATOM     41  C   UNL     1     112.148 126.349 136.376  0.00  0.00    +0.000 A 
ATOM     42  C   UNL     1     112.915 126.149 136.606  0.00  0.00    +0.000 A 
ATOM     43  C   UNL     1     111.604 125.755 136.197  0.00  0.00    +0.000 A 
ATOM     44  C   UNL     1     111.827 124.962 136.246  0.00  0.00    +0.000 A 
ATOM     45  C   UNL     1     113.137 125.356 136.655  0.00  0.00    +0.000 A 
ATOM     46  C   UNL     1     112.594 124.763 136.476  0.00  0.00    +0.000 A 
ENDBRANCH  12  41
TORSDOF 6
ENDMDL
MODEL 4
REMARK VINA RESULT:     -10.7      3.229      4.591
REMARK  Name = 131833284
REMARK  6 active torsions:
REMARK  status: ('A' for Active; 'I' for Inactive)
REMARK    1  A    between atoms: S_1  and  O_11
REMARK    2  A    between atoms: O_11  and  C_33
REMARK    3  A    between atoms: C_21  and  C_26
REMARK    4  A    between atoms: C_25  and  C_33
REMARK    5  A    between atoms: C_27  and  C_29
REMARK    6  A    between atoms: C_39  and  C_41
REMARK                            x       y       z     vdW  Elec       q    Type
REMARK                         _______ _______ _______ _____ _____    ______ ____
ROOT
ATOM      1  O   UNL     1     111.268 127.440 136.881  0.00  0.00    +0.000 OA
ATOM      2  O   UNL     1     111.167 130.318 136.973  0.00  0.00    +0.000 OA
ATOM      3  O   UNL     1     108.958 128.803 137.968  0.00  0.00    +0.000 OA
ATOM      4  O   UNL     1     108.970 127.361 137.940  0.00  0.00    +0.000 OA
ATOM      5  C   UNL     1     110.063 129.561 137.471  0.00  0.00    +0.000 A 
ATOM      6  C   UNL     1     111.205 128.890 136.934  0.00  0.00    +0.000 A 
ATOM      7  C   UNL     1     110.812 129.590 137.126  0.00  0.00    +0.000 A 
ATOM      8  C   UNL     1     109.707 128.832 137.624  0.00  0.00    +0.000 A 
ATOM      9  C   UNL     1     110.849 128.162 137.086  0.00  0.00    +0.000 A 
ATOM     10  C   UNL     1     110.100 128.133 137.431  0.00  0.00    +0.000 A 
ATOM     11  C   UNL     1     109.719 127.380 137.595  0.00  0.00    +0.000 A 
ATOM     12  C   UNL     1     110.903 126.678 137.038  0.00  0.00    +0.000 A 
ATOM     13  C   UNL     1     110.123 126.648 137.397  0.00  0.00    +0.000 A 
ENDROOT
BRANCH   5  18
ATOM     14  O   UNL     1     109.141 130.597 137.125  0.00  0.00    +0.000 OA
ATOM     15  O   UNL     1     110.331 130.285 138.929  0.00  0.00    +0.000 OA
ATOM     16  O   UNL     1     109.544 131.684 139.312  0.00  0.00    +0.000 OA
ATOM     17  O   UNL     1     108.488 132.357 138.238  0.00  0.00    +0.000 OA
ATOM     18  C   UNL     1     109.670 130.260 137.663  0.00  0.00    +0.000 C 
ATOM     19  C   UNL     1     109.804 130.622 138.392  0.00  0.00    +0.000 C 
ATOM     20  C   UNL     1     109.410 131.321 138.583  0.00  0.00    +0.000 C 
ATOM     21  C   UNL     1     108.882 131.658 138.047  0.00  0.00    +0.000 C 
ATOM     22  C   UNL     1     108.748 131.296 137.318  0.00  0.00    +0.000 C 
BRANCH  22  23
ATOM     23  C   UNL     1     108.220 131.633 136.780  0.00  0.00    +0.000 C 
BRANCH  23  24
ATOM     24  O   UNL     1     108.126 131.300 136.031  0.00  0.00    +0.000 OA
BRANCH  24  25
ATOM     25  S   UNL     1     107.597 131.636 135.495  0.00  0.00    +0.000 S 
ATOM     26  O   UNL     1     107.066 131.971 134.960  0.00  0.00    +0.000 OA
ATOM     27  O   UNL     1     106.982 131.197 135.829  0.00  0.00    +0.000 OA
ATOM     28  O   UNL     1     108.210 132.074 135.162  0.00  0.00    +0.000 OA
ENDBRANCH  24  25
ENDBRANCH  23  24
ENDBRANCH  22  23
ENDBRANCH   5  18
BRANCH   6  33
ATOM     29  O   UNL     1     112.627 128.841 137.058  0.00  0.00    +0.000 OA
ATOM     30  O   UNL     1     111.355 129.103 135.304  0.00  0.00    +0.000 OA
ATOM     31  O   UNL     1     112.852 129.161 134.615  0.00  0.00    +0.000 OA
ATOM     32  O   UNL     1     114.200 129.006 135.554  0.00  0.00    +0.000 OA
ATOM     33  C   UNL     1     111.953 128.919 136.589  0.00  0.00    +0.000 C 
ATOM     34  C   UNL     1     112.029 129.026 135.773  0.00  0.00    +0.000 C 
ATOM     35  C   UNL     1     112.778 129.055 135.428  0.00  0.00    +0.000 C 
ATOM     36  C   UNL     1     113.451 128.977 135.899  0.00  0.00    +0.000 C 
ATOM     37  C   UNL     1     113.376 128.870 136.713  0.00  0.00    +0.000 C 
ENDBRANCH   6  33
BRANCH  12  41
ATOM     38  O   UNL     1     110.568 125.907 135.619  0.00  0.00    +0.000 OA
ATOM     39  O   UNL     1     112.819 124.658 137.684  0.00  0.00    +0.000 OA
ATOM     40  O   UNL     1     112.483 123.886 136.264  0.00  0.00    +0.000 OA
ATOM     41  C   UNL     1     111.298 125.981 136.845  0.00  0.00    +0.000 A 
ATOM     42  C   UNL     1     111.131 125.595 136.135  0.00  0.00    +0.000 A 
ATOM     43  C   UNL     1     111.861 125.668 137.361  0.00  0.00    +0.000 A 
ATOM     44  C   UNL     1     112.256 124.970 137.167  0.00  0.00    +0.000 A 
ATOM     45  C   UNL     1     111.526 124.897 135.942  0.00  0.00    +0.000 A 
ATOM     46  C   UNL     1     112.088 124.584 136.457  0.00  0.00    +0.000 A 
ENDBRANCH  12  41
TORSDOF 6
ENDMDL
MODEL 5
REMARK VINA RESULT:     -10.6      3.208      4.472
REMARK  Name = 131833284
REMARK  6 active torsions:
REMARK  status: ('A' for Active; 'I' for Inactive)
REMARK    1  A    between atoms: S_1  and  O_11
REMARK    2  A    between atoms: O_11  and  C_33
REMARK    3  A    between atoms: C_21  and  C_26
REMARK    4  A    between atoms: C_25  and  C_33
REMARK    5  A    between atoms: C_27  and  C_29
REMARK    6  A    between atoms: C_39  and  C_41
REMARK                            x       y       z     vdW  Elec       q    Type
REMARK                         _______ _______ _______ _____ _____    ______ ____
ROOT
ATOM      1  O   UNL     1     112.701 127.695 136.576  0.00  0.00    +0.000 OA
ATOM      2  O   UNL     1     111.893 130.226 135.461  0.00  0.00    +0.000 OA
ATOM      3  O   UNL     1     109.993 128.661 136.914  0.00  0.00    +0.000 OA
ATOM      4  O   UNL     1     110.358 127.389 137.487  0.00  0.00    +0.000 OA
ATOM      5  C   UNL     1     110.943 129.444 136.187  0.00  0.00    +0.000 A 
ATOM      6  C   UNL     1     112.280 128.969 136.020  0.00  0.00    +0.000 A 
ATOM      7  C   UNL     1     111.706 129.546 135.889  0.00  0.00    +0.000 A 
ATOM      8  C   UNL     1     110.756 128.763 136.616  0.00  0.00    +0.000 A 
ATOM      9  C   UNL     1     112.093 128.289 136.447  0.00  0.00    +0.000 A 
ATOM     10  C   UNL     1     111.331 128.187 136.746  0.00  0.00    +0.000 A 
ATOM     11  C   UNL     1     111.123 127.483 137.193  0.00  0.00    +0.000 A 
ATOM     12  C   UNL     1     112.512 126.985 137.021  0.00  0.00    +0.000 A 
ATOM     13  C   UNL     1     111.718 126.878 137.332  0.00  0.00    +0.000 A 
ENDROOT
BRANCH   5  18
ATOM     14  O   UNL     1     110.291 130.651 136.585  0.00  0.00    +0.000 OA
ATOM     15  O   UNL     1     109.948 129.337 134.876  0.00  0.00    +0.000 OA
ATOM     16  O   UNL     1     108.798 130.492 134.618  0.00  0.00    +0.000 OA
ATOM     17  O   UNL     1     108.643 131.753 135.671  0.00  0.00    +0.000 OA
ATOM     18  C   UNL     1     110.368 130.021 136.058  0.00  0.00    +0.000 C 
ATOM     19  C   UNL     1     109.870 129.967 135.402  0.00  0.00    +0.000 C 
ATOM     20  C   UNL     1     109.295 130.545 135.273  0.00  0.00    +0.000 C 
ATOM     21  C   UNL     1     109.218 131.175 135.799  0.00  0.00    +0.000 C 
ATOM     22  C   UNL     1     109.716 131.228 136.455  0.00  0.00    +0.000 C 
BRANCH  22  23
ATOM     23  C   UNL     1     109.638 131.859 136.982  0.00  0.00    +0.000 C 
BRANCH  23  24
ATOM     24  O   UNL     1     110.100 131.884 137.665  0.00  0.00    +0.000 OA
BRANCH  24  25
ATOM     25  S   UNL     1     110.084 132.552 138.148  0.00  0.00    +0.000 S 
ATOM     26  O   UNL     1     110.067 133.220 138.633  0.00  0.00    +0.000 OA
ATOM     27  O   UNL     1     109.398 132.272 138.512  0.00  0.00    +0.000 OA
ATOM     28  O   UNL     1     110.769 132.832 137.785  0.00  0.00    +0.000 OA
ENDBRANCH  24  25
ENDBRANCH  23  24
ENDBRANCH  22  23
ENDBRANCH   5  18
BRANCH   6  33
ATOM     29  O   UNL     1     113.258 128.720 135.007  0.00  0.00    +0.000 OA
ATOM     30  O   UNL     1     113.377 129.877 136.853  0.00  0.00    +0.000 OA
ATOM     31  O   UNL     1     114.902 130.082 136.257  0.00  0.00    +0.000 OA
ATOM     32  O   UNL     1     115.330 129.379 134.827  0.00  0.00    +0.000 OA
ATOM     33  C   UNL     1     113.043 129.071 135.722  0.00  0.00    +0.000 C 
ATOM     34  C   UNL     1     113.592 129.526 136.139  0.00  0.00    +0.000 C 
ATOM     35  C   UNL     1     114.354 129.628 135.841  0.00  0.00    +0.000 C 
ATOM     36  C   UNL     1     114.568 129.276 135.125  0.00  0.00    +0.000 C 
ATOM     37  C   UNL     1     114.020 128.822 134.709  0.00  0.00    +0.000 C 
ENDBRANCH   6  33
BRANCH  12  41
ATOM     38  O   UNL     1     113.359 126.968 138.437  0.00  0.00    +0.000 OA
ATOM     39  O   UNL     1     113.972 124.699 136.121  0.00  0.00    +0.000 OA
ATOM     40  O   UNL     1     114.819 124.682 137.537  0.00  0.00    +0.000 OA
ATOM     41  C   UNL     1     113.088 126.409 137.150  0.00  0.00    +0.000 A 
ATOM     42  C   UNL     1     113.512 126.401 137.858  0.00  0.00    +0.000 A 
ATOM     43  C   UNL     1     113.242 125.842 136.571  0.00  0.00    +0.000 A 
ATOM     44  C   UNL     1     113.819 125.267 136.700  0.00  0.00    +0.000 A 
ATOM     45  C   UNL     1     114.089 125.825 137.986  0.00  0.00    +0.000 A 
ATOM     46  C   UNL     1     114.243 125.258 137.408  0.00  0.00    +0.000 A 
ENDBRANCH  12  41
TORSDOF 6
ENDMDL
MODEL 6
REMARK VINA RESULT:     -10.4      2.574      4.558
REMARK  Name = 131833284
REMARK  6 active torsions:
REMARK  status: ('A' for Active; 'I' for Inactive)
REMARK    1  A    between atoms: S_1  and  O_11
REMARK    2  A    between atoms: O_11  and  C_33
REMARK    3  A    between atoms: C_21  and  C_26
REMARK    4  A    between atoms: C_25  and  C_33
REMARK    5  A    between atoms: C_27  and  C_29
REMARK    6  A    between atoms: C_39  and  C_41
REMARK                            x       y       z     vdW  Elec       q    Type
REMARK                         _______ _______ _______ _____ _____    ______ ____
ROOT
ATOM      1  O   UNL     1     112.214 128.295 138.076  0.00  0.00    +0.000 OA
ATOM      2  O   UNL     1     111.184 130.956 138.476  0.00  0.00    +0.000 OA
ATOM      3  O   UNL     1     109.404 128.866 137.684  0.00  0.00    +0.000 OA
ATOM      4  O   UNL     1     109.880 127.521 137.474  0.00  0.00    +0.000 OA
ATOM      5  C   UNL     1     110.294 129.912 138.080  0.00  0.00    +0.000 A 
ATOM      6  C   UNL     1     111.682 129.632 138.274  0.00  0.00    +0.000 A 
ATOM      7  C   UNL     1     111.054 130.167 138.277  0.00  0.00    +0.000 A 
ATOM      8  C   UNL     1     110.163 129.121 137.881  0.00  0.00    +0.000 A 
ATOM      9  C   UNL     1     111.551 128.843 138.075  0.00  0.00    +0.000 A 
ATOM     10  C   UNL     1     110.792 128.588 137.878  0.00  0.00    +0.000 A 
ATOM     11  C   UNL     1     110.643 127.767 137.669  0.00  0.00    +0.000 A 
ATOM     12  C   UNL     1     112.084 127.472 137.870  0.00  0.00    +0.000 A 
ATOM     13  C   UNL     1     111.293 127.206 137.665  0.00  0.00    +0.000 A 
ENDROOT
BRANCH   5  18
ATOM     14  O   UNL     1     109.461 130.845 137.389  0.00  0.00    +0.000 OA
ATOM     15  O   UNL     1     109.445 130.183 139.469  0.00  0.00    +0.000 OA
ATOM     16  O   UNL     1     108.188 131.251 139.472  0.00  0.00    +0.000 OA
ATOM     17  O   UNL     1     107.779 132.048 138.086  0.00  0.00    +0.000 OA
ATOM     18  C   UNL     1     109.665 130.446 138.082  0.00  0.00    +0.000 C 
ATOM     19  C   UNL     1     109.241 130.581 138.777  0.00  0.00    +0.000 C 
ATOM     20  C   UNL     1     108.612 131.116 138.777  0.00  0.00    +0.000 C 
ATOM     21  C   UNL     1     108.408 131.514 138.085  0.00  0.00    +0.000 C 
ATOM     22  C   UNL     1     108.832 131.379 137.391  0.00  0.00    +0.000 C 
BRANCH  22  23
ATOM     23  C   UNL     1     108.628 131.777 136.697  0.00  0.00    +0.000 C 
BRANCH  23  24
ATOM     24  O   UNL     1     109.053 131.641 136.004  0.00  0.00    +0.000 OA
BRANCH  24  25
ATOM     25  S   UNL     1     108.841 132.031 135.308  0.00  0.00    +0.000 S 
ATOM     26  O   UNL     1     108.629 132.422 134.613  0.00  0.00    +0.000 OA
ATOM     27  O   UNL     1     109.355 132.648 135.498  0.00  0.00    +0.000 OA
ATOM     28  O   UNL     1     108.327 131.415 135.119  0.00  0.00    +0.000 OA
ENDBRANCH  24  25
ENDBRANCH  23  24
ENDBRANCH  22  23
ENDBRANCH   5  18
BRANCH   6  33
ATOM     29  O   UNL     1     112.715 129.810 139.245  0.00  0.00    +0.000 OA
ATOM     30  O   UNL     1     112.653 130.298 137.119  0.00  0.00    +0.000 OA
ATOM     31  O   UNL     1     114.172 130.809 137.512  0.00  0.00    +0.000 OA
ATOM     32  O   UNL     1     114.719 130.653 139.061  0.00  0.00    +0.000 OA
ATOM     33  C   UNL     1     112.441 129.887 138.471  0.00  0.00    +0.000 C 
ATOM     34  C   UNL     1     112.928 130.221 137.893  0.00  0.00    +0.000 C 
ATOM     35  C   UNL     1     113.687 130.476 138.090  0.00  0.00    +0.000 C 
ATOM     36  C   UNL     1     113.960 130.398 138.865  0.00  0.00    +0.000 C 
ATOM     37  C   UNL     1     113.475 130.065 139.442  0.00  0.00    +0.000 C 
ENDBRANCH   6  33
BRANCH  12  41
ATOM     38  O   UNL     1     112.436 126.607 139.230  0.00  0.00    +0.000 OA
ATOM     39  O   UNL     1     114.253 126.207 136.504  0.00  0.00    +0.000 OA
ATOM     40  O   UNL     1     114.605 125.342 137.864  0.00  0.00    +0.000 OA
ATOM     41  C   UNL     1     112.714 126.940 137.868  0.00  0.00    +0.000 A 
ATOM     42  C   UNL     1     112.890 126.507 138.548  0.00  0.00    +0.000 A 
ATOM     43  C   UNL     1     113.168 126.840 137.187  0.00  0.00    +0.000 A 
ATOM     44  C   UNL     1     113.799 126.307 137.186  0.00  0.00    +0.000 A 
ATOM     45  C   UNL     1     113.521 125.975 138.547  0.00  0.00    +0.000 A 
ATOM     46  C   UNL     1     113.975 125.874 137.866  0.00  0.00    +0.000 A 
ENDBRANCH  12  41
TORSDOF 6
ENDMDL
