MODEL 1
REMARK VINA RESULT:      -7.9      0.000      0.000
REMARK  Name = 42608081
REMARK  6 active torsions:
REMARK  status: ('A' for Active; 'I' for Inactive)
REMARK    1  A    between atoms: O_3  and  C_19
REMARK    2  A    between atoms: O_3  and  C_22
REMARK    3  A    between atoms: O_4  and  C_17
REMARK    4  A    between atoms: O_6  and  C_20
REMARK    5  A    between atoms: C_7  and  C_9
REMARK    6  A    between atoms: C_22  and  C_23
REMARK                            x       y       z     vdW  Elec       q    Type
REMARK                         _______ _______ _______ _____ _____    ______ ____
ROOT
ATOM      1  O   UNL     1     102.875 131.981 141.261  0.00  0.00    +0.000 OA
ATOM      2  O   UNL     1     100.731 132.206 142.476  0.00  0.00    +0.000 OA
ATOM      3  O   UNL     1     100.710 133.628 142.235  0.00  0.00    +0.000 OA
ATOM      4  C   UNL     1     102.515 131.315 141.590  0.00  0.00    +0.000 C 
ATOM      5  C   UNL     1     101.800 131.390 141.995  0.00  0.00    +0.000 C 
ATOM      6  C   UNL     1     101.805 132.796 141.742  0.00  0.00    +0.000 A 
ATOM      7  C   UNL     1     101.445 132.131 142.071  0.00  0.00    +0.000 C 
ATOM      8  C   UNL     1     102.519 132.721 141.337  0.00  0.00    +0.000 A 
ATOM      9  C   UNL     1     101.425 133.563 141.828  0.00  0.00    +0.000 A 
ATOM     10  C   UNL     1     102.904 133.407 140.990  0.00  0.00    +0.000 A 
ATOM     11  C   UNL     1     102.539 134.181 141.066  0.00  0.00    +0.000 A 
ATOM     12  C   UNL     1     101.795 134.259 141.488  0.00  0.00    +0.000 A 
ENDROOT
BRANCH   4  13
ATOM     13  C   UNL     1     102.870 130.574 141.513  0.00  0.00    +0.000 A 
ATOM     14  C   UNL     1     102.715 130.108 140.851  0.00  0.00    +0.000 A 
ATOM     15  C   UNL     1     103.382 130.300 142.101  0.00  0.00    +0.000 A 
ATOM     16  C   UNL     1     103.071 129.368 140.775  0.00  0.00    +0.000 A 
ATOM     17  C   UNL     1     103.737 129.560 142.024  0.00  0.00    +0.000 A 
ATOM     18  C   UNL     1     103.582 129.093 141.361  0.00  0.00    +0.000 A 
BRANCH  16  19
ATOM     19  O   UNL     1     102.916 128.901 140.112  0.00  0.00    +0.000 OA
ATOM     20  C   UNL     1     102.328 129.125 139.578  0.00  0.00    +0.000 C 
ENDBRANCH  16  19
BRANCH  18  21
ATOM     21  O   UNL     1     103.938 128.353 141.286  0.00  0.00    +0.000 OA
BRANCH  21  22
ATOM     22  C   UNL     1     104.548 128.134 141.796  0.00  0.00    +0.000 C 
BRANCH  22  23
ATOM     23  C   UNL     1     104.998 127.461 141.638  0.00  0.00    +0.000 C 
ATOM     24  C   UNL     1     105.493 127.149 142.218  0.00  0.00    +0.000 C 
ATOM     25  C   UNL     1     105.942 126.475 142.060  0.00  0.00    +0.000 C 
ATOM     26  C   UNL     1     105.539 127.510 142.958  0.00  0.00    +0.000 C 
ENDBRANCH  22  23
ENDBRANCH  21  22
ENDBRANCH  18  21
ENDBRANCH   4  13
BRANCH  11  27
ATOM     27  O   UNL     1     102.902 134.845 140.736  0.00  0.00    +0.000 OA
ATOM     28  C   UNL     1     103.313 135.373 141.219  0.00  0.00    +0.000 C 
ENDBRANCH  11  27
TORSDOF 6
ENDMDL
MODEL 2
REMARK VINA RESULT:      -7.9      5.434      7.606
REMARK  Name = 42608081
REMARK  6 active torsions:
REMARK  status: ('A' for Active; 'I' for Inactive)
REMARK    1  A    between atoms: O_3  and  C_19
REMARK    2  A    between atoms: O_3  and  C_22
REMARK    3  A    between atoms: O_4  and  C_17
REMARK    4  A    between atoms: O_6  and  C_20
REMARK    5  A    between atoms: C_7  and  C_9
REMARK    6  A    between atoms: C_22  and  C_23
REMARK                            x       y       z     vdW  Elec       q    Type
REMARK                         _______ _______ _______ _____ _____    ______ ____
ROOT
ATOM      1  O   UNL     1     105.525 125.705 141.016  0.00  0.00    +0.000 OA
ATOM      2  O   UNL     1     107.913 125.067 141.133  0.00  0.00    +0.000 OA
ATOM      3  O   UNL     1     108.173 126.104 142.100  0.00  0.00    +0.000 OA
ATOM      4  C   UNL     1     105.808 125.081 140.556  0.00  0.00    +0.000 C 
ATOM      5  C   UNL     1     106.604 124.868 140.595  0.00  0.00    +0.000 C 
ATOM      6  C   UNL     1     106.834 125.903 141.553  0.00  0.00    +0.000 A 
ATOM      7  C   UNL     1     107.117 125.280 141.094  0.00  0.00    +0.000 C 
ATOM      8  C   UNL     1     106.038 126.116 141.514  0.00  0.00    +0.000 A 
ATOM      9  C   UNL     1     107.378 126.324 142.068  0.00  0.00    +0.000 A 
ATOM     10  C   UNL     1     105.731 126.765 141.988  0.00  0.00    +0.000 A 
ATOM     11  C   UNL     1     106.260 127.197 142.508  0.00  0.00    +0.000 A 
ATOM     12  C   UNL     1     107.089 126.975 142.549  0.00  0.00    +0.000 A 
ENDROOT
BRANCH   4  13
ATOM     13  C   UNL     1     105.295 124.670 140.058  0.00  0.00    +0.000 A 
ATOM     14  C   UNL     1     104.883 124.013 140.340  0.00  0.00    +0.000 A 
ATOM     15  C   UNL     1     105.193 124.917 139.277  0.00  0.00    +0.000 A 
ATOM     16  C   UNL     1     104.370 123.603 139.841  0.00  0.00    +0.000 A 
ATOM     17  C   UNL     1     104.680 124.506 138.778  0.00  0.00    +0.000 A 
ATOM     18  C   UNL     1     104.268 123.849 139.061  0.00  0.00    +0.000 A 
BRANCH  16  19
ATOM     19  O   UNL     1     103.958 122.946 140.123  0.00  0.00    +0.000 OA
ATOM     20  C   UNL     1     103.960 122.773 140.930  0.00  0.00    +0.000 C 
ENDBRANCH  16  19
BRANCH  18  21
ATOM     21  O   UNL     1     103.755 123.439 138.561  0.00  0.00    +0.000 OA
BRANCH  21  22
ATOM     22  C   UNL     1     103.882 123.440 137.747  0.00  0.00    +0.000 C 
BRANCH  22  23
ATOM     23  C   UNL     1     103.278 123.212 137.234  0.00  0.00    +0.000 C 
ATOM     24  C   UNL     1     103.457 122.969 136.467  0.00  0.00    +0.000 C 
ATOM     25  C   UNL     1     102.852 122.740 135.953  0.00  0.00    +0.000 C 
ATOM     26  C   UNL     1     104.241 122.954 136.212  0.00  0.00    +0.000 C 
ENDBRANCH  22  23
ENDBRANCH  21  22
ENDBRANCH  18  21
ENDBRANCH   4  13
BRANCH  11  27
ATOM     27  O   UNL     1     105.973 127.820 142.966  0.00  0.00    +0.000 OA
ATOM     28  C   UNL     1     105.601 127.665 143.686  0.00  0.00    +0.000 C 
ENDBRANCH  11  27
TORSDOF 6
ENDMDL
MODEL 3
REMARK VINA RESULT:      -7.9      9.172     10.591
REMARK  Name = 42608081
REMARK  6 active torsions:
REMARK  status: ('A' for Active; 'I' for Inactive)
REMARK    1  A    between atoms: O_3  and  C_19
REMARK    2  A    between atoms: O_3  and  C_22
REMARK    3  A    between atoms: O_4  and  C_17
REMARK    4  A    between atoms: O_6  and  C_20
REMARK    5  A    between atoms: C_7  and  C_9
REMARK    6  A    between atoms: C_22  and  C_23
REMARK                            x       y       z     vdW  Elec       q    Type
REMARK                         _______ _______ _______ _____ _____    ______ ____
ROOT
ATOM      1  O   UNL     1     111.251 130.066 136.300  0.00  0.00    +0.000 OA
ATOM      2  O   UNL     1     109.531 129.500 134.613  0.00  0.00    +0.000 OA
ATOM      3  O   UNL     1     108.843 130.745 134.854  0.00  0.00    +0.000 OA
ATOM      4  C   UNL     1     111.295 129.351 135.890  0.00  0.00    +0.000 C 
ATOM      5  C   UNL     1     110.721 129.163 135.327  0.00  0.00    +0.000 C 
ATOM      6  C   UNL     1     110.060 130.403 135.585  0.00  0.00    +0.000 A 
ATOM      7  C   UNL     1     110.104 129.689 135.176  0.00  0.00    +0.000 C 
ATOM      8  C   UNL     1     110.633 130.591 136.148  0.00  0.00    +0.000 A 
ATOM      9  C   UNL     1     109.412 130.942 135.418  0.00  0.00    +0.000 A 
ATOM     10  C   UNL     1     110.598 131.333 136.582  0.00  0.00    +0.000 A 
ATOM     11  C   UNL     1     109.958 131.884 136.428  0.00  0.00    +0.000 A 
ATOM     12  C   UNL     1     109.361 131.688 135.842  0.00  0.00    +0.000 A 
ENDROOT
BRANCH   4  13
ATOM     13  C   UNL     1     111.912 128.826 136.042  0.00  0.00    +0.000 A 
ATOM     14  C   UNL     1     112.655 128.954 135.707  0.00  0.00    +0.000 A 
ATOM     15  C   UNL     1     111.786 128.172 136.530  0.00  0.00    +0.000 A 
ATOM     16  C   UNL     1     113.272 128.428 135.861  0.00  0.00    +0.000 A 
ATOM     17  C   UNL     1     112.403 127.647 136.683  0.00  0.00    +0.000 A 
ATOM     18  C   UNL     1     113.147 127.775 136.348  0.00  0.00    +0.000 A 
BRANCH  16  19
ATOM     19  O   UNL     1     114.015 128.555 135.526  0.00  0.00    +0.000 OA
ATOM     20  C   UNL     1     114.201 129.291 135.201  0.00  0.00    +0.000 C 
ENDBRANCH  16  19
BRANCH  18  21
ATOM     21  O   UNL     1     113.763 127.249 136.502  0.00  0.00    +0.000 OA
BRANCH  21  22
ATOM     22  C   UNL     1     113.601 126.454 136.652  0.00  0.00    +0.000 C 
BRANCH  22  23
ATOM     23  C   UNL     1     114.172 125.976 137.007  0.00  0.00    +0.000 C 
ATOM     24  C   UNL     1     114.135 125.157 136.922  0.00  0.00    +0.000 C 
ATOM     25  C   UNL     1     114.706 124.678 137.277  0.00  0.00    +0.000 C 
ATOM     26  C   UNL     1     113.525 124.815 136.483  0.00  0.00    +0.000 C 
ENDBRANCH  22  23
ENDBRANCH  21  22
ENDBRANCH  18  21
ENDBRANCH   4  13
BRANCH  11  27
ATOM     27  O   UNL     1     109.917 132.598 136.840  0.00  0.00    +0.000 OA
ATOM     28  C   UNL     1     110.413 133.223 136.631  0.00  0.00    +0.000 C 
ENDBRANCH  11  27
TORSDOF 6
ENDMDL
MODEL 4
REMARK VINA RESULT:      -7.8      9.098     10.439
REMARK  Name = 42608081
REMARK  6 active torsions:
REMARK  status: ('A' for Active; 'I' for Inactive)
REMARK    1  A    between atoms: O_3  and  C_19
REMARK    2  A    between atoms: O_3  and  C_22
REMARK    3  A    between atoms: O_4  and  C_17
REMARK    4  A    between atoms: O_6  and  C_20
REMARK    5  A    between atoms: C_7  and  C_9
REMARK    6  A    between atoms: C_22  and  C_23
REMARK                            x       y       z     vdW  Elec       q    Type
REMARK                         _______ _______ _______ _____ _____    ______ ____
ROOT
ATOM      1  O   UNL     1     111.340 130.276 136.529  0.00  0.00    +0.000 OA
ATOM      2  O   UNL     1     111.689 131.424 138.694  0.00  0.00    +0.000 OA
ATOM      3  O   UNL     1     110.694 132.414 138.362  0.00  0.00    +0.000 OA
ATOM      4  C   UNL     1     111.894 129.983 137.067  0.00  0.00    +0.000 C 
ATOM      5  C   UNL     1     112.010 130.366 137.789  0.00  0.00    +0.000 C 
ATOM      6  C   UNL     1     111.020 131.334 137.435  0.00  0.00    +0.000 A 
ATOM      7  C   UNL     1     111.573 131.041 137.972  0.00  0.00    +0.000 C 
ATOM      8  C   UNL     1     110.903 130.951 136.714  0.00  0.00    +0.000 A 
ATOM      9  C   UNL     1     110.571 132.038 137.638  0.00  0.00    +0.000 A 
ATOM     10  C   UNL     1     110.330 131.246 136.145  0.00  0.00    +0.000 A 
ATOM     11  C   UNL     1     109.872 131.949 136.331  0.00  0.00    +0.000 A 
ATOM     12  C   UNL     1     109.993 132.347 137.083  0.00  0.00    +0.000 A 
ENDROOT
BRANCH   4  13
ATOM     13  C   UNL     1     112.330 129.308 136.883  0.00  0.00    +0.000 A 
ATOM     14  C   UNL     1     113.016 129.371 136.429  0.00  0.00    +0.000 A 
ATOM     15  C   UNL     1     112.079 128.569 137.152  0.00  0.00    +0.000 A 
ATOM     16  C   UNL     1     113.452 128.695 136.245  0.00  0.00    +0.000 A 
ATOM     17  C   UNL     1     112.516 127.894 136.967  0.00  0.00    +0.000 A 
ATOM     18  C   UNL     1     113.202 127.957 136.514  0.00  0.00    +0.000 A 
BRANCH  16  19
ATOM     19  O   UNL     1     114.139 128.758 135.792  0.00  0.00    +0.000 OA
ATOM     20  C   UNL     1     114.261 129.423 135.318  0.00  0.00    +0.000 C 
ENDBRANCH  16  19
BRANCH  18  21
ATOM     21  O   UNL     1     113.638 127.281 136.330  0.00  0.00    +0.000 OA
BRANCH  21  22
ATOM     22  C   UNL     1     113.683 126.659 136.870  0.00  0.00    +0.000 C 
BRANCH  22  23
ATOM     23  C   UNL     1     114.040 125.947 136.652  0.00  0.00    +0.000 C 
ATOM     24  C   UNL     1     114.285 125.414 137.230  0.00  0.00    +0.000 C 
ATOM     25  C   UNL     1     114.642 124.703 137.012  0.00  0.00    +0.000 C 
ATOM     26  C   UNL     1     114.173 125.591 138.028  0.00  0.00    +0.000 C 
ENDBRANCH  22  23
ENDBRANCH  21  22
ENDBRANCH  18  21
ENDBRANCH   4  13
BRANCH  11  27
ATOM     27  O   UNL     1     109.319 132.239 135.791  0.00  0.00    +0.000 OA
ATOM     28  C   UNL     1     108.553 131.932 135.781  0.00  0.00    +0.000 C 
ENDBRANCH  11  27
TORSDOF 6
ENDMDL
MODEL 5
REMARK VINA RESULT:      -7.7     10.560     12.288
REMARK  Name = 42608081
REMARK  6 active torsions:
REMARK  status: ('A' for Active; 'I' for Inactive)
REMARK    1  A    between atoms: O_3  and  C_19
REMARK    2  A    between atoms: O_3  and  C_22
REMARK    3  A    between atoms: O_4  and  C_17
REMARK    4  A    between atoms: O_6  and  C_20
REMARK    5  A    between atoms: C_7  and  C_9
REMARK    6  A    between atoms: C_22  and  C_23
REMARK                            x       y       z     vdW  Elec       q    Type
REMARK                         _______ _______ _______ _____ _____    ______ ____
ROOT
ATOM      1  O   UNL     1     112.353 126.223 137.851  0.00  0.00    +0.000 OA
ATOM      2  O   UNL     1     114.231 124.650 137.496  0.00  0.00    +0.000 OA
ATOM      3  O   UNL     1     113.482 123.935 136.492  0.00  0.00    +0.000 OA
ATOM      4  C   UNL     1     113.049 126.305 138.287  0.00  0.00    +0.000 C 
ATOM      5  C   UNL     1     113.675 125.781 138.169  0.00  0.00    +0.000 C 
ATOM      6  C   UNL     1     112.911 125.091 137.178  0.00  0.00    +0.000 A 
ATOM      7  C   UNL     1     113.605 125.174 137.614  0.00  0.00    +0.000 C 
ATOM      8  C   UNL     1     112.285 125.616 137.296  0.00  0.00    +0.000 A 
ATOM      9  C   UNL     1     112.850 124.455 136.603  0.00  0.00    +0.000 A 
ATOM     10  C   UNL     1     111.555 125.540 136.848  0.00  0.00    +0.000 A 
ATOM     11  C   UNL     1     111.477 124.910 136.269  0.00  0.00    +0.000 A 
ATOM     12  C   UNL     1     112.129 124.364 136.146  0.00  0.00    +0.000 A 
ENDROOT
BRANCH   4  13
ATOM     13  C   UNL     1     113.118 126.912 138.841  0.00  0.00    +0.000 A 
ATOM     14  C   UNL     1     112.947 126.768 139.635  0.00  0.00    +0.000 A 
ATOM     15  C   UNL     1     113.359 127.665 138.601  0.00  0.00    +0.000 A 
ATOM     16  C   UNL     1     113.016 127.376 140.189  0.00  0.00    +0.000 A 
ATOM     17  C   UNL     1     113.428 128.272 139.155  0.00  0.00    +0.000 A 
ATOM     18  C   UNL     1     113.256 128.128 139.949  0.00  0.00    +0.000 A 
BRANCH  16  19
ATOM     19  O   UNL     1     112.844 127.232 140.983  0.00  0.00    +0.000 OA
ATOM     20  C   UNL     1     112.247 126.700 141.186  0.00  0.00    +0.000 C 
ENDBRANCH  16  19
BRANCH  18  21
ATOM     21  O   UNL     1     113.325 128.736 140.502  0.00  0.00    +0.000 OA
BRANCH  21  22
ATOM     22  C   UNL     1     113.871 129.342 140.384  0.00  0.00    +0.000 C 
BRANCH  22  23
ATOM     23  C   UNL     1     113.863 130.007 140.872  0.00  0.00    +0.000 C 
ATOM     24  C   UNL     1     114.505 130.524 140.876  0.00  0.00    +0.000 C 
ATOM     25  C   UNL     1     114.496 131.190 141.364  0.00  0.00    +0.000 C 
ATOM     26  C   UNL     1     115.156 130.377 140.392  0.00  0.00    +0.000 C 
ENDBRANCH  22  23
ENDBRANCH  21  22
ENDBRANCH  18  21
ENDBRANCH   4  13
BRANCH  11  27
ATOM     27  O   UNL     1     110.780 124.830 135.834  0.00  0.00    +0.000 OA
ATOM     28  C   UNL     1     110.490 125.469 135.401  0.00  0.00    +0.000 C 
ENDBRANCH  11  27
TORSDOF 6
ENDMDL
MODEL 6
REMARK VINA RESULT:      -7.6      9.392     12.112
REMARK  Name = 42608081
REMARK  6 active torsions:
REMARK  status: ('A' for Active; 'I' for Inactive)
REMARK    1  A    between atoms: O_3  and  C_19
REMARK    2  A    between atoms: O_3  and  C_22
REMARK    3  A    between atoms: O_4  and  C_17
REMARK    4  A    between atoms: O_6  and  C_20
REMARK    5  A    between atoms: C_7  and  C_9
REMARK    6  A    between atoms: C_22  and  C_23
REMARK                            x       y       z     vdW  Elec       q    Type
REMARK                         _______ _______ _______ _____ _____    ______ ____
ROOT
ATOM      1  O   UNL     1     112.354 126.695 136.551  0.00  0.00    +0.000 OA
ATOM      2  O   UNL     1     110.799 125.044 135.561  0.00  0.00    +0.000 OA
ATOM      3  O   UNL     1     111.610 123.951 136.038  0.00  0.00    +0.000 OA
ATOM      4  C   UNL     1     111.683 126.952 136.144  0.00  0.00    +0.000 C 
ATOM      5  C   UNL     1     111.165 126.402 135.814  0.00  0.00    +0.000 C 
ATOM      6  C   UNL     1     111.987 125.338 136.298  0.00  0.00    +0.000 A 
ATOM      7  C   UNL     1     111.317 125.595 135.891  0.00  0.00    +0.000 C 
ATOM      8  C   UNL     1     112.505 125.888 136.628  0.00  0.00    +0.000 A 
ATOM      9  C   UNL     1     112.134 124.494 136.372  0.00  0.00    +0.000 A 
ATOM     10  C   UNL     1     113.206 125.633 137.055  0.00  0.00    +0.000 A 
ATOM     11  C   UNL     1     113.369 124.794 137.138  0.00  0.00    +0.000 A 
ATOM     12  C   UNL     1     112.830 124.221 136.794  0.00  0.00    +0.000 A 
ENDROOT
BRANCH   4  13
ATOM     13  C   UNL     1     111.532 127.760 136.067  0.00  0.00    +0.000 A 
ATOM     14  C   UNL     1     111.968 128.212 135.533  0.00  0.00    +0.000 A 
ATOM     15  C   UNL     1     110.944 128.114 136.526  0.00  0.00    +0.000 A 
ATOM     16  C   UNL     1     111.816 129.020 135.457  0.00  0.00    +0.000 A 
ATOM     17  C   UNL     1     110.793 128.922 136.449  0.00  0.00    +0.000 A 
ATOM     18  C   UNL     1     111.229 129.374 135.915  0.00  0.00    +0.000 A 
BRANCH  16  19
ATOM     19  O   UNL     1     112.251 129.473 134.922  0.00  0.00    +0.000 OA
ATOM     20  C   UNL     1     112.958 129.179 134.613  0.00  0.00    +0.000 C 
ENDBRANCH  16  19
BRANCH  18  21
ATOM     21  O   UNL     1     111.077 130.182 135.839  0.00  0.00    +0.000 OA
BRANCH  21  22
ATOM     22  C   UNL     1     110.894 130.632 136.505  0.00  0.00    +0.000 C 
BRANCH  22  23
ATOM     23  C   UNL     1     110.554 131.379 136.419  0.00  0.00    +0.000 C 
ATOM     24  C   UNL     1     110.658 131.950 137.004  0.00  0.00    +0.000 C 
ATOM     25  C   UNL     1     110.318 132.697 136.918  0.00  0.00    +0.000 C 
ATOM     26  C   UNL     1     111.103 131.775 137.677  0.00  0.00    +0.000 C 
ENDBRANCH  22  23
ENDBRANCH  21  22
ENDBRANCH  18  21
ENDBRANCH   4  13
BRANCH  11  27
ATOM     27  O   UNL     1     114.041 124.540 137.546  0.00  0.00    +0.000 OA
ATOM     28  C   UNL     1     114.789 124.651 137.217  0.00  0.00    +0.000 C 
ENDBRANCH  11  27
TORSDOF 6
ENDMDL
MODEL 7
REMARK VINA RESULT:      -7.6      3.060      6.826
REMARK  Name = 42608081
REMARK  6 active torsions:
REMARK  status: ('A' for Active; 'I' for Inactive)
REMARK    1  A    between atoms: O_3  and  C_19
REMARK    2  A    between atoms: O_3  and  C_22
REMARK    3  A    between atoms: O_4  and  C_17
REMARK    4  A    between atoms: O_6  and  C_20
REMARK    5  A    between atoms: C_7  and  C_9
REMARK    6  A    between atoms: C_22  and  C_23
REMARK                            x       y       z     vdW  Elec       q    Type
REMARK                         _______ _______ _______ _____ _____    ______ ____
ROOT
ATOM      1  O   UNL     1     105.313 127.065 144.640  0.00  0.00    +0.000 OA
ATOM      2  O   UNL     1     107.510 127.996 145.296  0.00  0.00    +0.000 OA
ATOM      3  O   UNL     1     107.463 127.296 146.556  0.00  0.00    +0.000 OA
ATOM      4  C   UNL     1     105.716 127.573 144.128  0.00  0.00    +0.000 C 
ATOM      5  C   UNL     1     106.448 127.883 144.347  0.00  0.00    +0.000 C 
ATOM      6  C   UNL     1     106.376 127.178 145.588  0.00  0.00    +0.000 A 
ATOM      7  C   UNL     1     106.778 127.685 145.077  0.00  0.00    +0.000 C 
ATOM      8  C   UNL     1     105.644 126.868 145.369  0.00  0.00    +0.000 A 
ATOM      9  C   UNL     1     106.730 126.981 146.346  0.00  0.00    +0.000 A 
ATOM     10  C   UNL     1     105.215 126.338 145.894  0.00  0.00    +0.000 A 
ATOM     11  C   UNL     1     105.554 126.130 146.655  0.00  0.00    +0.000 A 
ATOM     12  C   UNL     1     106.316 126.453 146.882  0.00  0.00    +0.000 A 
ENDROOT
BRANCH   4  13
ATOM     13  C   UNL     1     105.385 127.769 143.399  0.00  0.00    +0.000 A 
ATOM     14  C   UNL     1     105.525 127.293 142.740  0.00  0.00    +0.000 A 
ATOM     15  C   UNL     1     104.914 128.444 143.328  0.00  0.00    +0.000 A 
ATOM     16  C   UNL     1     105.194 127.491 142.010  0.00  0.00    +0.000 A 
ATOM     17  C   UNL     1     104.583 128.640 142.598  0.00  0.00    +0.000 A 
ATOM     18  C   UNL     1     104.723 128.164 141.940  0.00  0.00    +0.000 A 
BRANCH  16  19
ATOM     19  O   UNL     1     105.333 127.014 141.352  0.00  0.00    +0.000 OA
ATOM     20  C   UNL     1     105.661 126.263 141.448  0.00  0.00    +0.000 C 
ENDBRANCH  16  19
BRANCH  18  21
ATOM     21  O   UNL     1     104.391 128.362 141.210  0.00  0.00    +0.000 OA
BRANCH  21  22
ATOM     22  C   UNL     1     103.718 128.836 141.178  0.00  0.00    +0.000 C 
BRANCH  22  23
ATOM     23  C   UNL     1     103.236 128.825 140.508  0.00  0.00    +0.000 C 
ATOM     24  C   UNL     1     102.676 129.419 140.392  0.00  0.00    +0.000 C 
ATOM     25  C   UNL     1     102.194 129.407 139.722  0.00  0.00    +0.000 C 
ATOM     26  C   UNL     1     102.598 130.025 140.946  0.00  0.00    +0.000 C 
ENDBRANCH  22  23
ENDBRANCH  21  22
ENDBRANCH  18  21
ENDBRANCH   4  13
BRANCH  11  27
ATOM     27  O   UNL     1     105.148 125.622 147.164  0.00  0.00    +0.000 OA
ATOM     28  C   UNL     1     105.271 124.807 147.116  0.00  0.00    +0.000 C 
ENDBRANCH  11  27
TORSDOF 6
ENDMDL
MODEL 8
REMARK VINA RESULT:      -7.5      8.339     10.025
REMARK  Name = 42608081
REMARK  6 active torsions:
REMARK  status: ('A' for Active; 'I' for Inactive)
REMARK    1  A    between atoms: O_3  and  C_19
REMARK    2  A    between atoms: O_3  and  C_22
REMARK    3  A    between atoms: O_4  and  C_17
REMARK    4  A    between atoms: O_6  and  C_20
REMARK    5  A    between atoms: C_7  and  C_9
REMARK    6  A    between atoms: C_22  and  C_23
REMARK                            x       y       z     vdW  Elec       q    Type
REMARK                         _______ _______ _______ _____ _____    ______ ____
ROOT
ATOM      1  O   UNL     1     110.690 129.428 136.207  0.00  0.00    +0.000 OA
ATOM      2  O   UNL     1     108.485 128.313 136.341  0.00  0.00    +0.000 OA
ATOM      3  O   UNL     1     107.815 129.523 135.932  0.00  0.00    +0.000 OA
ATOM      4  C   UNL     1     110.641 128.635 136.433  0.00  0.00    +0.000 C 
ATOM      5  C   UNL     1     109.906 128.264 136.478  0.00  0.00    +0.000 C 
ATOM      6  C   UNL     1     109.269 129.476 136.071  0.00  0.00    +0.000 A 
ATOM      7  C   UNL     1     109.220 128.685 136.297  0.00  0.00    +0.000 C 
ATOM      8  C   UNL     1     110.004 129.848 136.026  0.00  0.00    +0.000 A 
ATOM      9  C   UNL     1     108.546 129.904 135.885  0.00  0.00    +0.000 A 
ATOM     10  C   UNL     1     110.067 130.673 135.792  0.00  0.00    +0.000 A 
ATOM     11  C   UNL     1     109.356 131.115 135.602  0.00  0.00    +0.000 A 
ATOM     12  C   UNL     1     108.591 130.728 135.649  0.00  0.00    +0.000 A 
ENDROOT
BRANCH   4  13
ATOM     13  C   UNL     1     111.328 128.216 136.614  0.00  0.00    +0.000 A 
ATOM     14  C   UNL     1     111.702 128.329 137.340  0.00  0.00    +0.000 A 
ATOM     15  C   UNL     1     111.641 127.682 136.067  0.00  0.00    +0.000 A 
ATOM     16  C   UNL     1     112.389 127.909 137.520  0.00  0.00    +0.000 A 
ATOM     17  C   UNL     1     112.328 127.262 136.248  0.00  0.00    +0.000 A 
ATOM     18  C   UNL     1     112.702 127.376 136.974  0.00  0.00    +0.000 A 
BRANCH  16  19
ATOM     19  O   UNL     1     112.763 128.022 138.247  0.00  0.00    +0.000 OA
ATOM     20  C   UNL     1     112.537 128.649 138.734  0.00  0.00    +0.000 C 
ENDBRANCH  16  19
BRANCH  18  21
ATOM     21  O   UNL     1     113.389 126.955 137.154  0.00  0.00    +0.000 OA
BRANCH  21  22
ATOM     22  C   UNL     1     113.466 126.170 136.916  0.00  0.00    +0.000 C 
BRANCH  22  23
ATOM     23  C   UNL     1     114.180 125.771 137.032  0.00  0.00    +0.000 C 
ATOM     24  C   UNL     1     114.197 124.947 137.034  0.00  0.00    +0.000 C 
ATOM     25  C   UNL     1     114.910 124.549 137.150  0.00  0.00    +0.000 C 
ATOM     26  C   UNL     1     113.500 124.520 136.921  0.00  0.00    +0.000 C 
ENDBRANCH  22  23
ENDBRANCH  21  22
ENDBRANCH  18  21
ENDBRANCH   4  13
BRANCH  11  27
ATOM     27  O   UNL     1     109.409 131.908 135.376  0.00  0.00    +0.000 OA
ATOM     28  C   UNL     1     109.430 132.499 135.951  0.00  0.00    +0.000 C 
ENDBRANCH  11  27
TORSDOF 6
ENDMDL
MODEL 9
REMARK VINA RESULT:      -7.5      7.061      9.098
REMARK  Name = 42608081
REMARK  6 active torsions:
REMARK  status: ('A' for Active; 'I' for Inactive)
REMARK    1  A    between atoms: O_3  and  C_19
REMARK    2  A    between atoms: O_3  and  C_22
REMARK    3  A    between atoms: O_4  and  C_17
REMARK    4  A    between atoms: O_6  and  C_20
REMARK    5  A    between atoms: C_7  and  C_9
REMARK    6  A    between atoms: C_22  and  C_23
REMARK                            x       y       z     vdW  Elec       q    Type
REMARK                         _______ _______ _______ _____ _____    ______ ____
ROOT
ATOM      1  O   UNL     1     104.353 124.906 146.935  0.00  0.00    +0.000 OA
ATOM      2  O   UNL     1     104.242 123.404 144.971  0.00  0.00    +0.000 OA
ATOM      3  O   UNL     1     103.081 122.739 145.509  0.00  0.00    +0.000 OA
ATOM      4  C   UNL     1     104.910 124.977 146.329  0.00  0.00    +0.000 C 
ATOM      5  C   UNL     1     104.873 124.476 145.674  0.00  0.00    +0.000 C 
ATOM      6  C   UNL     1     103.723 123.834 146.230  0.00  0.00    +0.000 A 
ATOM      7  C   UNL     1     104.279 123.905 145.625  0.00  0.00    +0.000 C 
ATOM      8  C   UNL     1     103.761 124.335 146.885  0.00  0.00    +0.000 A 
ATOM      9  C   UNL     1     103.110 123.235 146.167  0.00  0.00    +0.000 A 
ATOM     10  C   UNL     1     103.187 124.271 147.522  0.00  0.00    +0.000 A 
ATOM     11  C   UNL     1     102.567 123.679 147.476  0.00  0.00    +0.000 A 
ATOM     12  C   UNL     1     102.528 123.157 146.794  0.00  0.00    +0.000 A 
ENDROOT
BRANCH   4  13
ATOM     13  C   UNL     1     105.503 125.548 146.379  0.00  0.00    +0.000 A 
ATOM     14  C   UNL     1     106.212 125.375 146.764  0.00  0.00    +0.000 A 
ATOM     15  C   UNL     1     105.387 126.293 146.042  0.00  0.00    +0.000 A 
ATOM     16  C   UNL     1     106.804 125.947 146.814  0.00  0.00    +0.000 A 
ATOM     17  C   UNL     1     105.980 126.864 146.092  0.00  0.00    +0.000 A 
ATOM     18  C   UNL     1     106.688 126.691 146.478  0.00  0.00    +0.000 A 
BRANCH  16  19
ATOM     19  O   UNL     1     107.512 125.775 147.199  0.00  0.00    +0.000 OA
ATOM     20  C   UNL     1     107.542 125.165 147.755  0.00  0.00    +0.000 C 
ENDBRANCH  16  19
BRANCH  18  21
ATOM     21  O   UNL     1     107.281 127.264 146.527  0.00  0.00    +0.000 OA
BRANCH  21  22
ATOM     22  C   UNL     1     107.169 128.005 146.184  0.00  0.00    +0.000 C 
BRANCH  22  23
ATOM     23  C   UNL     1     107.817 128.439 145.916  0.00  0.00    +0.000 C 
ATOM     24  C   UNL     1     107.760 129.256 145.830  0.00  0.00    +0.000 C 
ATOM     25  C   UNL     1     108.409 129.690 145.562  0.00  0.00    +0.000 C 
ATOM     26  C   UNL     1     107.054 129.642 146.013  0.00  0.00    +0.000 C 
ENDBRANCH  22  23
ENDBRANCH  21  22
ENDBRANCH  18  21
ENDBRANCH   4  13
BRANCH  11  27
ATOM     27  O   UNL     1     102.012 123.611 148.083  0.00  0.00    +0.000 OA
ATOM     28  C   UNL     1     101.218 123.784 147.938  0.00  0.00    +0.000 C 
ENDBRANCH  11  27
TORSDOF 6
ENDMDL
MODEL 10
REMARK VINA RESULT:      -7.5      9.206     10.990
REMARK  Name = 42608081
REMARK  6 active torsions:
REMARK  status: ('A' for Active; 'I' for Inactive)
REMARK    1  A    between atoms: O_3  and  C_19
REMARK    2  A    between atoms: O_3  and  C_22
REMARK    3  A    between atoms: O_4  and  C_17
REMARK    4  A    between atoms: O_6  and  C_20
REMARK    5  A    between atoms: C_7  and  C_9
REMARK    6  A    between atoms: C_22  and  C_23
REMARK                            x       y       z     vdW  Elec       q    Type
REMARK                         _______ _______ _______ _____ _____    ______ ____
ROOT
ATOM      1  O   UNL     1     112.902 129.311 140.672  0.00  0.00    +0.000 OA
ATOM      2  O   UNL     1     114.973 130.643 140.428  0.00  0.00    +0.000 OA
ATOM      3  O   UNL     1     114.597 131.485 141.537  0.00  0.00    +0.000 OA
ATOM      4  C   UNL     1     113.446 129.123 140.080  0.00  0.00    +0.000 C 
ATOM      5  C   UNL     1     114.137 129.567 139.998  0.00  0.00    +0.000 C 
ATOM      6  C   UNL     1     113.740 130.386 141.100  0.00  0.00    +0.000 A 
ATOM      7  C   UNL     1     114.283 130.199 140.509  0.00  0.00    +0.000 C 
ATOM      8  C   UNL     1     113.049 129.942 141.182  0.00  0.00    +0.000 A 
ATOM      9  C   UNL     1     113.904 131.046 141.626  0.00  0.00    +0.000 A 
ATOM     10  C   UNL     1     112.475 130.127 141.794  0.00  0.00    +0.000 A 
ATOM     11  C   UNL     1     112.623 130.784 142.328  0.00  0.00    +0.000 A 
ATOM     12  C   UNL     1     113.342 131.246 142.244  0.00  0.00    +0.000 A 
ENDROOT
BRANCH   4  13
ATOM     13  C   UNL     1     113.299 128.492 139.570  0.00  0.00    +0.000 A 
ATOM     14  C   UNL     1     112.901 128.619 138.858  0.00  0.00    +0.000 A 
ATOM     15  C   UNL     1     113.550 127.732 139.772  0.00  0.00    +0.000 A 
ATOM     16  C   UNL     1     112.754 127.987 138.349  0.00  0.00    +0.000 A 
ATOM     17  C   UNL     1     113.402 127.100 139.262  0.00  0.00    +0.000 A 
ATOM     18  C   UNL     1     113.004 127.228 138.551  0.00  0.00    +0.000 A 
BRANCH  16  19
ATOM     19  O   UNL     1     112.356 128.115 137.638  0.00  0.00    +0.000 OA
ATOM     20  C   UNL     1     111.834 128.750 137.565  0.00  0.00    +0.000 C 
ENDBRANCH  16  19
BRANCH  18  21
ATOM     21  O   UNL     1     112.858 126.595 138.041  0.00  0.00    +0.000 OA
BRANCH  21  22
ATOM     22  C   UNL     1     113.410 125.989 137.967  0.00  0.00    +0.000 C 
BRANCH  22  23
ATOM     23  C   UNL     1     113.211 125.295 137.567  0.00  0.00    +0.000 C 
ATOM     24  C   UNL     1     113.804 124.808 137.263  0.00  0.00    +0.000 C 
ATOM     25  C   UNL     1     113.604 124.114 136.864  0.00  0.00    +0.000 C 
ATOM     26  C   UNL     1     114.596 125.015 137.360  0.00  0.00    +0.000 C 
ENDBRANCH  22  23
ENDBRANCH  21  22
ENDBRANCH  18  21
ENDBRANCH   4  13
BRANCH  11  27
ATOM     27  O   UNL     1     112.077 130.968 142.919  0.00  0.00    +0.000 OA
ATOM     28  C   UNL     1     111.486 131.526 142.775  0.00  0.00    +0.000 C 
ENDBRANCH  11  27
TORSDOF 6
ENDMDL
