MODEL 1
REMARK VINA RESULT:      -8.2      0.000      0.000
REMARK  Name = 25189612
REMARK  3 active torsions:
REMARK  status: ('A' for Active; 'I' for Inactive)
REMARK    1  A    between atoms: O_2  and  C_13
REMARK    2  A    between atoms: O_3  and  C_15
REMARK    3  A    between atoms: C_6  and  C_7
REMARK                            x       y       z     vdW  Elec       q    Type
REMARK                         _______ _______ _______ _____ _____    ______ ____
ROOT
ATOM      1  O   UNL     1     103.443 123.234 145.601  0.00  0.00    +0.000 OA
ATOM      2  C   UNL     1     104.591 124.511 146.949  0.00  0.00    +0.000 A 
ATOM      3  C   UNL     1     103.985 124.927 147.323  0.00  0.00    +0.000 A 
ATOM      4  C   UNL     1     104.411 123.947 146.375  0.00  0.00    +0.000 A 
ATOM      5  C   UNL     1     103.199 124.778 147.124  0.00  0.00    +0.000 A 
ATOM      6  C   UNL     1     103.018 124.214 146.550  0.00  0.00    +0.000 A 
ATOM      7  C   UNL     1     103.623 123.798 146.175  0.00  0.00    +0.000 A 
ENDROOT
BRANCH   2  10
ATOM      8  O   UNL     1     105.671 124.418 147.881  0.00  0.00    +0.000 OA
ATOM      9  O   UNL     1     107.153 125.587 146.280  0.00  0.00    +0.000 OA
ATOM     10  C   UNL     1     105.377 124.659 147.148  0.00  0.00    +0.000 A 
ATOM     11  C   UNL     1     106.951 124.956 147.546  0.00  0.00    +0.000 A 
ATOM     12  C   UNL     1     106.457 124.566 148.080  0.00  0.00    +0.000 A 
ATOM     13  C   UNL     1     105.871 125.049 146.614  0.00  0.00    +0.000 A 
ATOM     14  C   UNL     1     106.659 125.197 146.813  0.00  0.00    +0.000 A 
ATOM     15  C   UNL     1     107.773 125.116 147.742  0.00  0.00    +0.000 A 
ATOM     16  C   UNL     1     106.750 124.310 148.846  0.00  0.00    +0.000 A 
ATOM     17  C   UNL     1     108.083 124.867 148.503  0.00  0.00    +0.000 A 
ATOM     18  C   UNL     1     107.569 124.461 149.059  0.00  0.00    +0.000 A 
ENDBRANCH   2  10
BRANCH   5  19
ATOM     19  O   UNL     1     102.592 125.194 147.499  0.00  0.00    +0.000 OA
ATOM     20  C   UNL     1     102.766 125.871 147.938  0.00  0.00    +0.000 C 
ENDBRANCH   5  19
BRANCH   6  21
ATOM     21  O   UNL     1     102.231 124.066 146.351  0.00  0.00    +0.000 OA
ATOM     22  C   UNL     1     101.895 123.331 146.517  0.00  0.00    +0.000 C 
ENDBRANCH   6  21
TORSDOF 3
ENDMDL
MODEL 2
REMARK VINA RESULT:      -8.2     11.239     12.452
REMARK  Name = 25189612
REMARK  3 active torsions:
REMARK  status: ('A' for Active; 'I' for Inactive)
REMARK    1  A    between atoms: O_2  and  C_13
REMARK    2  A    between atoms: O_3  and  C_15
REMARK    3  A    between atoms: C_6  and  C_7
REMARK                            x       y       z     vdW  Elec       q    Type
REMARK                         _______ _______ _______ _____ _____    ______ ____
ROOT
ATOM      1  O   UNL     1     109.417 126.235 134.929  0.00  0.00    +0.000 OA
ATOM      2  C   UNL     1     110.819 125.758 136.534  0.00  0.00    +0.000 A 
ATOM      3  C   UNL     1     110.437 126.101 137.181  0.00  0.00    +0.000 A 
ATOM      4  C   UNL     1     110.479 125.803 135.784  0.00  0.00    +0.000 A 
ATOM      5  C   UNL     1     109.716 126.488 137.077  0.00  0.00    +0.000 A 
ATOM      6  C   UNL     1     109.376 126.532 136.326  0.00  0.00    +0.000 A 
ATOM      7  C   UNL     1     109.757 126.190 135.680  0.00  0.00    +0.000 A 
ENDROOT
BRANCH   2  10
ATOM      8  O   UNL     1     112.244 125.800 136.629  0.00  0.00    +0.000 OA
ATOM      9  O   UNL     1     112.294 123.349 136.968  0.00  0.00    +0.000 OA
ATOM     10  C   UNL     1     111.539 125.371 136.638  0.00  0.00    +0.000 A 
ATOM     11  C   UNL     1     112.981 124.596 136.846  0.00  0.00    +0.000 A 
ATOM     12  C   UNL     1     112.964 125.413 136.733  0.00  0.00    +0.000 A 
ATOM     13  C   UNL     1     111.556 124.554 136.751  0.00  0.00    +0.000 A 
ATOM     14  C   UNL     1     112.277 124.166 136.855  0.00  0.00    +0.000 A 
ATOM     15  C   UNL     1     113.726 124.181 136.955  0.00  0.00    +0.000 A 
ATOM     16  C   UNL     1     113.691 125.872 136.721  0.00  0.00    +0.000 A 
ATOM     17  C   UNL     1     114.462 124.623 136.946  0.00  0.00    +0.000 A 
ATOM     18  C   UNL     1     114.445 125.474 136.829  0.00  0.00    +0.000 A 
ENDBRANCH   2  10
BRANCH   5  19
ATOM     19  O   UNL     1     109.334 126.831 137.723  0.00  0.00    +0.000 OA
ATOM     20  C   UNL     1     109.518 126.584 138.488  0.00  0.00    +0.000 C 
ENDBRANCH   5  19
BRANCH   6  21
ATOM     21  O   UNL     1     108.655 126.920 136.222  0.00  0.00    +0.000 OA
ATOM     22  C   UNL     1     108.626 127.632 135.808  0.00  0.00    +0.000 C 
ENDBRANCH   6  21
TORSDOF 3
ENDMDL
MODEL 3
REMARK VINA RESULT:      -7.7     12.661     13.986
REMARK  Name = 25189612
REMARK  3 active torsions:
REMARK  status: ('A' for Active; 'I' for Inactive)
REMARK    1  A    between atoms: O_2  and  C_13
REMARK    2  A    between atoms: O_3  and  C_15
REMARK    3  A    between atoms: C_6  and  C_7
REMARK                            x       y       z     vdW  Elec       q    Type
REMARK                         _______ _______ _______ _____ _____    ______ ____
ROOT
ATOM      1  O   UNL     1     114.195 128.847 135.256  0.00  0.00    +0.000 OA
ATOM      2  C   UNL     1     113.453 127.343 136.654  0.00  0.00    +0.000 A 
ATOM      3  C   UNL     1     113.150 127.824 137.253  0.00  0.00    +0.000 A 
ATOM      4  C   UNL     1     113.801 127.684 135.988  0.00  0.00    +0.000 A 
ATOM      5  C   UNL     1     113.196 128.644 137.186  0.00  0.00    +0.000 A 
ATOM      6  C   UNL     1     113.544 128.985 136.521  0.00  0.00    +0.000 A 
ATOM      7  C   UNL     1     113.847 128.506 135.922  0.00  0.00    +0.000 A 
ENDROOT
BRANCH   2  10
ATOM      8  O   UNL     1     112.710 126.130 136.518  0.00  0.00    +0.000 OA
ATOM      9  O   UNL     1     114.665 124.843 137.323  0.00  0.00    +0.000 OA
ATOM     10  C   UNL     1     113.407 126.523 136.720  0.00  0.00    +0.000 A 
ATOM     11  C   UNL     1     113.316 124.881 136.853  0.00  0.00    +0.000 A 
ATOM     12  C   UNL     1     112.665 125.309 136.584  0.00  0.00    +0.000 A 
ATOM     13  C   UNL     1     114.059 126.094 136.988  0.00  0.00    +0.000 A 
ATOM     14  C   UNL     1     114.013 125.272 137.055  0.00  0.00    +0.000 A 
ATOM     15  C   UNL     1     113.281 124.025 136.926  0.00  0.00    +0.000 A 
ATOM     16  C   UNL     1     111.933 124.912 136.370  0.00  0.00    +0.000 A 
ATOM     17  C   UNL     1     112.558 123.611 136.717  0.00  0.00    +0.000 A 
ATOM     18  C   UNL     1     111.880 124.057 136.437  0.00  0.00    +0.000 A 
ENDBRANCH   2  10
BRANCH   5  19
ATOM     19  O   UNL     1     112.893 129.125 137.785  0.00  0.00    +0.000 OA
ATOM     20  C   UNL     1     112.304 128.837 138.286  0.00  0.00    +0.000 C 
ENDBRANCH   5  19
BRANCH   6  21
ATOM     21  O   UNL     1     113.590 129.807 136.454  0.00  0.00    +0.000 OA
ATOM     22  C   UNL     1     114.326 130.180 136.462  0.00  0.00    +0.000 C 
ENDBRANCH   6  21
TORSDOF 3
ENDMDL
MODEL 4
REMARK VINA RESULT:      -7.6     11.330     12.603
REMARK  Name = 25189612
REMARK  3 active torsions:
REMARK  status: ('A' for Active; 'I' for Inactive)
REMARK    1  A    between atoms: O_2  and  C_13
REMARK    2  A    between atoms: O_3  and  C_15
REMARK    3  A    between atoms: C_6  and  C_7
REMARK                            x       y       z     vdW  Elec       q    Type
REMARK                         _______ _______ _______ _____ _____    ______ ____
ROOT
ATOM      1  O   UNL     1     113.433 127.132 141.071  0.00  0.00    +0.000 OA
ATOM      2  C   UNL     1     113.316 126.740 138.926  0.00  0.00    +0.000 A 
ATOM      3  C   UNL     1     113.221 127.506 138.633  0.00  0.00    +0.000 A 
ATOM      4  C   UNL     1     113.387 126.616 139.739  0.00  0.00    +0.000 A 
ATOM      5  C   UNL     1     113.197 128.146 139.152  0.00  0.00    +0.000 A 
ATOM      6  C   UNL     1     113.267 128.022 139.965  0.00  0.00    +0.000 A 
ATOM      7  C   UNL     1     113.362 127.257 140.258  0.00  0.00    +0.000 A 
ENDROOT
BRANCH   2  10
ATOM      8  O   UNL     1     112.638 125.760 138.138  0.00  0.00    +0.000 OA
ATOM      9  O   UNL     1     114.817 124.856 137.389  0.00  0.00    +0.000 OA
ATOM     10  C   UNL     1     113.340 126.100 138.407  0.00  0.00    +0.000 A 
ATOM     11  C   UNL     1     113.389 124.818 137.369  0.00  0.00    +0.000 A 
ATOM     12  C   UNL     1     112.662 125.120 137.619  0.00  0.00    +0.000 A 
ATOM     13  C   UNL     1     114.066 125.799 138.158  0.00  0.00    +0.000 A 
ATOM     14  C   UNL     1     114.091 125.157 137.638  0.00  0.00    +0.000 A 
ATOM     15  C   UNL     1     113.427 124.151 136.829  0.00  0.00    +0.000 A 
ATOM     16  C   UNL     1     111.924 124.774 137.345  0.00  0.00    +0.000 A 
ATOM     17  C   UNL     1     112.699 123.793 136.545  0.00  0.00    +0.000 A 
ATOM     18  C   UNL     1     111.943 124.107 136.805  0.00  0.00    +0.000 A 
ENDBRANCH   2  10
BRANCH   5  19
ATOM     19  O   UNL     1     113.102 128.912 138.859  0.00  0.00    +0.000 OA
ATOM     20  C   UNL     1     112.807 129.028 138.097  0.00  0.00    +0.000 C 
ENDBRANCH   5  19
BRANCH   6  21
ATOM     21  O   UNL     1     113.243 128.663 140.484  0.00  0.00    +0.000 OA
ATOM     22  C   UNL     1     113.929 128.902 140.875  0.00  0.00    +0.000 C 
ENDBRANCH   6  21
TORSDOF 3
ENDMDL
MODEL 5
REMARK VINA RESULT:      -7.6      2.019      2.886
REMARK  Name = 25189612
REMARK  3 active torsions:
REMARK  status: ('A' for Active; 'I' for Inactive)
REMARK    1  A    between atoms: O_2  and  C_13
REMARK    2  A    between atoms: O_3  and  C_15
REMARK    3  A    between atoms: C_6  and  C_7
REMARK                            x       y       z     vdW  Elec       q    Type
REMARK                         _______ _______ _______ _____ _____    ______ ____
ROOT
ATOM      1  O   UNL     1     105.606 124.644 144.130  0.00  0.00    +0.000 OA
ATOM      2  C   UNL     1     106.025 125.486 146.100  0.00  0.00    +0.000 A 
ATOM      3  C   UNL     1     105.960 126.293 145.940  0.00  0.00    +0.000 A 
ATOM      4  C   UNL     1     105.907 124.936 145.496  0.00  0.00    +0.000 A 
ATOM      5  C   UNL     1     105.777 126.550 145.179  0.00  0.00    +0.000 A 
ATOM      6  C   UNL     1     105.659 126.001 144.575  0.00  0.00    +0.000 A 
ATOM      7  C   UNL     1     105.724 125.194 144.733  0.00  0.00    +0.000 A 
ENDROOT
BRANCH   2  10
ATOM      8  O   UNL     1     106.995 125.194 147.108  0.00  0.00    +0.000 OA
ATOM      9  O   UNL     1     105.183 124.526 148.656  0.00  0.00    +0.000 OA
ATOM     10  C   UNL     1     106.208 125.229 146.861  0.00  0.00    +0.000 A 
ATOM     11  C   UNL     1     106.574 124.714 148.386  0.00  0.00    +0.000 A 
ATOM     12  C   UNL     1     107.178 124.937 147.870  0.00  0.00    +0.000 A 
ATOM     13  C   UNL     1     105.604 125.006 147.377  0.00  0.00    +0.000 A 
ATOM     14  C   UNL     1     105.787 124.749 148.140  0.00  0.00    +0.000 A 
ATOM     15  C   UNL     1     106.752 124.445 149.183  0.00  0.00    +0.000 A 
ATOM     16  C   UNL     1     108.001 124.906 148.115  0.00  0.00    +0.000 A 
ATOM     17  C   UNL     1     107.569 124.407 149.444  0.00  0.00    +0.000 A 
ATOM     18  C   UNL     1     108.198 124.639 148.907  0.00  0.00    +0.000 A 
ENDBRANCH   2  10
BRANCH   5  19
ATOM     19  O   UNL     1     105.712 127.357 145.020  0.00  0.00    +0.000 OA
ATOM     20  C   UNL     1     105.528 127.884 145.628  0.00  0.00    +0.000 C 
ENDBRANCH   5  19
BRANCH   6  21
ATOM     21  O   UNL     1     105.476 126.258 143.812  0.00  0.00    +0.000 OA
ATOM     22  C   UNL     1     106.020 126.154 143.201  0.00  0.00    +0.000 C 
ENDBRANCH   6  21
TORSDOF 3
ENDMDL
MODEL 6
REMARK VINA RESULT:      -7.6     12.692     13.914
REMARK  Name = 25189612
REMARK  3 active torsions:
REMARK  status: ('A' for Active; 'I' for Inactive)
REMARK    1  A    between atoms: O_2  and  C_13
REMARK    2  A    between atoms: O_3  and  C_15
REMARK    3  A    between atoms: C_6  and  C_7
REMARK                            x       y       z     vdW  Elec       q    Type
REMARK                         _______ _______ _______ _____ _____    ______ ____
ROOT
ATOM      1  O   UNL     1     111.504 124.961 135.938  0.00  0.00    +0.000 OA
ATOM      2  C   UNL     1     113.046 126.345 136.628  0.00  0.00    +0.000 A 
ATOM      3  C   UNL     1     113.598 125.819 136.942  0.00  0.00    +0.000 A 
ATOM      4  C   UNL     1     112.348 126.060 136.293  0.00  0.00    +0.000 A 
ATOM      5  C   UNL     1     113.452 125.007 136.922  0.00  0.00    +0.000 A 
ATOM      6  C   UNL     1     112.755 124.722 136.587  0.00  0.00    +0.000 A 
ATOM      7  C   UNL     1     112.202 125.247 136.273  0.00  0.00    +0.000 A 
ENDROOT
BRANCH   2  10
ATOM      8  O   UNL     1     113.635 127.512 136.050  0.00  0.00    +0.000 OA
ATOM      9  O   UNL     1     112.738 128.884 137.905  0.00  0.00    +0.000 OA
ATOM     10  C   UNL     1     113.191 127.156 136.648  0.00  0.00    +0.000 A 
ATOM     11  C   UNL     1     113.482 128.780 136.689  0.00  0.00    +0.000 A 
ATOM     12  C   UNL     1     113.781 128.323 136.071  0.00  0.00    +0.000 A 
ATOM     13  C   UNL     1     112.892 127.614 137.266  0.00  0.00    +0.000 A 
ATOM     14  C   UNL     1     113.037 128.426 137.287  0.00  0.00    +0.000 A 
ATOM     15  C   UNL     1     113.626 129.627 136.721  0.00  0.00    +0.000 A 
ATOM     16  C   UNL     1     114.245 128.681 135.442  0.00  0.00    +0.000 A 
ATOM     17  C   UNL     1     114.088 130.002 136.101  0.00  0.00    +0.000 A 
ATOM     18  C   UNL     1     114.400 129.526 135.458  0.00  0.00    +0.000 A 
ENDBRANCH   2  10
BRANCH   5  19
ATOM     19  O   UNL     1     114.004 124.481 137.236  0.00  0.00    +0.000 OA
ATOM     20  C   UNL     1     114.781 124.727 137.367  0.00  0.00    +0.000 C 
ENDBRANCH   5  19
BRANCH   6  21
ATOM     21  O   UNL     1     112.609 123.909 136.567  0.00  0.00    +0.000 OA
ATOM     22  C   UNL     1     111.993 123.590 137.013  0.00  0.00    +0.000 C 
ENDBRANCH   6  21
TORSDOF 3
ENDMDL
MODEL 7
REMARK VINA RESULT:      -7.5     13.394     14.304
REMARK  Name = 25189612
REMARK  3 active torsions:
REMARK  status: ('A' for Active; 'I' for Inactive)
REMARK    1  A    between atoms: O_2  and  C_13
REMARK    2  A    between atoms: O_3  and  C_15
REMARK    3  A    between atoms: C_6  and  C_7
REMARK                            x       y       z     vdW  Elec       q    Type
REMARK                         _______ _______ _______ _____ _____    ______ ____
ROOT
ATOM      1  O   UNL     1     112.573 129.727 137.700  0.00  0.00    +0.000 OA
ATOM      2  C   UNL     1     113.322 127.999 136.595  0.00  0.00    +0.000 A 
ATOM      3  C   UNL     1     113.801 128.369 136.035  0.00  0.00    +0.000 A 
ATOM      4  C   UNL     1     112.912 128.452 137.150  0.00  0.00    +0.000 A 
ATOM      5  C   UNL     1     113.871 129.191 136.030  0.00  0.00    +0.000 A 
ATOM      6  C   UNL     1     113.462 129.643 136.585  0.00  0.00    +0.000 A 
ATOM      7  C   UNL     1     112.982 129.274 137.145  0.00  0.00    +0.000 A 
ENDROOT
BRANCH   2  10
ATOM      8  O   UNL     1     113.854 126.714 136.921  0.00  0.00    +0.000 OA
ATOM      9  O   UNL     1     111.835 125.638 135.976  0.00  0.00    +0.000 OA
ATOM     10  C   UNL     1     113.252 127.178 136.601  0.00  0.00    +0.000 A 
ATOM     11  C   UNL     1     113.111 125.534 136.611  0.00  0.00    +0.000 A 
ATOM     12  C   UNL     1     113.784 125.892 136.926  0.00  0.00    +0.000 A 
ATOM     13  C   UNL     1     112.579 126.819 136.286  0.00  0.00    +0.000 A 
ATOM     14  C   UNL     1     112.508 125.997 136.291  0.00  0.00    +0.000 A 
ATOM     15  C   UNL     1     113.027 124.678 136.611  0.00  0.00    +0.000 A 
ATOM     16  C   UNL     1     114.419 125.420 137.263  0.00  0.00    +0.000 A 
ATOM     17  C   UNL     1     113.651 124.191 136.943  0.00  0.00    +0.000 A 
ATOM     18  C   UNL     1     114.352 124.564 137.271  0.00  0.00    +0.000 A 
ENDBRANCH   2  10
BRANCH   5  19
ATOM     19  O   UNL     1     114.351 129.561 135.469  0.00  0.00    +0.000 OA
ATOM     20  C   UNL     1     114.629 129.136 134.819  0.00  0.00    +0.000 C 
ENDBRANCH   5  19
BRANCH   6  21
ATOM     21  O   UNL     1     113.532 130.466 136.579  0.00  0.00    +0.000 OA
ATOM     22  C   UNL     1     113.889 130.853 137.214  0.00  0.00    +0.000 C 
ENDBRANCH   6  21
TORSDOF 3
ENDMDL
MODEL 8
REMARK VINA RESULT:      -7.4      0.976      4.373
REMARK  Name = 25189612
REMARK  3 active torsions:
REMARK  status: ('A' for Active; 'I' for Inactive)
REMARK    1  A    between atoms: O_2  and  C_13
REMARK    2  A    between atoms: O_3  and  C_15
REMARK    3  A    between atoms: C_6  and  C_7
REMARK                            x       y       z     vdW  Elec       q    Type
REMARK                         _______ _______ _______ _____ _____    ______ ____
ROOT
ATOM      1  O   UNL     1     106.639 124.520 148.077  0.00  0.00    +0.000 OA
ATOM      2  C   UNL     1     104.976 124.640 146.667  0.00  0.00    +0.000 A 
ATOM      3  C   UNL     1     105.352 124.968 146.011  0.00  0.00    +0.000 A 
ATOM      4  C   UNL     1     105.405 124.490 147.356  0.00  0.00    +0.000 A 
ATOM      5  C   UNL     1     106.156 125.147 146.042  0.00  0.00    +0.000 A 
ATOM      6  C   UNL     1     106.585 124.998 146.731  0.00  0.00    +0.000 A 
ATOM      7  C   UNL     1     106.210 124.670 147.388  0.00  0.00    +0.000 A 
ENDROOT
BRANCH   2  10
ATOM      8  O   UNL     1     103.911 123.800 146.215  0.00  0.00    +0.000 OA
ATOM      9  O   UNL     1     102.276 125.244 147.384  0.00  0.00    +0.000 OA
ATOM     10  C   UNL     1     104.172 124.461 146.636  0.00  0.00    +0.000 A 
ATOM     11  C   UNL     1     102.562 124.103 146.573  0.00  0.00    +0.000 A 
ATOM     12  C   UNL     1     103.107 123.621 146.184  0.00  0.00    +0.000 A 
ATOM     13  C   UNL     1     103.627 124.942 147.026  0.00  0.00    +0.000 A 
ATOM     14  C   UNL     1     102.821 124.763 146.994  0.00  0.00    +0.000 A 
ATOM     15  C   UNL     1     101.721 123.926 146.548  0.00  0.00    +0.000 A 
ATOM     16  C   UNL     1     102.849 122.931 145.742  0.00  0.00    +0.000 A 
ATOM     17  C   UNL     1     101.445 123.240 146.111  0.00  0.00    +0.000 A 
ATOM     18  C   UNL     1     102.013 122.739 145.705  0.00  0.00    +0.000 A 
ENDBRANCH   2  10
BRANCH   5  19
ATOM     19  O   UNL     1     106.532 125.476 145.385  0.00  0.00    +0.000 OA
ATOM     20  C   UNL     1     106.182 125.422 144.640  0.00  0.00    +0.000 C 
ENDBRANCH   5  19
BRANCH   6  21
ATOM     21  O   UNL     1     107.391 125.177 146.763  0.00  0.00    +0.000 OA
ATOM     22  C   UNL     1     107.665 125.746 147.293  0.00  0.00    +0.000 C 
ENDBRANCH   6  21
TORSDOF 3
ENDMDL
