MODEL 1
REMARK VINA RESULT:      -9.3      0.000      0.000
REMARK  Name = 44259351
REMARK  12 active torsions:
REMARK  status: ('A' for Active; 'I' for Inactive)
REMARK    1  A    between atoms: O_1  and  C_20
REMARK    2  A    between atoms: O_1  and  C_22
REMARK    3  A    between atoms: O_5  and  C_26
REMARK    4  A    between atoms: O_5  and  C_33
REMARK    5  A    between atoms: O_9  and  C_29
REMARK    6  A    between atoms: O_9  and  C_32
REMARK    7  A    between atoms: O_10  and  C_30
REMARK    8  A    between atoms: O_10  and  C_36
REMARK    9  A    between atoms: O_18  and  C_48
REMARK   10  A    between atoms: C_27  and  C_31
REMARK   11  A    between atoms: C_28  and  C_30
REMARK   12  A    between atoms: C_34  and  C_39
REMARK                            x       y       z     vdW  Elec       q    Type
REMARK                         _______ _______ _______ _____ _____    ______ ____
ROOT
ATOM      1  O   UNL     1     111.588 127.854 137.598  0.00  0.00    +0.000 OA
ATOM      2  O   UNL     1     109.599 128.241 138.409  0.00  0.00    +0.000 OA
ATOM      3  O   UNL     1     110.530 128.138 135.709  0.00  0.00    +0.000 OA
ATOM      4  C   UNL     1     110.065 128.189 137.059  0.00  0.00    +0.000 C 
ATOM      5  C   UNL     1     110.213 128.131 137.869  0.00  0.00    +0.000 C 
ATOM      6  C   UNL     1     110.679 128.080 136.519  0.00  0.00    +0.000 C 
ATOM      7  C   UNL     1     110.975 127.964 138.139  0.00  0.00    +0.000 C 
ATOM      8  C   UNL     1     111.440 127.912 136.789  0.00  0.00    +0.000 C 
ENDROOT
BRANCH   7  10
ATOM      9  O   UNL     1     111.576 128.482 139.326  0.00  0.00    +0.000 OA
ATOM     10  C   UNL     1     111.122 127.906 138.948  0.00  0.00    +0.000 C 
ENDBRANCH   7  10
BRANCH   4  11
ATOM     11  O   UNL     1     109.303 128.357 136.790  0.00  0.00    +0.000 OA
BRANCH  11  15
ATOM     12  O   UNL     1     109.516 129.763 136.927  0.00  0.00    +0.000 OA
ATOM     13  O   UNL     1     108.034 128.648 135.777  0.00  0.00    +0.000 OA
ATOM     14  O   UNL     1     107.612 130.200 135.407  0.00  0.00    +0.000 OA
ATOM     15  C   UNL     1     109.093 129.133 136.606  0.00  0.00    +0.000 C 
ATOM     16  C   UNL     1     108.458 129.279 136.099  0.00  0.00    +0.000 C 
ATOM     17  C   UNL     1     108.247 130.054 135.914  0.00  0.00    +0.000 C 
ATOM     18  C   UNL     1     108.671 130.685 136.236  0.00  0.00    +0.000 C 
ATOM     19  C   UNL     1     109.306 130.540 136.742  0.00  0.00    +0.000 C 
BRANCH  18  20
ATOM     20  O   UNL     1     108.460 131.461 136.051  0.00  0.00    +0.000 OA
BRANCH  20  22
ATOM     21  O   UNL     1     107.515 131.784 137.071  0.00  0.00    +0.000 OA
ATOM     22  C   UNL     1     107.721 131.752 136.274  0.00  0.00    +0.000 C 
ATOM     23  C   UNL     1     107.190 132.011 135.699  0.00  0.00    +0.000 C 
ENDBRANCH  20  22
ENDBRANCH  18  20
BRANCH  19  24
ATOM     24  C   UNL     1     109.730 131.170 137.064  0.00  0.00    +0.000 C 
BRANCH  24  25
ATOM     25  O   UNL     1     110.553 131.180 137.017  0.00  0.00    +0.000 OA
BRANCH  25  27
ATOM     26  O   UNL     1     111.098 131.643 138.254  0.00  0.00    +0.000 OA
ATOM     27  C   UNL     1     110.985 131.739 137.443  0.00  0.00    +0.000 C 
ATOM     28  C   UNL     1     111.303 132.395 137.056  0.00  0.00    +0.000 C 
ENDBRANCH  25  27
ENDBRANCH  24  25
ENDBRANCH  19  24
ENDBRANCH  11  15
ENDBRANCH   4  11
BRANCH   8  29
ATOM     29  O   UNL     1     112.054 127.803 136.247  0.00  0.00    +0.000 OA
BRANCH  29  34
ATOM     30  O   UNL     1     114.066 127.040 136.612  0.00  0.00    +0.000 OA
ATOM     31  O   UNL     1     111.732 126.218 136.576  0.00  0.00    +0.000 OA
ATOM     32  O   UNL     1     112.166 124.886 136.920  0.00  0.00    +0.000 OA
ATOM     33  O   UNL     1     115.015 124.376 137.307  0.00  0.00    +0.000 OA
ATOM     34  C   UNL     1     112.671 127.285 136.424  0.00  0.00    +0.000 A 
ATOM     35  C   UNL     1     113.449 127.558 136.436  0.00  0.00    +0.000 A 
ATOM     36  C   UNL     1     112.510 126.492 136.588  0.00  0.00    +0.000 A 
ATOM     37  C   UNL     1     113.128 125.973 136.765  0.00  0.00    +0.000 A 
ATOM     38  C   UNL     1     113.906 126.248 136.776  0.00  0.00    +0.000 A 
ATOM     39  C   UNL     1     112.948 125.151 136.934  0.00  0.00    +0.000 A 
ATOM     40  C   UNL     1     114.557 125.718 136.958  0.00  0.00    +0.000 A 
ATOM     41  C   UNL     1     113.586 124.606 137.118  0.00  0.00    +0.000 A 
ATOM     42  C   UNL     1     114.396 124.892 137.131  0.00  0.00    +0.000 A 
BRANCH  35  44
ATOM     43  O   UNL     1     114.092 130.728 135.779  0.00  0.00    +0.000 OA
ATOM     44  C   UNL     1     113.610 128.351 136.271  0.00  0.00    +0.000 A 
ATOM     45  C   UNL     1     113.745 128.881 136.889  0.00  0.00    +0.000 A 
ATOM     46  C   UNL     1     113.635 128.613 135.490  0.00  0.00    +0.000 A 
ATOM     47  C   UNL     1     113.906 129.674 136.725  0.00  0.00    +0.000 A 
ATOM     48  C   UNL     1     113.796 129.405 135.326  0.00  0.00    +0.000 A 
ATOM     49  C   UNL     1     113.931 129.936 135.943  0.00  0.00    +0.000 A 
BRANCH  47  50
ATOM     50  O   UNL     1     114.041 130.203 137.343  0.00  0.00    +0.000 OA
ATOM     51  C   UNL     1     114.327 129.929 138.066  0.00  0.00    +0.000 C 
ENDBRANCH  47  50
ENDBRANCH  35  44
ENDBRANCH  29  34
ENDBRANCH   8  29
TORSDOF 12
ENDMDL
MODEL 2
REMARK VINA RESULT:      -9.3      8.949     11.361
REMARK  Name = 44259351
REMARK  12 active torsions:
REMARK  status: ('A' for Active; 'I' for Inactive)
REMARK    1  A    between atoms: O_1  and  C_20
REMARK    2  A    between atoms: O_1  and  C_22
REMARK    3  A    between atoms: O_5  and  C_26
REMARK    4  A    between atoms: O_5  and  C_33
REMARK    5  A    between atoms: O_9  and  C_29
REMARK    6  A    between atoms: O_9  and  C_32
REMARK    7  A    between atoms: O_10  and  C_30
REMARK    8  A    between atoms: O_10  and  C_36
REMARK    9  A    between atoms: O_18  and  C_48
REMARK   10  A    between atoms: C_27  and  C_31
REMARK   11  A    between atoms: C_28  and  C_30
REMARK   12  A    between atoms: C_34  and  C_39
REMARK                            x       y       z     vdW  Elec       q    Type
REMARK                         _______ _______ _______ _____ _____    ______ ____
ROOT
ATOM      1  O   UNL     1     105.308 126.741 146.377  0.00  0.00    +0.000 OA
ATOM      2  O   UNL     1     105.070 128.644 145.335  0.00  0.00    +0.000 OA
ATOM      3  O   UNL     1     105.367 125.985 144.330  0.00  0.00    +0.000 OA
ATOM      4  C   UNL     1     105.219 127.315 144.832  0.00  0.00    +0.000 C 
ATOM      5  C   UNL     1     105.167 127.836 145.470  0.00  0.00    +0.000 C 
ATOM      6  C   UNL     1     105.315 126.507 144.968  0.00  0.00    +0.000 C 
ATOM      7  C   UNL     1     105.212 127.550 146.243  0.00  0.00    +0.000 C 
ATOM      8  C   UNL     1     105.360 126.220 145.740  0.00  0.00    +0.000 C 
ENDROOT
BRANCH   7  10
ATOM      9  O   UNL     1     104.499 128.054 147.373  0.00  0.00    +0.000 OA
ATOM     10  C   UNL     1     105.160 128.071 146.879  0.00  0.00    +0.000 C 
ENDBRANCH   7  10
BRANCH   4  11
ATOM     11  O   UNL     1     105.174 127.602 144.060  0.00  0.00    +0.000 OA
BRANCH  11  15
ATOM     12  O   UNL     1     106.543 128.008 144.017  0.00  0.00    +0.000 OA
ATOM     13  O   UNL     1     105.199 127.346 142.430  0.00  0.00    +0.000 OA
ATOM     14  O   UNL     1     106.580 127.625 141.573  0.00  0.00    +0.000 OA
ATOM     15  C   UNL     1     105.865 127.741 143.632  0.00  0.00    +0.000 C 
ATOM     16  C   UNL     1     105.878 127.613 142.817  0.00  0.00    +0.000 C 
ATOM     17  C   UNL     1     106.568 127.752 142.387  0.00  0.00    +0.000 C 
ATOM     18  C   UNL     1     107.247 128.020 142.774  0.00  0.00    +0.000 C 
ATOM     19  C   UNL     1     107.234 128.148 143.589  0.00  0.00    +0.000 C 
BRANCH  18  20
ATOM     20  O   UNL     1     107.937 128.159 142.345  0.00  0.00    +0.000 OA
BRANCH  20  22
ATOM     21  O   UNL     1     108.435 126.824 142.446  0.00  0.00    +0.000 OA
ATOM     22  C   UNL     1     108.357 127.527 142.022  0.00  0.00    +0.000 C 
ATOM     23  C   UNL     1     108.699 127.598 141.275  0.00  0.00    +0.000 C 
ENDBRANCH  20  22
ENDBRANCH  18  20
BRANCH  19  24
ATOM     24  C   UNL     1     107.912 128.415 143.974  0.00  0.00    +0.000 C 
BRANCH  24  25
ATOM     25  O   UNL     1     107.858 129.018 144.535  0.00  0.00    +0.000 OA
BRANCH  25  27
ATOM     26  O   UNL     1     108.745 128.649 145.592  0.00  0.00    +0.000 OA
ATOM     27  C   UNL     1     108.502 129.191 145.020  0.00  0.00    +0.000 C 
ATOM     28  C   UNL     1     108.904 129.907 144.932  0.00  0.00    +0.000 C 
ENDBRANCH  25  27
ENDBRANCH  24  25
ENDBRANCH  19  24
ENDBRANCH  11  15
ENDBRANCH   4  11
BRANCH   8  29
ATOM     29  O   UNL     1     105.457 125.412 145.874  0.00  0.00    +0.000 OA
BRANCH  29  34
ATOM     30  O   UNL     1     105.708 124.424 147.805  0.00  0.00    +0.000 OA
ATOM     31  O   UNL     1     107.018 125.812 146.230  0.00  0.00    +0.000 OA
ATOM     32  O   UNL     1     108.168 125.765 147.100  0.00  0.00    +0.000 OA
ATOM     33  O   UNL     1     107.988 124.285 149.611  0.00  0.00    +0.000 OA
ATOM     34  C   UNL     1     105.801 125.149 146.577  0.00  0.00    +0.000 A 
ATOM     35  C   UNL     1     105.364 124.686 147.102  0.00  0.00    +0.000 A 
ATOM     36  C   UNL     1     106.582 125.349 146.755  0.00  0.00    +0.000 A 
ATOM     37  C   UNL     1     106.925 125.086 147.457  0.00  0.00    +0.000 A 
ATOM     38  C   UNL     1     106.488 124.624 147.982  0.00  0.00    +0.000 A 
ATOM     39  C   UNL     1     107.738 125.301 147.631  0.00  0.00    +0.000 A 
ATOM     40  C   UNL     1     106.834 124.344 148.717  0.00  0.00    +0.000 A 
ATOM     41  C   UNL     1     108.102 125.031 148.361  0.00  0.00    +0.000 A 
ATOM     42  C   UNL     1     107.647 124.549 148.908  0.00  0.00    +0.000 A 
BRANCH  35  44
ATOM     43  O   UNL     1     102.242 123.887 146.392  0.00  0.00    +0.000 OA
ATOM     44  C   UNL     1     104.583 124.486 146.925  0.00  0.00    +0.000 A 
ATOM     45  C   UNL     1     103.963 124.846 147.332  0.00  0.00    +0.000 A 
ATOM     46  C   UNL     1     104.423 123.927 146.339  0.00  0.00    +0.000 A 
ATOM     47  C   UNL     1     103.182 124.646 147.154  0.00  0.00    +0.000 A 
ATOM     48  C   UNL     1     103.644 123.727 146.162  0.00  0.00    +0.000 A 
ATOM     49  C   UNL     1     103.022 124.087 146.569  0.00  0.00    +0.000 A 
BRANCH  47  50
ATOM     50  O   UNL     1     102.562 125.006 147.562  0.00  0.00    +0.000 OA
ATOM     51  C   UNL     1     102.669 125.254 148.342  0.00  0.00    +0.000 C 
ENDBRANCH  47  50
ENDBRANCH  35  44
ENDBRANCH  29  34
ENDBRANCH   8  29
TORSDOF 12
ENDMDL
MODEL 3
REMARK VINA RESULT:      -9.3      1.061      2.018
REMARK  Name = 44259351
REMARK  12 active torsions:
REMARK  status: ('A' for Active; 'I' for Inactive)
REMARK    1  A    between atoms: O_1  and  C_20
REMARK    2  A    between atoms: O_1  and  C_22
REMARK    3  A    between atoms: O_5  and  C_26
REMARK    4  A    between atoms: O_5  and  C_33
REMARK    5  A    between atoms: O_9  and  C_29
REMARK    6  A    between atoms: O_9  and  C_32
REMARK    7  A    between atoms: O_10  and  C_30
REMARK    8  A    between atoms: O_10  and  C_36
REMARK    9  A    between atoms: O_18  and  C_48
REMARK   10  A    between atoms: C_27  and  C_31
REMARK   11  A    between atoms: C_28  and  C_30
REMARK   12  A    between atoms: C_34  and  C_39
REMARK                            x       y       z     vdW  Elec       q    Type
REMARK                         _______ _______ _______ _____ _____    ______ ____
ROOT
ATOM      1  O   UNL     1     112.250 128.286 136.421  0.00  0.00    +0.000 OA
ATOM      2  O   UNL     1     111.260 129.156 134.681  0.00  0.00    +0.000 OA
ATOM      3  O   UNL     1     110.184 127.917 137.021  0.00  0.00    +0.000 OA
ATOM      4  C   UNL     1     110.722 128.537 135.851  0.00  0.00    +0.000 C 
ATOM      5  C   UNL     1     111.373 128.784 135.408  0.00  0.00    +0.000 C 
ATOM      6  C   UNL     1     110.835 128.164 136.578  0.00  0.00    +0.000 C 
ATOM      7  C   UNL     1     112.137 128.658 135.693  0.00  0.00    +0.000 C 
ATOM      8  C   UNL     1     111.599 128.039 136.863  0.00  0.00    +0.000 C 
ENDROOT
BRANCH   7  10
ATOM      9  O   UNL     1     113.275 129.508 135.535  0.00  0.00    +0.000 OA
ATOM     10  C   UNL     1     112.788 128.905 135.251  0.00  0.00    +0.000 C 
ENDBRANCH   7  10
BRANCH   4  11
ATOM     11  O   UNL     1     109.958 128.662 135.566  0.00  0.00    +0.000 OA
BRANCH  11  15
ATOM     12  O   UNL     1     109.936 129.979 136.119  0.00  0.00    +0.000 OA
ATOM     13  O   UNL     1     108.320 128.717 135.371  0.00  0.00    +0.000 OA
ATOM     14  O   UNL     1     107.480 130.062 135.828  0.00  0.00    +0.000 OA
ATOM     15  C   UNL     1     109.538 129.335 135.794  0.00  0.00    +0.000 C 
ATOM     16  C   UNL     1     108.719 129.363 135.697  0.00  0.00    +0.000 C 
ATOM     17  C   UNL     1     108.299 130.035 135.925  0.00  0.00    +0.000 C 
ATOM     18  C   UNL     1     108.698 130.680 136.250  0.00  0.00    +0.000 C 
ATOM     19  C   UNL     1     109.517 130.652 136.348  0.00  0.00    +0.000 C 
BRANCH  18  20
ATOM     20  O   UNL     1     108.277 131.352 136.478  0.00  0.00    +0.000 OA
BRANCH  20  22
ATOM     21  O   UNL     1     108.368 132.192 135.327  0.00  0.00    +0.000 OA
ATOM     22  C   UNL     1     107.914 131.824 135.908  0.00  0.00    +0.000 C 
ATOM     23  C   UNL     1     107.096 131.929 135.921  0.00  0.00    +0.000 C 
ENDBRANCH  20  22
ENDBRANCH  18  20
BRANCH  19  24
ATOM     24  C   UNL     1     109.915 131.297 136.673  0.00  0.00    +0.000 C 
BRANCH  24  25
ATOM     25  O   UNL     1     110.523 131.174 137.217  0.00  0.00    +0.000 OA
BRANCH  25  27
ATOM     26  O   UNL     1     110.722 132.157 138.235  0.00  0.00    +0.000 OA
ATOM     27  C   UNL     1     110.944 131.816 137.517  0.00  0.00    +0.000 C 
ATOM     28  C   UNL     1     111.588 132.119 137.099  0.00  0.00    +0.000 C 
ENDBRANCH  25  27
ENDBRANCH  24  25
ENDBRANCH  19  24
ENDBRANCH  11  15
ENDBRANCH   4  11
BRANCH   8  29
ATOM     29  O   UNL     1     111.711 127.666 137.591  0.00  0.00    +0.000 OA
BRANCH  29  34
ATOM     30  O   UNL     1     113.552 126.855 138.440  0.00  0.00    +0.000 OA
ATOM     31  O   UNL     1     111.972 126.376 136.596  0.00  0.00    +0.000 OA
ATOM     32  O   UNL     1     112.749 125.229 136.191  0.00  0.00    +0.000 OA
ATOM     33  O   UNL     1     115.169 124.555 137.680  0.00  0.00    +0.000 OA
ATOM     34  C   UNL     1     112.368 127.181 137.708  0.00  0.00    +0.000 A 
ATOM     35  C   UNL     1     112.895 127.340 138.323  0.00  0.00    +0.000 A 
ATOM     36  C   UNL     1     112.499 126.535 137.210  0.00  0.00    +0.000 A 
ATOM     37  C   UNL     1     113.156 126.050 137.328  0.00  0.00    +0.000 A 
ATOM     38  C   UNL     1     113.682 126.210 137.943  0.00  0.00    +0.000 A 
ATOM     39  C   UNL     1     113.281 125.382 136.803  0.00  0.00    +0.000 A 
ATOM     40  C   UNL     1     114.369 125.712 138.075  0.00  0.00    +0.000 A 
ATOM     41  C   UNL     1     113.962 124.872 136.920  0.00  0.00    +0.000 A 
ATOM     42  C   UNL     1     114.511 125.039 137.560  0.00  0.00    +0.000 A 
BRANCH  35  44
ATOM     43  O   UNL     1     112.374 129.921 140.312  0.00  0.00    +0.000 OA
ATOM     44  C   UNL     1     112.764 127.986 138.820  0.00  0.00    +0.000 A 
ATOM     45  C   UNL     1     113.202 128.678 138.720  0.00  0.00    +0.000 A 
ATOM     46  C   UNL     1     112.197 127.939 139.417  0.00  0.00    +0.000 A 
ATOM     47  C   UNL     1     113.071 129.324 139.218  0.00  0.00    +0.000 A 
ATOM     48  C   UNL     1     112.067 128.584 139.914  0.00  0.00    +0.000 A 
ATOM     49  C   UNL     1     112.504 129.277 139.815  0.00  0.00    +0.000 A 
BRANCH  47  50
ATOM     50  O   UNL     1     113.509 130.016 139.118  0.00  0.00    +0.000 OA
ATOM     51  C   UNL     1     114.263 129.983 138.786  0.00  0.00    +0.000 C 
ENDBRANCH  47  50
ENDBRANCH  35  44
ENDBRANCH  29  34
ENDBRANCH   8  29
TORSDOF 12
ENDMDL
MODEL 4
REMARK VINA RESULT:      -9.2      2.360      3.854
REMARK  Name = 44259351
REMARK  12 active torsions:
REMARK  status: ('A' for Active; 'I' for Inactive)
REMARK    1  A    between atoms: O_1  and  C_20
REMARK    2  A    between atoms: O_1  and  C_22
REMARK    3  A    between atoms: O_5  and  C_26
REMARK    4  A    between atoms: O_5  and  C_33
REMARK    5  A    between atoms: O_9  and  C_29
REMARK    6  A    between atoms: O_9  and  C_32
REMARK    7  A    between atoms: O_10  and  C_30
REMARK    8  A    between atoms: O_10  and  C_36
REMARK    9  A    between atoms: O_18  and  C_48
REMARK   10  A    between atoms: C_27  and  C_31
REMARK   11  A    between atoms: C_28  and  C_30
REMARK   12  A    between atoms: C_34  and  C_39
REMARK                            x       y       z     vdW  Elec       q    Type
REMARK                         _______ _______ _______ _____ _____    ______ ____
ROOT
ATOM      1  O   UNL     1     112.355 126.894 139.114  0.00  0.00    +0.000 OA
ATOM      2  O   UNL     1     111.718 126.283 141.110  0.00  0.00    +0.000 OA
ATOM      3  O   UNL     1     110.467 125.947 138.562  0.00  0.00    +0.000 OA
ATOM      4  C   UNL     1     111.092 126.115 139.836  0.00  0.00    +0.000 C 
ATOM      5  C   UNL     1     111.721 126.394 140.293  0.00  0.00    +0.000 C 
ATOM      6  C   UNL     1     111.096 126.226 139.019  0.00  0.00    +0.000 C 
ATOM      7  C   UNL     1     112.352 126.783 139.932  0.00  0.00    +0.000 C 
ATOM      8  C   UNL     1     111.727 126.615 138.658  0.00  0.00    +0.000 C 
ENDROOT
BRANCH   7  10
ATOM      9  O   UNL     1     113.140 127.871 140.419  0.00  0.00    +0.000 OA
ATOM     10  C   UNL     1     112.980 127.062 140.388  0.00  0.00    +0.000 C 
ENDBRANCH   7  10
BRANCH   4  11
ATOM     11  O   UNL     1     110.461 125.725 140.197  0.00  0.00    +0.000 OA
BRANCH  11  15
ATOM     12  O   UNL     1     109.798 126.975 140.395  0.00  0.00    +0.000 OA
ATOM     13  O   UNL     1     109.270 124.959 141.044  0.00  0.00    +0.000 OA
ATOM     14  O   UNL     1     108.011 125.827 141.665  0.00  0.00    +0.000 OA
ATOM     15  C   UNL     1     109.832 126.159 140.508  0.00  0.00    +0.000 C 
ATOM     16  C   UNL     1     109.236 125.777 140.931  0.00  0.00    +0.000 C 
ATOM     17  C   UNL     1     108.607 126.210 141.242  0.00  0.00    +0.000 C 
ATOM     18  C   UNL     1     108.573 127.027 141.129  0.00  0.00    +0.000 C 
ATOM     19  C   UNL     1     109.169 127.410 140.705  0.00  0.00    +0.000 C 
BRANCH  18  20
ATOM     20  O   UNL     1     107.944 127.460 141.439  0.00  0.00    +0.000 OA
BRANCH  20  22
ATOM     21  O   UNL     1     108.525 127.733 142.715  0.00  0.00    +0.000 OA
ATOM     22  C   UNL     1     107.866 127.548 142.256  0.00  0.00    +0.000 C 
ATOM     23  C   UNL     1     107.129 127.451 142.612  0.00  0.00    +0.000 C 
ENDBRANCH  20  22
ENDBRANCH  18  20
BRANCH  19  24
ATOM     24  C   UNL     1     109.135 128.226 140.592  0.00  0.00    +0.000 C 
BRANCH  24  25
ATOM     25  O   UNL     1     109.306 128.547 139.852  0.00  0.00    +0.000 OA
BRANCH  25  27
ATOM     26  O   UNL     1     108.683 129.732 139.353  0.00  0.00    +0.000 OA
ATOM     27  C   UNL     1     109.307 129.365 139.747  0.00  0.00    +0.000 C 
ATOM     28  C   UNL     1     109.934 129.817 140.038  0.00  0.00    +0.000 C 
ENDBRANCH  25  27
ENDBRANCH  24  25
ENDBRANCH  19  24
ENDBRANCH  11  15
ENDBRANCH   4  11
BRANCH   8  29
ATOM     29  O   UNL     1     111.729 126.726 137.840  0.00  0.00    +0.000 OA
BRANCH  29  34
ATOM     30  O   UNL     1     113.415 127.094 136.503  0.00  0.00    +0.000 OA
ATOM     31  O   UNL     1     112.526 125.284 137.938  0.00  0.00    +0.000 OA
ATOM     32  O   UNL     1     113.619 124.417 137.570  0.00  0.00    +0.000 OA
ATOM     33  O   UNL     1     115.649 125.400 135.715  0.00  0.00    +0.000 OA
ATOM     34  C   UNL     1     112.424 126.608 137.410  0.00  0.00    +0.000 A 
ATOM     35  C   UNL     1     112.720 127.211 136.932  0.00  0.00    +0.000 A 
ATOM     36  C   UNL     1     112.823 125.887 137.459  0.00  0.00    +0.000 A 
ATOM     37  C   UNL     1     113.517 125.769 137.030  0.00  0.00    +0.000 A 
ATOM     38  C   UNL     1     113.813 126.373 136.551  0.00  0.00    +0.000 A 
ATOM     39  C   UNL     1     113.922 125.015 137.089  0.00  0.00    +0.000 A 
ATOM     40  C   UNL     1     114.535 126.263 136.099  0.00  0.00    +0.000 A 
ATOM     41  C   UNL     1     114.646 124.886 136.644  0.00  0.00    +0.000 A 
ATOM     42  C   UNL     1     114.955 125.514 136.146  0.00  0.00    +0.000 A 
BRANCH  35  44
ATOM     43  O   UNL     1     111.127 130.095 136.738  0.00  0.00    +0.000 OA
ATOM     44  C   UNL     1     112.322 127.933 136.883  0.00  0.00    +0.000 A 
ATOM     45  C   UNL     1     112.627 128.598 137.263  0.00  0.00    +0.000 A 
ATOM     46  C   UNL     1     111.619 127.987 136.455  0.00  0.00    +0.000 A 
ATOM     47  C   UNL     1     112.228 129.320 137.214  0.00  0.00    +0.000 A 
ATOM     48  C   UNL     1     111.221 128.708 136.406  0.00  0.00    +0.000 A 
ATOM     49  C   UNL     1     111.525 129.374 136.786  0.00  0.00    +0.000 A 
BRANCH  47  50
ATOM     50  O   UNL     1     112.533 129.985 137.594  0.00  0.00    +0.000 OA
ATOM     51  C   UNL     1     113.349 130.079 137.672  0.00  0.00    +0.000 C 
ENDBRANCH  47  50
ENDBRANCH  35  44
ENDBRANCH  29  34
ENDBRANCH   8  29
TORSDOF 12
ENDMDL
MODEL 5
REMARK VINA RESULT:      -9.2      2.756      4.277
REMARK  Name = 44259351
REMARK  12 active torsions:
REMARK  status: ('A' for Active; 'I' for Inactive)
REMARK    1  A    between atoms: O_1  and  C_20
REMARK    2  A    between atoms: O_1  and  C_22
REMARK    3  A    between atoms: O_5  and  C_26
REMARK    4  A    between atoms: O_5  and  C_33
REMARK    5  A    between atoms: O_9  and  C_29
REMARK    6  A    between atoms: O_9  and  C_32
REMARK    7  A    between atoms: O_10  and  C_30
REMARK    8  A    between atoms: O_10  and  C_36
REMARK    9  A    between atoms: O_18  and  C_48
REMARK   10  A    between atoms: C_27  and  C_31
REMARK   11  A    between atoms: C_28  and  C_30
REMARK   12  A    between atoms: C_34  and  C_39
REMARK                            x       y       z     vdW  Elec       q    Type
REMARK                         _______ _______ _______ _____ _____    ______ ____
ROOT
ATOM      1  O   UNL     1     111.095 126.766 138.466  0.00  0.00    +0.000 OA
ATOM      2  O   UNL     1     108.913 126.812 138.402  0.00  0.00    +0.000 OA
ATOM      3  O   UNL     1     110.705 125.508 140.207  0.00  0.00    +0.000 OA
ATOM      4  C   UNL     1     109.809 126.160 139.305  0.00  0.00    +0.000 C 
ATOM      5  C   UNL     1     109.683 126.638 138.643  0.00  0.00    +0.000 C 
ATOM      6  C   UNL     1     110.579 125.986 139.546  0.00  0.00    +0.000 C 
ATOM      7  C   UNL     1     110.326 126.941 138.224  0.00  0.00    +0.000 C 
ATOM      8  C   UNL     1     111.221 126.289 139.126  0.00  0.00    +0.000 C 
ENDROOT
BRANCH   7  10
ATOM      9  O   UNL     1     110.426 128.211 137.578  0.00  0.00    +0.000 OA
ATOM     10  C   UNL     1     110.199 127.418 137.564  0.00  0.00    +0.000 C 
ENDBRANCH   7  10
BRANCH   4  11
ATOM     11  O   UNL     1     109.166 125.858 139.724  0.00  0.00    +0.000 OA
BRANCH  11  15
ATOM     12  O   UNL     1     109.117 127.031 140.537  0.00  0.00    +0.000 OA
ATOM     13  O   UNL     1     108.144 125.091 140.768  0.00  0.00    +0.000 OA
ATOM     14  O   UNL     1     107.584 125.882 142.103  0.00  0.00    +0.000 OA
ATOM     15  C   UNL     1     108.887 126.254 140.392  0.00  0.00    +0.000 C 
ATOM     16  C   UNL     1     108.375 125.870 140.914  0.00  0.00    +0.000 C 
ATOM     17  C   UNL     1     108.095 126.265 141.581  0.00  0.00    +0.000 C 
ATOM     18  C   UNL     1     108.326 127.044 141.727  0.00  0.00    +0.000 C 
ATOM     19  C   UNL     1     108.838 127.427 141.205  0.00  0.00    +0.000 C 
BRANCH  18  20
ATOM     20  O   UNL     1     108.046 127.439 142.395  0.00  0.00    +0.000 OA
BRANCH  20  22
ATOM     21  O   UNL     1     106.874 127.993 141.795  0.00  0.00    +0.000 OA
ATOM     22  C   UNL     1     107.251 127.653 142.445  0.00  0.00    +0.000 C 
ATOM     23  C   UNL     1     106.833 127.526 143.144  0.00  0.00    +0.000 C 
ENDBRANCH  20  22
ENDBRANCH  18  20
BRANCH  19  24
ATOM     24  C   UNL     1     109.068 128.205 141.351  0.00  0.00    +0.000 C 
BRANCH  24  25
ATOM     25  O   UNL     1     109.869 128.405 141.347  0.00  0.00    +0.000 OA
BRANCH  25  27
ATOM     26  O   UNL     1     110.000 129.632 140.625  0.00  0.00    +0.000 OA
ATOM     27  C   UNL     1     110.096 129.198 141.320  0.00  0.00    +0.000 C 
ATOM     28  C   UNL     1     110.420 129.557 141.989  0.00  0.00    +0.000 C 
ENDBRANCH  25  27
ENDBRANCH  24  25
ENDBRANCH  19  24
ENDBRANCH  11  15
ENDBRANCH   4  11
BRANCH   8  29
ATOM     29  O   UNL     1     111.991 126.114 139.369  0.00  0.00    +0.000 OA
BRANCH  29  34
ATOM     30  O   UNL     1     113.860 126.335 138.263  0.00  0.00    +0.000 OA
ATOM     31  O   UNL     1     111.803 124.959 138.205  0.00  0.00    +0.000 OA
ATOM     32  O   UNL     1     112.283 124.240 137.050  0.00  0.00    +0.000 OA
ATOM     33  O   UNL     1     114.892 124.926 135.932  0.00  0.00    +0.000 OA
ATOM     34  C   UNL     1     112.582 125.995 138.806  0.00  0.00    +0.000 A 
ATOM     35  C   UNL     1     113.268 126.453 138.825  0.00  0.00    +0.000 A 
ATOM     36  C   UNL     1     112.489 125.417 138.224  0.00  0.00    +0.000 A 
ATOM     37  C   UNL     1     113.081 125.298 137.662  0.00  0.00    +0.000 A 
ATOM     38  C   UNL     1     113.766 125.757 137.682  0.00  0.00    +0.000 A 
ATOM     39  C   UNL     1     112.972 124.694 137.062  0.00  0.00    +0.000 A 
ATOM     40  C   UNL     1     114.390 125.643 137.102  0.00  0.00    +0.000 A 
ATOM     41  C   UNL     1     113.584 124.565 136.473  0.00  0.00    +0.000 A 
ATOM     42  C   UNL     1     114.299 125.043 136.493  0.00  0.00    +0.000 A 
BRANCH  35  44
ATOM     43  O   UNL     1     113.641 128.764 141.151  0.00  0.00    +0.000 OA
ATOM     44  C   UNL     1     113.361 127.031 139.407  0.00  0.00    +0.000 A 
ATOM     45  C   UNL     1     113.259 127.828 139.217  0.00  0.00    +0.000 A 
ATOM     46  C   UNL     1     113.557 126.813 140.178  0.00  0.00    +0.000 A 
ATOM     47  C   UNL     1     113.353 128.406 139.799  0.00  0.00    +0.000 A 
ATOM     48  C   UNL     1     113.650 127.390 140.759  0.00  0.00    +0.000 A 
ATOM     49  C   UNL     1     113.548 128.187 140.570  0.00  0.00    +0.000 A 
BRANCH  47  50
ATOM     50  O   UNL     1     113.251 129.202 139.609  0.00  0.00    +0.000 OA
ATOM     51  C   UNL     1     113.405 129.466 138.843  0.00  0.00    +0.000 C 
ENDBRANCH  47  50
ENDBRANCH  35  44
ENDBRANCH  29  34
ENDBRANCH   8  29
TORSDOF 12
ENDMDL
MODEL 6
REMARK VINA RESULT:      -9.1      1.418      1.879
REMARK  Name = 44259351
REMARK  12 active torsions:
REMARK  status: ('A' for Active; 'I' for Inactive)
REMARK    1  A    between atoms: O_1  and  C_20
REMARK    2  A    between atoms: O_1  and  C_22
REMARK    3  A    between atoms: O_5  and  C_26
REMARK    4  A    between atoms: O_5  and  C_33
REMARK    5  A    between atoms: O_9  and  C_29
REMARK    6  A    between atoms: O_9  and  C_32
REMARK    7  A    between atoms: O_10  and  C_30
REMARK    8  A    between atoms: O_10  and  C_36
REMARK    9  A    between atoms: O_18  and  C_48
REMARK   10  A    between atoms: C_27  and  C_31
REMARK   11  A    between atoms: C_28  and  C_30
REMARK   12  A    between atoms: C_34  and  C_39
REMARK                            x       y       z     vdW  Elec       q    Type
REMARK                         _______ _______ _______ _____ _____    ______ ____
ROOT
ATOM      1  O   UNL     1     110.990 127.124 137.963  0.00  0.00    +0.000 OA
ATOM      2  O   UNL     1     108.841 127.062 137.589  0.00  0.00    +0.000 OA
ATOM      3  O   UNL     1     110.935 128.463 136.240  0.00  0.00    +0.000 OA
ATOM      4  C   UNL     1     109.888 127.763 136.915  0.00  0.00    +0.000 C 
ATOM      5  C   UNL     1     109.640 127.252 137.514  0.00  0.00    +0.000 C 
ATOM      6  C   UNL     1     110.687 127.953 136.840  0.00  0.00    +0.000 C 
ATOM      7  C   UNL     1     110.191 126.933 138.038  0.00  0.00    +0.000 C 
ATOM      8  C   UNL     1     111.238 127.633 137.364  0.00  0.00    +0.000 C 
ENDROOT
BRANCH   7  10
ATOM      9  O   UNL     1     109.996 126.658 139.426  0.00  0.00    +0.000 OA
ATOM     10  C   UNL     1     109.943 126.423 138.637  0.00  0.00    +0.000 C 
ENDBRANCH   7  10
BRANCH   4  11
ATOM     11  O   UNL     1     109.337 128.082 136.391  0.00  0.00    +0.000 OA
BRANCH  11  15
ATOM     12  O   UNL     1     109.175 129.257 137.188  0.00  0.00    +0.000 OA
ATOM     13  O   UNL     1     108.758 128.895 135.076  0.00  0.00    +0.000 OA
ATOM     14  O   UNL     1     108.307 130.476 135.216  0.00  0.00    +0.000 OA
ATOM     15  C   UNL     1     109.111 128.873 136.461  0.00  0.00    +0.000 C 
ATOM     16  C   UNL     1     108.822 129.279 135.804  0.00  0.00    +0.000 C 
ATOM     17  C   UNL     1     108.596 130.070 135.873  0.00  0.00    +0.000 C 
ATOM     18  C   UNL     1     108.660 130.454 136.601  0.00  0.00    +0.000 C 
ATOM     19  C   UNL     1     108.949 130.048 137.259  0.00  0.00    +0.000 C 
BRANCH  18  20
ATOM     20  O   UNL     1     108.434 131.244 136.671  0.00  0.00    +0.000 OA
BRANCH  20  22
ATOM     21  O   UNL     1     109.659 131.946 136.453  0.00  0.00    +0.000 OA
ATOM     22  C   UNL     1     108.862 131.832 136.280  0.00  0.00    +0.000 C 
ATOM     23  C   UNL     1     108.490 132.304 135.715  0.00  0.00    +0.000 C 
ENDBRANCH  20  22
ENDBRANCH  18  20
BRANCH  19  24
ATOM     24  C   UNL     1     109.013 130.432 137.985  0.00  0.00    +0.000 C 
BRANCH  24  25
ATOM     25  O   UNL     1     108.758 130.056 138.674  0.00  0.00    +0.000 OA
BRANCH  25  27
ATOM     26  O   UNL     1     108.316 130.908 139.732  0.00  0.00    +0.000 OA
ATOM     27  C   UNL     1     108.887 130.409 139.409  0.00  0.00    +0.000 C 
ATOM     28  C   UNL     1     109.587 130.261 139.820  0.00  0.00    +0.000 C 
ENDBRANCH  25  27
ENDBRANCH  24  25
ENDBRANCH  19  24
ENDBRANCH  11  15
ENDBRANCH   4  11
BRANCH   8  29
ATOM     29  O   UNL     1     112.038 127.824 137.288  0.00  0.00    +0.000 OA
BRANCH  29  34
ATOM     30  O   UNL     1     113.766 126.807 138.151  0.00  0.00    +0.000 OA
ATOM     31  O   UNL     1     112.036 126.418 136.424  0.00  0.00    +0.000 OA
ATOM     32  O   UNL     1     112.596 125.126 136.113  0.00  0.00    +0.000 OA
ATOM     33  O   UNL     1     114.952 124.209 137.577  0.00  0.00    +0.000 OA
ATOM     34  C   UNL     1     112.613 127.251 137.432  0.00  0.00    +0.000 A 
ATOM     35  C   UNL     1     113.190 127.380 138.007  0.00  0.00    +0.000 A 
ATOM     36  C   UNL     1     112.613 126.547 137.000  0.00  0.00    +0.000 A 
ATOM     37  C   UNL     1     113.188 125.974 137.143  0.00  0.00    +0.000 A 
ATOM     38  C   UNL     1     113.765 126.105 137.719  0.00  0.00    +0.000 A 
ATOM     39  C   UNL     1     113.177 125.247 136.687  0.00  0.00    +0.000 A 
ATOM     40  C   UNL     1     114.370 125.516 137.878  0.00  0.00    +0.000 A 
ATOM     41  C   UNL     1     113.774 124.646 136.832  0.00  0.00    +0.000 A 
ATOM     42  C   UNL     1     114.375 124.781 137.431  0.00  0.00    +0.000 A 
BRANCH  35  44
ATOM     43  O   UNL     1     113.193 130.192 139.735  0.00  0.00    +0.000 OA
ATOM     44  C   UNL     1     113.191 128.084 138.440  0.00  0.00    +0.000 A 
ATOM     45  C   UNL     1     112.972 128.078 139.235  0.00  0.00    +0.000 A 
ATOM     46  C   UNL     1     113.410 128.791 138.076  0.00  0.00    +0.000 A 
ATOM     47  C   UNL     1     112.973 128.782 139.667  0.00  0.00    +0.000 A 
ATOM     48  C   UNL     1     113.411 129.493 138.508  0.00  0.00    +0.000 A 
ATOM     49  C   UNL     1     113.192 129.489 139.304  0.00  0.00    +0.000 A 
BRANCH  47  50
ATOM     50  O   UNL     1     112.754 128.777 140.462  0.00  0.00    +0.000 OA
ATOM     51  C   UNL     1     112.894 128.108 140.925  0.00  0.00    +0.000 C 
ENDBRANCH  47  50
ENDBRANCH  35  44
ENDBRANCH  29  34
ENDBRANCH   8  29
TORSDOF 12
ENDMDL
MODEL 7
REMARK VINA RESULT:      -9.0      1.733      3.294
REMARK  Name = 44259351
REMARK  12 active torsions:
REMARK  status: ('A' for Active; 'I' for Inactive)
REMARK    1  A    between atoms: O_1  and  C_20
REMARK    2  A    between atoms: O_1  and  C_22
REMARK    3  A    between atoms: O_5  and  C_26
REMARK    4  A    between atoms: O_5  and  C_33
REMARK    5  A    between atoms: O_9  and  C_29
REMARK    6  A    between atoms: O_9  and  C_32
REMARK    7  A    between atoms: O_10  and  C_30
REMARK    8  A    between atoms: O_10  and  C_36
REMARK    9  A    between atoms: O_18  and  C_48
REMARK   10  A    between atoms: C_27  and  C_31
REMARK   11  A    between atoms: C_28  and  C_30
REMARK   12  A    between atoms: C_34  and  C_39
REMARK                            x       y       z     vdW  Elec       q    Type
REMARK                         _______ _______ _______ _____ _____    ______ ____
ROOT
ATOM      1  O   UNL     1     110.794 128.258 138.956  0.00  0.00    +0.000 OA
ATOM      2  O   UNL     1     109.006 129.423 139.415  0.00  0.00    +0.000 OA
ATOM      3  O   UNL     1     111.311 130.069 137.853  0.00  0.00    +0.000 OA
ATOM      4  C   UNL     1     110.158 129.746 138.634  0.00  0.00    +0.000 C 
ATOM      5  C   UNL     1     109.741 129.212 139.105  0.00  0.00    +0.000 C 
ATOM      6  C   UNL     1     110.893 129.535 138.325  0.00  0.00    +0.000 C 
ATOM      7  C   UNL     1     110.059 128.468 139.266  0.00  0.00    +0.000 C 
ATOM      8  C   UNL     1     111.211 128.791 138.486  0.00  0.00    +0.000 C 
ENDROOT
BRANCH   7  10
ATOM      9  O   UNL     1     109.325 127.250 139.403  0.00  0.00    +0.000 OA
ATOM     10  C   UNL     1     109.641 127.935 139.737  0.00  0.00    +0.000 C 
ENDBRANCH   7  10
BRANCH   4  11
ATOM     11  O   UNL     1     109.841 130.490 138.473  0.00  0.00    +0.000 OA
BRANCH  11  15
ATOM     12  O   UNL     1     109.320 130.013 137.231  0.00  0.00    +0.000 OA
ATOM     13  O   UNL     1     108.973 131.883 138.302  0.00  0.00    +0.000 OA
ATOM     14  O   UNL     1     108.018 132.102 136.974  0.00  0.00    +0.000 OA
ATOM     15  C   UNL     1     109.363 130.599 137.809  0.00  0.00    +0.000 C 
ATOM     16  C   UNL     1     108.929 131.296 137.723  0.00  0.00    +0.000 C 
ATOM     17  C   UNL     1     108.452 131.406 137.060  0.00  0.00    +0.000 C 
ATOM     18  C   UNL     1     108.408 130.818 136.481  0.00  0.00    +0.000 C 
ATOM     19  C   UNL     1     108.842 130.122 136.566  0.00  0.00    +0.000 C 
BRANCH  18  20
ATOM     20  O   UNL     1     107.931 130.929 135.818  0.00  0.00    +0.000 OA
BRANCH  20  22
ATOM     21  O   UNL     1     108.877 131.559 134.953  0.00  0.00    +0.000 OA
ATOM     22  C   UNL     1     108.116 131.515 135.268  0.00  0.00    +0.000 C 
ATOM     23  C   UNL     1     107.541 132.057 135.033  0.00  0.00    +0.000 C 
ENDBRANCH  20  22
ENDBRANCH  18  20
BRANCH  19  24
ATOM     24  C   UNL     1     108.799 129.536 135.989  0.00  0.00    +0.000 C 
BRANCH  24  25
ATOM     25  O   UNL     1     108.585 128.767 136.197  0.00  0.00    +0.000 OA
BRANCH  25  27
ATOM     26  O   UNL     1     109.302 128.253 135.072  0.00  0.00    +0.000 OA
ATOM     27  C   UNL     1     108.789 128.135 135.707  0.00  0.00    +0.000 C 
ATOM     28  C   UNL     1     108.478 127.384 135.853  0.00  0.00    +0.000 C 
ENDBRANCH  25  27
ENDBRANCH  24  25
ENDBRANCH  19  24
ENDBRANCH  11  15
ENDBRANCH   4  11
BRANCH   8  29
ATOM     29  O   UNL     1     111.946 128.581 138.176  0.00  0.00    +0.000 OA
BRANCH  29  34
ATOM     30  O   UNL     1     113.320 127.027 138.857  0.00  0.00    +0.000 OA
ATOM     31  O   UNL     1     112.448 129.216 139.614  0.00  0.00    +0.000 OA
ATOM     32  O   UNL     1     113.237 129.146 140.819  0.00  0.00    +0.000 OA
ATOM     33  O   UNL     1     114.941 126.817 141.268  0.00  0.00    +0.000 OA
ATOM     34  C   UNL     1     112.488 128.169 138.642  0.00  0.00    +0.000 A 
ATOM     35  C   UNL     1     112.779 127.439 138.391  0.00  0.00    +0.000 A 
ATOM     36  C   UNL     1     112.739 128.487 139.362  0.00  0.00    +0.000 A 
ATOM     37  C   UNL     1     113.280 128.075 139.829  0.00  0.00    +0.000 A 
ATOM     38  C   UNL     1     113.571 127.345 139.576  0.00  0.00    +0.000 A 
ATOM     39  C   UNL     1     113.533 128.415 140.575  0.00  0.00    +0.000 A 
ATOM     40  C   UNL     1     114.135 126.906 140.053  0.00  0.00    +0.000 A 
ATOM     41  C   UNL     1     114.097 127.992 141.066  0.00  0.00    +0.000 A 
ATOM     42  C   UNL     1     114.400 127.232 140.803  0.00  0.00    +0.000 A 
BRANCH  35  44
ATOM     43  O   UNL     1     111.776 126.169 135.515  0.00  0.00    +0.000 OA
ATOM     44  C   UNL     1     112.528 127.122 137.671  0.00  0.00    +0.000 A 
ATOM     45  C   UNL     1     112.024 126.468 137.663  0.00  0.00    +0.000 A 
ATOM     46  C   UNL     1     112.781 127.457 136.961  0.00  0.00    +0.000 A 
ATOM     47  C   UNL     1     111.773 126.151 136.943  0.00  0.00    +0.000 A 
ATOM     48  C   UNL     1     112.531 127.140 136.243  0.00  0.00    +0.000 A 
ATOM     49  C   UNL     1     112.027 126.486 136.233  0.00  0.00    +0.000 A 
BRANCH  47  50
ATOM     50  O   UNL     1     111.270 125.498 136.935  0.00  0.00    +0.000 OA
ATOM     51  C   UNL     1     111.280 124.960 137.560  0.00  0.00    +0.000 C 
ENDBRANCH  47  50
ENDBRANCH  35  44
ENDBRANCH  29  34
ENDBRANCH   8  29
TORSDOF 12
ENDMDL
MODEL 8
REMARK VINA RESULT:      -9.0      1.427      3.198
REMARK  Name = 44259351
REMARK  12 active torsions:
REMARK  status: ('A' for Active; 'I' for Inactive)
REMARK    1  A    between atoms: O_1  and  C_20
REMARK    2  A    between atoms: O_1  and  C_22
REMARK    3  A    between atoms: O_5  and  C_26
REMARK    4  A    between atoms: O_5  and  C_33
REMARK    5  A    between atoms: O_9  and  C_29
REMARK    6  A    between atoms: O_9  and  C_32
REMARK    7  A    between atoms: O_10  and  C_30
REMARK    8  A    between atoms: O_10  and  C_36
REMARK    9  A    between atoms: O_18  and  C_48
REMARK   10  A    between atoms: C_27  and  C_31
REMARK   11  A    between atoms: C_28  and  C_30
REMARK   12  A    between atoms: C_34  and  C_39
REMARK                            x       y       z     vdW  Elec       q    Type
REMARK                         _______ _______ _______ _____ _____    ______ ____
ROOT
ATOM      1  O   UNL     1     112.367 127.683 136.682  0.00  0.00    +0.000 OA
ATOM      2  O   UNL     1     111.842 128.966 134.996  0.00  0.00    +0.000 OA
ATOM      3  O   UNL     1     110.202 127.407 136.742  0.00  0.00    +0.000 OA
ATOM      4  C   UNL     1     111.022 128.186 135.869  0.00  0.00    +0.000 C 
ATOM      5  C   UNL     1     111.769 128.450 135.636  0.00  0.00    +0.000 C 
ATOM      6  C   UNL     1     110.949 127.671 136.508  0.00  0.00    +0.000 C 
ATOM      7  C   UNL     1     112.441 128.198 136.042  0.00  0.00    +0.000 C 
ATOM      8  C   UNL     1     111.621 127.419 136.915  0.00  0.00    +0.000 C 
ENDROOT
BRANCH   7  10
ATOM      9  O   UNL     1     113.766 127.918 135.588  0.00  0.00    +0.000 OA
ATOM     10  C   UNL     1     113.187 128.462 135.809  0.00  0.00    +0.000 C 
ENDBRANCH   7  10
BRANCH   4  11
ATOM     11  O   UNL     1     110.350 128.438 135.462  0.00  0.00    +0.000 OA
BRANCH  11  15
ATOM     12  O   UNL     1     110.313 129.721 136.092  0.00  0.00    +0.000 OA
ATOM     13  O   UNL     1     108.708 128.470 135.302  0.00  0.00    +0.000 OA
ATOM     14  O   UNL     1     107.850 129.768 135.851  0.00  0.00    +0.000 OA
ATOM     15  C   UNL     1     109.922 129.088 135.737  0.00  0.00    +0.000 C 
ATOM     16  C   UNL     1     109.101 129.104 135.657  0.00  0.00    +0.000 C 
ATOM     17  C   UNL     1     108.671 129.752 135.931  0.00  0.00    +0.000 C 
ATOM     18  C   UNL     1     109.064 130.386 136.286  0.00  0.00    +0.000 C 
ATOM     19  C   UNL     1     109.885 130.370 136.367  0.00  0.00    +0.000 C 
BRANCH  18  20
ATOM     20  O   UNL     1     108.634 131.035 136.561  0.00  0.00    +0.000 OA
BRANCH  20  22
ATOM     21  O   UNL     1     108.704 131.864 135.400  0.00  0.00    +0.000 OA
ATOM     22  C   UNL     1     108.271 131.546 136.025  0.00  0.00    +0.000 C 
ATOM     23  C   UNL     1     107.474 131.739 136.115  0.00  0.00    +0.000 C 
ENDBRANCH  20  22
ENDBRANCH  18  20
BRANCH  19  24
ATOM     24  C   UNL     1     110.276 131.003 136.721  0.00  0.00    +0.000 C 
BRANCH  24  25
ATOM     25  O   UNL     1     110.824 130.864 137.322  0.00  0.00    +0.000 OA
BRANCH  25  27
ATOM     26  O   UNL     1     111.030 131.863 138.323  0.00  0.00    +0.000 OA
ATOM     27  C   UNL     1     111.268 131.489 137.628  0.00  0.00    +0.000 C 
ATOM     28  C   UNL     1     111.952 131.738 137.237  0.00  0.00    +0.000 C 
ENDBRANCH  25  27
ENDBRANCH  24  25
ENDBRANCH  19  24
ENDBRANCH  11  15
ENDBRANCH   4  11
BRANCH   8  29
ATOM     29  O   UNL     1     111.547 126.903 137.555  0.00  0.00    +0.000 OA
BRANCH  29  34
ATOM     30  O   UNL     1     113.130 126.205 138.885  0.00  0.00    +0.000 OA
ATOM     31  O   UNL     1     111.822 128.260 138.452  0.00  0.00    +0.000 OA
ATOM     32  O   UNL     1     112.524 128.963 139.498  0.00  0.00    +0.000 OA
ATOM     33  O   UNL     1     114.590 127.558 141.011  0.00  0.00    +0.000 OA
ATOM     34  C   UNL     1     112.120 126.896 138.148  0.00  0.00    +0.000 A 
ATOM     35  C   UNL     1     112.557 126.212 138.293  0.00  0.00    +0.000 A 
ATOM     36  C   UNL     1     112.258 127.576 138.597  0.00  0.00    +0.000 A 
ATOM     37  C   UNL     1     112.832 127.569 139.190  0.00  0.00    +0.000 A 
ATOM     38  C   UNL     1     113.268 126.883 139.333  0.00  0.00    +0.000 A 
ATOM     39  C   UNL     1     112.966 128.282 139.650  0.00  0.00    +0.000 A 
ATOM     40  C   UNL     1     113.868 126.864 139.948  0.00  0.00    +0.000 A 
ATOM     41  C   UNL     1     113.561 128.281 140.268  0.00  0.00    +0.000 A 
ATOM     42  C   UNL     1     114.016 127.568 140.419  0.00  0.00    +0.000 A 
BRANCH  35  44
ATOM     43  O   UNL     1     112.007 123.497 136.498  0.00  0.00    +0.000 OA
ATOM     44  C   UNL     1     112.419 125.533 137.844  0.00  0.00    +0.000 A 
ATOM     45  C   UNL     1     112.982 125.280 137.296  0.00  0.00    +0.000 A 
ATOM     46  C   UNL     1     111.719 125.108 137.942  0.00  0.00    +0.000 A 
ATOM     47  C   UNL     1     112.844 124.600 136.847  0.00  0.00    +0.000 A 
ATOM     48  C   UNL     1     111.582 124.430 137.494  0.00  0.00    +0.000 A 
ATOM     49  C   UNL     1     112.144 124.175 136.946  0.00  0.00    +0.000 A 
BRANCH  47  50
ATOM     50  O   UNL     1     113.407 124.347 136.300  0.00  0.00    +0.000 OA
ATOM     51  C   UNL     1     114.186 124.614 136.356  0.00  0.00    +0.000 C 
ENDBRANCH  47  50
ENDBRANCH  35  44
ENDBRANCH  29  34
ENDBRANCH   8  29
TORSDOF 12
ENDMDL
MODEL 9
REMARK VINA RESULT:      -9.0      1.647      5.567
REMARK  Name = 44259351
REMARK  12 active torsions:
REMARK  status: ('A' for Active; 'I' for Inactive)
REMARK    1  A    between atoms: O_1  and  C_20
REMARK    2  A    between atoms: O_1  and  C_22
REMARK    3  A    between atoms: O_5  and  C_26
REMARK    4  A    between atoms: O_5  and  C_33
REMARK    5  A    between atoms: O_9  and  C_29
REMARK    6  A    between atoms: O_9  and  C_32
REMARK    7  A    between atoms: O_10  and  C_30
REMARK    8  A    between atoms: O_10  and  C_36
REMARK    9  A    between atoms: O_18  and  C_48
REMARK   10  A    between atoms: C_27  and  C_31
REMARK   11  A    between atoms: C_28  and  C_30
REMARK   12  A    between atoms: C_34  and  C_39
REMARK                            x       y       z     vdW  Elec       q    Type
REMARK                         _______ _______ _______ _____ _____    ______ ____
ROOT
ATOM      1  O   UNL     1     111.880 129.305 136.712  0.00  0.00    +0.000 OA
ATOM      2  O   UNL     1     112.061 127.620 135.335  0.00  0.00    +0.000 OA
ATOM      3  O   UNL     1     110.173 128.141 137.417  0.00  0.00    +0.000 OA
ATOM      4  C   UNL     1     111.117 127.881 136.376  0.00  0.00    +0.000 C 
ATOM      5  C   UNL     1     111.781 128.107 135.939  0.00  0.00    +0.000 C 
ATOM      6  C   UNL     1     110.837 128.367 136.980  0.00  0.00    +0.000 C 
ATOM      7  C   UNL     1     112.162 128.819 136.107  0.00  0.00    +0.000 C 
ATOM      8  C   UNL     1     111.218 129.079 137.148  0.00  0.00    +0.000 C 
ENDROOT
BRANCH   7  10
ATOM      9  O   UNL     1     113.569 129.050 136.025  0.00  0.00    +0.000 OA
ATOM     10  C   UNL     1     112.824 129.045 135.671  0.00  0.00    +0.000 C 
ENDBRANCH   7  10
BRANCH   4  11
ATOM     11  O   UNL     1     110.736 127.169 136.208  0.00  0.00    +0.000 OA
BRANCH  11  15
ATOM     12  O   UNL     1     111.531 126.469 137.168  0.00  0.00    +0.000 OA
ATOM     13  O   UNL     1     110.338 125.736 135.493  0.00  0.00    +0.000 OA
ATOM     14  O   UNL     1     110.933 124.320 136.095  0.00  0.00    +0.000 OA
ATOM     15  C   UNL     1     111.034 126.461 136.510  0.00  0.00    +0.000 C 
ATOM     16  C   UNL     1     110.835 125.744 136.152  0.00  0.00    +0.000 C 
ATOM     17  C   UNL     1     111.132 125.036 136.452  0.00  0.00    +0.000 C 
ATOM     18  C   UNL     1     111.629 125.044 137.112  0.00  0.00    +0.000 C 
ATOM     19  C   UNL     1     111.829 125.761 137.469  0.00  0.00    +0.000 C 
BRANCH  18  20
ATOM     20  O   UNL     1     111.927 124.336 137.412  0.00  0.00    +0.000 OA
BRANCH  20  22
ATOM     21  O   UNL     1     113.095 124.223 136.598  0.00  0.00    +0.000 OA
ATOM     22  C   UNL     1     112.438 123.876 136.956  0.00  0.00    +0.000 C 
ATOM     23  C   UNL     1     112.292 123.071 136.859  0.00  0.00    +0.000 C 
ENDBRANCH  20  22
ENDBRANCH  18  20
BRANCH  19  24
ATOM     24  C   UNL     1     112.325 125.769 138.127  0.00  0.00    +0.000 C 
BRANCH  24  25
ATOM     25  O   UNL     1     112.299 126.401 138.656  0.00  0.00    +0.000 OA
BRANCH  25  27
ATOM     26  O   UNL     1     112.425 126.224 140.069  0.00  0.00    +0.000 OA
ATOM     27  C   UNL     1     112.766 126.391 139.336  0.00  0.00    +0.000 C 
ATOM     28  C   UNL     1     113.574 126.549 139.283  0.00  0.00    +0.000 C 
ENDBRANCH  25  27
ENDBRANCH  24  25
ENDBRANCH  19  24
ENDBRANCH  11  15
ENDBRANCH   4  11
BRANCH   8  29
ATOM     29  O   UNL     1     110.936 129.565 137.752  0.00  0.00    +0.000 OA
BRANCH  29  34
ATOM     30  O   UNL     1     111.305 131.690 138.093  0.00  0.00    +0.000 OA
ATOM     31  O   UNL     1     110.140 130.230 136.469  0.00  0.00    +0.000 OA
ATOM     32  O   UNL     1     109.716 131.375 135.701  0.00  0.00    +0.000 OA
ATOM     33  O   UNL     1     110.484 134.048 136.594  0.00  0.00    +0.000 OA
ATOM     34  C   UNL     1     110.927 130.384 137.652  0.00  0.00    +0.000 A 
ATOM     35  C   UNL     1     111.315 130.871 138.193  0.00  0.00    +0.000 A 
ATOM     36  C   UNL     1     110.528 130.717 137.010  0.00  0.00    +0.000 A 
ATOM     37  C   UNL     1     110.519 131.536 136.910  0.00  0.00    +0.000 A 
ATOM     38  C   UNL     1     110.908 132.022 137.452  0.00  0.00    +0.000 A 
ATOM     39  C   UNL     1     110.101 131.870 136.238  0.00  0.00    +0.000 A 
ATOM     40  C   UNL     1     110.905 132.876 137.358  0.00  0.00    +0.000 A 
ATOM     41  C   UNL     1     110.088 132.722 136.128  0.00  0.00    +0.000 A 
ATOM     42  C   UNL     1     110.492 133.229 136.691  0.00  0.00    +0.000 A 
BRANCH  35  44
ATOM     43  O   UNL     1     112.907 129.541 140.760  0.00  0.00    +0.000 OA
ATOM     44  C   UNL     1     111.713 130.538 138.835  0.00  0.00    +0.000 A 
ATOM     45  C   UNL     1     112.536 130.493 138.831  0.00  0.00    +0.000 A 
ATOM     46  C   UNL     1     111.287 130.251 139.481  0.00  0.00    +0.000 A 
ATOM     47  C   UNL     1     112.935 130.160 139.473  0.00  0.00    +0.000 A 
ATOM     48  C   UNL     1     111.685 129.919 140.122  0.00  0.00    +0.000 A 
ATOM     49  C   UNL     1     112.509 129.873 140.119  0.00  0.00    +0.000 A 
BRANCH  47  50
ATOM     50  O   UNL     1     113.758 130.115 139.468  0.00  0.00    +0.000 OA
ATOM     51  C   UNL     1     114.196 130.615 138.980  0.00  0.00    +0.000 C 
ENDBRANCH  47  50
ENDBRANCH  35  44
ENDBRANCH  29  34
ENDBRANCH   8  29
TORSDOF 12
ENDMDL
MODEL 10
REMARK VINA RESULT:      -9.0      1.613      3.343
REMARK  Name = 44259351
REMARK  12 active torsions:
REMARK  status: ('A' for Active; 'I' for Inactive)
REMARK    1  A    between atoms: O_1  and  C_20
REMARK    2  A    between atoms: O_1  and  C_22
REMARK    3  A    between atoms: O_5  and  C_26
REMARK    4  A    between atoms: O_5  and  C_33
REMARK    5  A    between atoms: O_9  and  C_29
REMARK    6  A    between atoms: O_9  and  C_32
REMARK    7  A    between atoms: O_10  and  C_30
REMARK    8  A    between atoms: O_10  and  C_36
REMARK    9  A    between atoms: O_18  and  C_48
REMARK   10  A    between atoms: C_27  and  C_31
REMARK   11  A    between atoms: C_28  and  C_30
REMARK   12  A    between atoms: C_34  and  C_39
REMARK                            x       y       z     vdW  Elec       q    Type
REMARK                         _______ _______ _______ _____ _____    ______ ____
ROOT
ATOM      1  O   UNL     1     112.307 127.688 137.924  0.00  0.00    +0.000 OA
ATOM      2  O   UNL     1     113.046 129.529 138.834  0.00  0.00    +0.000 OA
ATOM      3  O   UNL     1     112.324 128.935 136.133  0.00  0.00    +0.000 OA
ATOM      4  C   UNL     1     112.685 129.232 137.483  0.00  0.00    +0.000 C 
ATOM      5  C   UNL     1     112.771 128.994 138.269  0.00  0.00    +0.000 C 
ATOM      6  C   UNL     1     112.410 128.697 136.919  0.00  0.00    +0.000 C 
ATOM      7  C   UNL     1     112.582 128.222 138.490  0.00  0.00    +0.000 C 
ATOM      8  C   UNL     1     112.221 127.925 137.140  0.00  0.00    +0.000 C 
ENDROOT
BRANCH   7  10
ATOM      9  O   UNL     1     112.000 127.835 139.735  0.00  0.00    +0.000 OA
ATOM     10  C   UNL     1     112.668 127.985 139.275  0.00  0.00    +0.000 C 
ENDBRANCH   7  10
BRANCH   4  11
ATOM     11  O   UNL     1     112.874 130.005 137.263  0.00  0.00    +0.000 OA
BRANCH  11  15
ATOM     12  O   UNL     1     111.530 130.410 137.530  0.00  0.00    +0.000 OA
ATOM     13  O   UNL     1     113.256 131.552 136.835  0.00  0.00    +0.000 OA
ATOM     14  O   UNL     1     112.103 132.731 136.887  0.00  0.00    +0.000 OA
ATOM     15  C   UNL     1     112.297 130.594 137.289  0.00  0.00    +0.000 C 
ATOM     16  C   UNL     1     112.488 131.367 137.075  0.00  0.00    +0.000 C 
ATOM     17  C   UNL     1     111.912 131.957 137.101  0.00  0.00    +0.000 C 
ATOM     18  C   UNL     1     111.144 131.773 137.342  0.00  0.00    +0.000 C 
ATOM     19  C   UNL     1     110.953 130.999 137.556  0.00  0.00    +0.000 C 
BRANCH  18  20
ATOM     20  O   UNL     1     110.568 132.363 137.368  0.00  0.00    +0.000 OA
BRANCH  20  22
ATOM     21  O   UNL     1     109.996 132.311 136.060  0.00  0.00    +0.000 OA
ATOM     22  C   UNL     1     110.335 132.744 136.674  0.00  0.00    +0.000 C 
ATOM     23  C   UNL     1     110.442 133.557 136.596  0.00  0.00    +0.000 C 
ENDBRANCH  20  22
ENDBRANCH  18  20
BRANCH  19  24
ATOM     24  C   UNL     1     110.186 130.816 137.796  0.00  0.00    +0.000 C 
BRANCH  24  25
ATOM     25  O   UNL     1     110.065 130.335 138.456  0.00  0.00    +0.000 OA
BRANCH  25  27
ATOM     26  O   UNL     1     108.719 130.019 138.093  0.00  0.00    +0.000 OA
ATOM     27  C   UNL     1     109.299 130.116 138.672  0.00  0.00    +0.000 C 
ATOM     28  C   UNL     1     109.115 129.993 139.467  0.00  0.00    +0.000 C 
ENDBRANCH  25  27
ENDBRANCH  24  25
ENDBRANCH  19  24
ENDBRANCH  11  15
ENDBRANCH   4  11
BRANCH   8  29
ATOM     29  O   UNL     1     111.946 127.391 136.574  0.00  0.00    +0.000 OA
BRANCH  29  34
ATOM     30  O   UNL     1     111.581 125.251 136.802  0.00  0.00    +0.000 OA
ATOM     31  O   UNL     1     113.490 126.823 136.696  0.00  0.00    +0.000 OA
ATOM     32  O   UNL     1     114.428 125.738 136.853  0.00  0.00    +0.000 OA
ATOM     33  O   UNL     1     113.416 123.012 137.123  0.00  0.00    +0.000 OA
ATOM     34  C   UNL     1     112.081 126.583 136.670  0.00  0.00    +0.000 A 
ATOM     35  C   UNL     1     111.445 126.059 136.706  0.00  0.00    +0.000 A 
ATOM     36  C   UNL     1     112.854 126.298 136.731  0.00  0.00    +0.000 A 
ATOM     37  C   UNL     1     112.990 125.490 136.827  0.00  0.00    +0.000 A 
ATOM     38  C   UNL     1     112.353 124.967 136.863  0.00  0.00    +0.000 A 
ATOM     39  C   UNL     1     113.798 125.207 136.889  0.00  0.00    +0.000 A 
ATOM     40  C   UNL     1     112.481 124.123 136.963  0.00  0.00    +0.000 A 
ATOM     41  C   UNL     1     113.946 124.367 136.990  0.00  0.00    +0.000 A 
ATOM     42  C   UNL     1     113.284 123.821 137.027  0.00  0.00    +0.000 A 
BRANCH  35  44
ATOM     43  O   UNL     1     108.357 127.196 136.463  0.00  0.00    +0.000 OA
ATOM     44  C   UNL     1     110.673 126.343 136.645  0.00  0.00    +0.000 A 
ATOM     45  C   UNL     1     110.190 126.369 137.313  0.00  0.00    +0.000 A 
ATOM     46  C   UNL     1     110.384 126.601 135.916  0.00  0.00    +0.000 A 
ATOM     47  C   UNL     1     109.417 126.654 137.252  0.00  0.00    +0.000 A 
ATOM     48  C   UNL     1     109.613 126.885 135.856  0.00  0.00    +0.000 A 
ATOM     49  C   UNL     1     109.129 126.912 136.524  0.00  0.00    +0.000 A 
BRANCH  47  50
ATOM     50  O   UNL     1     108.934 126.680 137.920  0.00  0.00    +0.000 OA
ATOM     51  C   UNL     1     109.180 126.322 138.622  0.00  0.00    +0.000 C 
ENDBRANCH  47  50
ENDBRANCH  35  44
ENDBRANCH  29  34
ENDBRANCH   8  29
TORSDOF 12
ENDMDL
