MODEL 1
REMARK VINA RESULT:     -10.5      0.000      0.000
REMARK  Name = 73813319
REMARK  7 active torsions:
REMARK  status: ('A' for Active; 'I' for Inactive)
REMARK    1  A    between atoms: O_3  and  C_25
REMARK    2  A    between atoms: O_3  and  C_35
REMARK    3  A    between atoms: O_4  and  C_26
REMARK    4  A    between atoms: O_4  and  C_36
REMARK    5  A    between atoms: C_22  and  C_29
REMARK    6  A    between atoms: C_24  and  C_30
REMARK    7  A    between atoms: C_27  and  C_33
REMARK                            x       y       z     vdW  Elec       q    Type
REMARK                         _______ _______ _______ _____ _____    ______ ____
ROOT
ATOM      1  O   UNL     1     110.170 128.168 135.932  0.00  0.00    +0.000 OA
ATOM      2  O   UNL     1     108.436 126.846 135.806  0.00  0.00    +0.000 OA
ATOM      3  O   UNL     1     107.760 129.760 135.961  0.00  0.00    +0.000 OA
ATOM      4  C   UNL     1     109.715 127.481 135.879  0.00  0.00    +0.000 C 
ATOM      5  C   UNL     1     108.891 127.532 135.859  0.00  0.00    +0.000 C 
ATOM      6  C   UNL     1     108.523 128.270 135.893  0.00  0.00    +0.000 C 
ATOM      7  C   UNL     1     108.979 128.956 135.946  0.00  0.00    +0.000 A 
ATOM      8  C   UNL     1     109.802 128.904 135.965  0.00  0.00    +0.000 A 
ATOM      9  C   UNL     1     109.909 130.383 136.056  0.00  0.00    +0.000 A 
ATOM     10  C   UNL     1     110.287 129.612 136.021  0.00  0.00    +0.000 A 
ATOM     11  C   UNL     1     108.584 129.718 135.981  0.00  0.00    +0.000 A 
ATOM     12  C   UNL     1     109.052 130.437 136.036  0.00  0.00    +0.000 A 
ENDROOT
BRANCH   4  14
ATOM     13  O   UNL     1     111.189 124.532 135.742  0.00  0.00    +0.000 OA
ATOM     14  C   UNL     1     110.083 126.744 135.845  0.00  0.00    +0.000 A 
ATOM     15  C   UNL     1     110.707 125.640 136.504  0.00  0.00    +0.000 A 
ATOM     16  C   UNL     1     110.338 126.377 136.539  0.00  0.00    +0.000 A 
ATOM     17  C   UNL     1     110.196 126.373 135.117  0.00  0.00    +0.000 A 
ATOM     18  C   UNL     1     110.820 125.269 135.776  0.00  0.00    +0.000 A 
ATOM     19  C   UNL     1     110.565 125.636 135.082  0.00  0.00    +0.000 A 
BRANCH  15  20
ATOM     20  O   UNL     1     110.962 125.274 137.198  0.00  0.00    +0.000 OA
BRANCH  20  29
ATOM     21  O   UNL     1     112.173 126.009 137.383  0.00  0.00    +0.000 OA
ATOM     22  O   UNL     1     111.739 126.112 139.817  0.00  0.00    +0.000 OA
ATOM     23  O   UNL     1     113.095 126.813 139.190  0.00  0.00    +0.000 OA
ATOM     24  O   UNL     1     110.673 125.342 138.821  0.00  0.00    +0.000 OA
ATOM     25  C   UNL     1     111.884 126.078 139.006  0.00  0.00    +0.000 C 
ATOM     26  C   UNL     1     112.562 126.428 138.692  0.00  0.00    +0.000 C 
ATOM     27  C   UNL     1     111.350 125.693 138.507  0.00  0.00    +0.000 C 
ATOM     28  C   UNL     1     112.706 126.394 137.881  0.00  0.00    +0.000 C 
ATOM     29  C   UNL     1     111.495 125.658 137.696  0.00  0.00    +0.000 C 
BRANCH  28  31
ATOM     30  O   UNL     1     113.843 126.335 137.018  0.00  0.00    +0.000 OA
ATOM     31  C   UNL     1     113.384 126.745 137.568  0.00  0.00    +0.000 C 
ENDBRANCH  28  31
ENDBRANCH  20  29
ENDBRANCH  15  20
ENDBRANCH   4  14
BRANCH   9  32
ATOM     32  O   UNL     1     110.367 131.068 136.109  0.00  0.00    +0.000 OA
BRANCH  32  41
ATOM     33  O   UNL     1     110.455 131.150 137.533  0.00  0.00    +0.000 OA
ATOM     34  O   UNL     1     110.139 133.601 137.412  0.00  0.00    +0.000 OA
ATOM     35  O   UNL     1     110.333 132.866 138.875  0.00  0.00    +0.000 OA
ATOM     36  O   UNL     1     110.156 132.702 136.028  0.00  0.00    +0.000 OA
ATOM     37  C   UNL     1     110.244 132.784 137.452  0.00  0.00    +0.000 C 
ATOM     38  C   UNL     1     110.341 132.416 138.184  0.00  0.00    +0.000 C 
ATOM     39  C   UNL     1     110.253 132.334 136.760  0.00  0.00    +0.000 C 
ATOM     40  C   UNL     1     110.446 131.600 138.224  0.00  0.00    +0.000 C 
ATOM     41  C   UNL     1     110.358 131.518 136.800  0.00  0.00    +0.000 C 
BRANCH  40  43
ATOM     42  O   UNL     1     111.253 130.849 139.134  0.00  0.00    +0.000 OA
ATOM     43  C   UNL     1     110.543 131.231 138.956  0.00  0.00    +0.000 C 
ENDBRANCH  40  43
ENDBRANCH  32  41
ENDBRANCH   9  32
TORSDOF 7
ENDMDL
MODEL 2
REMARK VINA RESULT:     -10.1      1.495      5.989
REMARK  Name = 73813319
REMARK  7 active torsions:
REMARK  status: ('A' for Active; 'I' for Inactive)
REMARK    1  A    between atoms: O_3  and  C_25
REMARK    2  A    between atoms: O_3  and  C_35
REMARK    3  A    between atoms: O_4  and  C_26
REMARK    4  A    between atoms: O_4  and  C_36
REMARK    5  A    between atoms: C_22  and  C_29
REMARK    6  A    between atoms: C_24  and  C_30
REMARK    7  A    between atoms: C_27  and  C_33
REMARK                            x       y       z     vdW  Elec       q    Type
REMARK                         _______ _______ _______ _____ _____    ______ ____
ROOT
ATOM      1  O   UNL     1     111.035 128.645 136.540  0.00  0.00    +0.000 OA
ATOM      2  O   UNL     1     111.071 130.069 134.885  0.00  0.00    +0.000 OA
ATOM      3  O   UNL     1     113.663 128.638 135.340  0.00  0.00    +0.000 OA
ATOM      4  C   UNL     1     110.789 129.216 135.996  0.00  0.00    +0.000 C 
ATOM      5  C   UNL     1     111.316 129.498 135.428  0.00  0.00    +0.000 C 
ATOM      6  C   UNL     1     112.089 129.211 135.404  0.00  0.00    +0.000 C 
ATOM      7  C   UNL     1     112.335 128.641 135.947  0.00  0.00    +0.000 A 
ATOM      8  C   UNL     1     111.807 128.358 136.515  0.00  0.00    +0.000 A 
ATOM      9  C   UNL     1     112.855 127.461 137.065  0.00  0.00    +0.000 A 
ATOM     10  C   UNL     1     112.051 127.764 137.086  0.00  0.00    +0.000 A 
ATOM     11  C   UNL     1     113.142 128.350 135.911  0.00  0.00    +0.000 A 
ATOM     12  C   UNL     1     113.404 127.755 136.474  0.00  0.00    +0.000 A 
ENDROOT
BRANCH   4  14
ATOM     13  O   UNL     1     107.696 130.361 136.095  0.00  0.00    +0.000 OA
ATOM     14  C   UNL     1     110.016 129.502 136.021  0.00  0.00    +0.000 A 
ATOM     15  C   UNL     1     109.084 130.518 136.396  0.00  0.00    +0.000 A 
ATOM     16  C   UNL     1     109.857 130.232 136.372  0.00  0.00    +0.000 A 
ATOM     17  C   UNL     1     109.402 129.059 135.695  0.00  0.00    +0.000 A 
ATOM     18  C   UNL     1     108.469 130.074 136.070  0.00  0.00    +0.000 A 
ATOM     19  C   UNL     1     108.628 129.345 135.720  0.00  0.00    +0.000 A 
BRANCH  15  20
ATOM     20  O   UNL     1     108.925 131.248 136.747  0.00  0.00    +0.000 OA
BRANCH  20  29
ATOM     21  O   UNL     1     109.050 130.869 138.118  0.00  0.00    +0.000 OA
ATOM     22  O   UNL     1     110.294 132.958 138.582  0.00  0.00    +0.000 OA
ATOM     23  O   UNL     1     110.004 131.883 139.800  0.00  0.00    +0.000 OA
ATOM     24  O   UNL     1     109.755 132.640 137.055  0.00  0.00    +0.000 OA
ATOM     25  C   UNL     1     109.879 132.262 138.428  0.00  0.00    +0.000 C 
ATOM     26  C   UNL     1     109.734 131.724 139.036  0.00  0.00    +0.000 C 
ATOM     27  C   UNL     1     109.610 132.103 137.664  0.00  0.00    +0.000 C 
ATOM     28  C   UNL     1     109.319 131.028 138.882  0.00  0.00    +0.000 C 
ATOM     29  C   UNL     1     109.195 131.407 137.510  0.00  0.00    +0.000 C 
BRANCH  28  31
ATOM     30  O   UNL     1     108.449 130.101 139.532  0.00  0.00    +0.000 OA
ATOM     31  C   UNL     1     109.175 130.491 139.491  0.00  0.00    +0.000 C 
ENDBRANCH  28  31
ENDBRANCH  20  29
ENDBRANCH  15  20
ENDBRANCH   4  14
BRANCH   9  32
ATOM     32  O   UNL     1     113.098 126.891 137.610  0.00  0.00    +0.000 OA
BRANCH  32  41
ATOM     33  O   UNL     1     112.498 125.751 136.992  0.00  0.00    +0.000 OA
ATOM     34  O   UNL     1     114.509 124.407 137.516  0.00  0.00    +0.000 OA
ATOM     35  O   UNL     1     113.238 123.716 136.724  0.00  0.00    +0.000 OA
ATOM     36  O   UNL     1     114.439 125.995 137.959  0.00  0.00    +0.000 OA
ATOM     37  C   UNL     1     113.838 124.855 137.341  0.00  0.00    +0.000 C 
ATOM     38  C   UNL     1     113.203 124.510 136.945  0.00  0.00    +0.000 C 
ATOM     39  C   UNL     1     113.803 125.649 137.563  0.00  0.00    +0.000 C 
ATOM     40  C   UNL     1     112.533 124.957 136.771  0.00  0.00    +0.000 C 
ATOM     41  C   UNL     1     113.134 126.097 137.389  0.00  0.00    +0.000 C 
BRANCH  40  43
ATOM     42  O   UNL     1     111.137 124.660 136.694  0.00  0.00    +0.000 OA
ATOM     43  C   UNL     1     111.897 124.612 136.375  0.00  0.00    +0.000 C 
ENDBRANCH  40  43
ENDBRANCH  32  41
ENDBRANCH   9  32
TORSDOF 7
ENDMDL
MODEL 3
REMARK VINA RESULT:      -9.8      1.632      2.781
REMARK  Name = 73813319
REMARK  7 active torsions:
REMARK  status: ('A' for Active; 'I' for Inactive)
REMARK    1  A    between atoms: O_3  and  C_25
REMARK    2  A    between atoms: O_3  and  C_35
REMARK    3  A    between atoms: O_4  and  C_26
REMARK    4  A    between atoms: O_4  and  C_36
REMARK    5  A    between atoms: C_22  and  C_29
REMARK    6  A    between atoms: C_24  and  C_30
REMARK    7  A    between atoms: C_27  and  C_33
REMARK                            x       y       z     vdW  Elec       q    Type
REMARK                         _______ _______ _______ _____ _____    ______ ____
ROOT
ATOM      1  O   UNL     1     111.501 128.922 136.364  0.00  0.00    +0.000 OA
ATOM      2  O   UNL     1     112.687 128.154 134.699  0.00  0.00    +0.000 OA
ATOM      3  O   UNL     1     113.885 130.527 136.078  0.00  0.00    +0.000 OA
ATOM      4  C   UNL     1     111.740 128.455 135.725  0.00  0.00    +0.000 C 
ATOM      5  C   UNL     1     112.448 128.620 135.336  0.00  0.00    +0.000 C 
ATOM      6  C   UNL     1     112.919 129.251 135.585  0.00  0.00    +0.000 C 
ATOM      7  C   UNL     1     112.680 129.716 136.223  0.00  0.00    +0.000 A 
ATOM      8  C   UNL     1     111.971 129.552 136.612  0.00  0.00    +0.000 A 
ATOM      9  C   UNL     1     112.198 130.688 137.541  0.00  0.00    +0.000 A 
ATOM     10  C   UNL     1     111.712 130.030 137.278  0.00  0.00    +0.000 A 
ATOM     11  C   UNL     1     113.178 130.370 136.473  0.00  0.00    +0.000 A 
ATOM     12  C   UNL     1     112.935 130.859 137.137  0.00  0.00    +0.000 A 
ENDROOT
BRANCH   4  14
ATOM     13  O   UNL     1     109.857 125.935 134.730  0.00  0.00    +0.000 OA
ATOM     14  C   UNL     1     111.269 127.825 135.477  0.00  0.00    +0.000 A 
ATOM     15  C   UNL     1     110.867 126.459 135.594  0.00  0.00    +0.000 A 
ATOM     16  C   UNL     1     111.338 127.089 135.843  0.00  0.00    +0.000 A 
ATOM     17  C   UNL     1     110.730 127.931 134.862  0.00  0.00    +0.000 A 
ATOM     18  C   UNL     1     110.327 126.565 134.979  0.00  0.00    +0.000 A 
ATOM     19  C   UNL     1     110.259 127.301 134.613  0.00  0.00    +0.000 A 
BRANCH  15  20
ATOM     20  O   UNL     1     110.935 125.723 135.960  0.00  0.00    +0.000 OA
BRANCH  20  29
ATOM     21  O   UNL     1     110.311 126.036 137.205  0.00  0.00    +0.000 OA
ATOM     22  O   UNL     1     112.061 124.762 138.404  0.00  0.00    +0.000 OA
ATOM     23  O   UNL     1     110.853 125.500 139.251  0.00  0.00    +0.000 OA
ATOM     24  O   UNL     1     112.103 124.873 136.758  0.00  0.00    +0.000 OA
ATOM     25  C   UNL     1     111.478 125.187 138.005  0.00  0.00    +0.000 C 
ATOM     26  C   UNL     1     110.874 125.556 138.428  0.00  0.00    +0.000 C 
ATOM     27  C   UNL     1     111.499 125.242 137.182  0.00  0.00    +0.000 C 
ATOM     28  C   UNL     1     110.290 125.981 138.028  0.00  0.00    +0.000 C 
ATOM     29  C   UNL     1     110.915 125.667 136.782  0.00  0.00    +0.000 C 
BRANCH  28  31
ATOM     30  O   UNL     1     108.906 126.294 138.191  0.00  0.00    +0.000 OA
ATOM     31  C   UNL     1     109.687 126.350 138.453  0.00  0.00    +0.000 C 
ENDBRANCH  28  31
ENDBRANCH  20  29
ENDBRANCH  15  20
ENDBRANCH   4  14
BRANCH   9  32
ATOM     32  O   UNL     1     111.957 131.152 138.180  0.00  0.00    +0.000 OA
BRANCH  32  41
ATOM     33  O   UNL     1     111.135 132.103 137.500  0.00  0.00    +0.000 OA
ATOM     34  O   UNL     1     109.407 131.865 139.255  0.00  0.00    +0.000 OA
ATOM     35  O   UNL     1     109.162 132.895 137.990  0.00  0.00    +0.000 OA
ATOM     36  O   UNL     1     110.804 130.993 139.350  0.00  0.00    +0.000 OA
ATOM     37  C   UNL     1     109.983 131.945 138.670  0.00  0.00    +0.000 C 
ATOM     38  C   UNL     1     109.861 132.459 138.037  0.00  0.00    +0.000 C 
ATOM     39  C   UNL     1     110.682 131.508 138.717  0.00  0.00    +0.000 C 
ATOM     40  C   UNL     1     110.436 132.539 137.453  0.00  0.00    +0.000 C 
ATOM     41  C   UNL     1     111.258 131.588 138.133  0.00  0.00    +0.000 C 
BRANCH  40  43
ATOM     42  O   UNL     1     110.889 133.615 136.629  0.00  0.00    +0.000 OA
ATOM     43  C   UNL     1     110.314 133.054 136.820  0.00  0.00    +0.000 C 
ENDBRANCH  40  43
ENDBRANCH  32  41
ENDBRANCH   9  32
TORSDOF 7
ENDMDL
MODEL 4
REMARK VINA RESULT:      -9.8      1.884      6.506
REMARK  Name = 73813319
REMARK  7 active torsions:
REMARK  status: ('A' for Active; 'I' for Inactive)
REMARK    1  A    between atoms: O_3  and  C_25
REMARK    2  A    between atoms: O_3  and  C_35
REMARK    3  A    between atoms: O_4  and  C_26
REMARK    4  A    between atoms: O_4  and  C_36
REMARK    5  A    between atoms: C_22  and  C_29
REMARK    6  A    between atoms: C_24  and  C_30
REMARK    7  A    between atoms: C_27  and  C_33
REMARK                            x       y       z     vdW  Elec       q    Type
REMARK                         _______ _______ _______ _____ _____    ______ ____
ROOT
ATOM      1  O   UNL     1     112.604 128.623 138.371  0.00  0.00    +0.000 OA
ATOM      2  O   UNL     1     113.776 130.144 139.411  0.00  0.00    +0.000 OA
ATOM      3  O   UNL     1     114.071 127.381 140.528  0.00  0.00    +0.000 OA
ATOM      4  C   UNL     1     112.928 129.355 138.574  0.00  0.00    +0.000 C 
ATOM      5  C   UNL     1     113.453 129.413 139.208  0.00  0.00    +0.000 C 
ATOM      6  C   UNL     1     113.653 128.739 139.640  0.00  0.00    +0.000 C 
ATOM      7  C   UNL     1     113.329 128.008 139.438  0.00  0.00    +0.000 A 
ATOM      8  C   UNL     1     112.805 127.950 138.803  0.00  0.00    +0.000 A 
ATOM      9  C   UNL     1     112.666 126.489 139.029  0.00  0.00    +0.000 A 
ATOM     10  C   UNL     1     112.461 127.194 138.583  0.00  0.00    +0.000 A 
ATOM     11  C   UNL     1     113.546 127.314 139.895  0.00  0.00    +0.000 A 
ATOM     12  C   UNL     1     113.212 126.549 139.689  0.00  0.00    +0.000 A 
ENDROOT
BRANCH   4  14
ATOM     13  O   UNL     1     112.125 132.048 136.844  0.00  0.00    +0.000 OA
ATOM     14  C   UNL     1     112.727 130.028 138.142  0.00  0.00    +0.000 A 
ATOM     15  C   UNL     1     111.907 131.184 137.961  0.00  0.00    +0.000 A 
ATOM     16  C   UNL     1     112.107 130.511 138.394  0.00  0.00    +0.000 A 
ATOM     17  C   UNL     1     113.146 130.219 137.457  0.00  0.00    +0.000 A 
ATOM     18  C   UNL     1     112.326 131.375 137.276  0.00  0.00    +0.000 A 
ATOM     19  C   UNL     1     112.946 130.892 137.024  0.00  0.00    +0.000 A 
BRANCH  15  20
ATOM     20  O   UNL     1     111.287 131.667 138.212  0.00  0.00    +0.000 OA
BRANCH  20  29
ATOM     21  O   UNL     1     110.176 130.857 137.828  0.00  0.00    +0.000 OA
ATOM     22  O   UNL     1     109.089 131.314 140.004  0.00  0.00    +0.000 OA
ATOM     23  O   UNL     1     108.339 130.350 138.894  0.00  0.00    +0.000 OA
ATOM     24  O   UNL     1     110.563 131.973 139.664  0.00  0.00    +0.000 OA
ATOM     25  C   UNL     1     109.451 131.161 139.279  0.00  0.00    +0.000 C 
ATOM     26  C   UNL     1     109.076 130.679 138.724  0.00  0.00    +0.000 C 
ATOM     27  C   UNL     1     110.188 131.491 139.109  0.00  0.00    +0.000 C 
ATOM     28  C   UNL     1     109.439 130.527 137.998  0.00  0.00    +0.000 C 
ATOM     29  C   UNL     1     110.550 131.338 138.383  0.00  0.00    +0.000 C 
BRANCH  28  31
ATOM     30  O   UNL     1     109.027 130.279 136.654  0.00  0.00    +0.000 OA
ATOM     31  C   UNL     1     109.063 130.045 137.444  0.00  0.00    +0.000 C 
ENDBRANCH  28  31
ENDBRANCH  20  29
ENDBRANCH  15  20
ENDBRANCH   4  14
BRANCH   9  32
ATOM     32  O   UNL     1     112.341 125.759 138.825  0.00  0.00    +0.000 OA
BRANCH  32  41
ATOM     33  O   UNL     1     113.408 125.361 137.961  0.00  0.00    +0.000 OA
ATOM     34  O   UNL     1     111.790 124.185 136.504  0.00  0.00    +0.000 OA
ATOM     35  O   UNL     1     113.395 124.180 136.126  0.00  0.00    +0.000 OA
ATOM     36  O   UNL     1     111.262 124.974 137.853  0.00  0.00    +0.000 OA
ATOM     37  C   UNL     1     112.329 124.577 136.989  0.00  0.00    +0.000 C 
ATOM     38  C   UNL     1     113.132 124.575 136.801  0.00  0.00    +0.000 C 
ATOM     39  C   UNL     1     112.065 124.972 137.665  0.00  0.00    +0.000 C 
ATOM     40  C   UNL     1     113.671 124.967 137.286  0.00  0.00    +0.000 C 
ATOM     41  C   UNL     1     112.604 125.364 138.150  0.00  0.00    +0.000 C 
BRANCH  40  43
ATOM     42  O   UNL     1     115.032 124.776 137.676  0.00  0.00    +0.000 OA
ATOM     43  C   UNL     1     114.474 124.964 137.098  0.00  0.00    +0.000 C 
ENDBRANCH  40  43
ENDBRANCH  32  41
ENDBRANCH   9  32
TORSDOF 7
ENDMDL
MODEL 5
REMARK VINA RESULT:      -9.8      8.613     10.625
REMARK  Name = 73813319
REMARK  7 active torsions:
REMARK  status: ('A' for Active; 'I' for Inactive)
REMARK    1  A    between atoms: O_3  and  C_25
REMARK    2  A    between atoms: O_3  and  C_35
REMARK    3  A    between atoms: O_4  and  C_26
REMARK    4  A    between atoms: O_4  and  C_36
REMARK    5  A    between atoms: C_22  and  C_29
REMARK    6  A    between atoms: C_24  and  C_30
REMARK    7  A    between atoms: C_27  and  C_33
REMARK                            x       y       z     vdW  Elec       q    Type
REMARK                         _______ _______ _______ _____ _____    ______ ____
ROOT
ATOM      1  O   UNL     1     106.290 125.726 144.281  0.00  0.00    +0.000 OA
ATOM      2  O   UNL     1     105.247 127.094 145.625  0.00  0.00    +0.000 OA
ATOM      3  O   UNL     1     105.358 128.008 142.775  0.00  0.00    +0.000 OA
ATOM      4  C   UNL     1     105.965 126.048 144.968  0.00  0.00    +0.000 C 
ATOM      5  C   UNL     1     105.572 126.773 144.938  0.00  0.00    +0.000 C 
ATOM      6  C   UNL     1     105.505 127.176 144.222  0.00  0.00    +0.000 C 
ATOM      7  C   UNL     1     105.830 126.854 143.535  0.00  0.00    +0.000 A 
ATOM      8  C   UNL     1     106.222 126.129 143.565  0.00  0.00    +0.000 A 
ATOM      9  C   UNL     1     106.497 126.200 142.107  0.00  0.00    +0.000 A 
ATOM     10  C   UNL     1     106.565 125.784 142.856  0.00  0.00    +0.000 A 
ATOM     11  C   UNL     1     105.752 127.284 142.795  0.00  0.00    +0.000 A 
ATOM     12  C   UNL     1     106.089 126.954 142.076  0.00  0.00    +0.000 A 
ENDROOT
BRANCH   4  14
ATOM     13  O   UNL     1     106.238 124.434 147.833  0.00  0.00    +0.000 OA
ATOM     14  C   UNL     1     106.033 125.644 145.684  0.00  0.00    +0.000 A 
ATOM     15  C   UNL     1     105.617 124.592 146.557  0.00  0.00    +0.000 A 
ATOM     16  C   UNL     1     105.548 124.995 145.840  0.00  0.00    +0.000 A 
ATOM     17  C   UNL     1     106.586 125.890 146.244  0.00  0.00    +0.000 A 
ATOM     18  C   UNL     1     106.170 124.837 147.117  0.00  0.00    +0.000 A 
ATOM     19  C   UNL     1     106.655 125.486 146.961  0.00  0.00    +0.000 A 
BRANCH  15  20
ATOM     20  O   UNL     1     105.132 123.943 146.713  0.00  0.00    +0.000 OA
BRANCH  20  29
ATOM     21  O   UNL     1     103.939 124.553 147.206  0.00  0.00    +0.000 OA
ATOM     22  O   UNL     1     102.597 123.220 145.609  0.00  0.00    +0.000 OA
ATOM     23  O   UNL     1     101.850 124.276 146.635  0.00  0.00    +0.000 OA
ATOM     24  O   UNL     1     104.238 123.054 145.648  0.00  0.00    +0.000 OA
ATOM     25  C   UNL     1     103.044 123.665 146.141  0.00  0.00    +0.000 C 
ATOM     26  C   UNL     1     102.671 124.192 146.654  0.00  0.00    +0.000 C 
ATOM     27  C   UNL     1     103.865 123.581 146.161  0.00  0.00    +0.000 C 
ATOM     28  C   UNL     1     103.118 124.637 147.186  0.00  0.00    +0.000 C 
ATOM     29  C   UNL     1     104.312 124.025 146.693  0.00  0.00    +0.000 C 
BRANCH  28  31
ATOM     30  O   UNL     1     103.073 125.908 147.836  0.00  0.00    +0.000 OA
ATOM     31  C   UNL     1     102.744 125.164 147.698  0.00  0.00    +0.000 C 
ENDBRANCH  28  31
ENDBRANCH  20  29
ENDBRANCH  15  20
ENDBRANCH   4  14
BRANCH   9  32
ATOM     32  O   UNL     1     106.823 125.876 141.422  0.00  0.00    +0.000 OA
BRANCH  32  41
ATOM     33  O   UNL     1     105.698 125.484 140.633  0.00  0.00    +0.000 OA
ATOM     34  O   UNL     1     106.603 123.185 140.484  0.00  0.00    +0.000 OA
ATOM     35  O   UNL     1     105.177 123.559 139.746  0.00  0.00    +0.000 OA
ATOM     36  O   UNL     1     107.427 124.343 141.322  0.00  0.00    +0.000 OA
ATOM     37  C   UNL     1     106.302 123.951 140.534  0.00  0.00    +0.000 C 
ATOM     38  C   UNL     1     105.588 124.139 140.165  0.00  0.00    +0.000 C 
ATOM     39  C   UNL     1     106.714 124.531 140.953  0.00  0.00    +0.000 C 
ATOM     40  C   UNL     1     105.287 124.904 140.215  0.00  0.00    +0.000 C 
ATOM     41  C   UNL     1     106.412 125.296 141.003  0.00  0.00    +0.000 C 
BRANCH  40  43
ATOM     42  O   UNL     1     104.521 125.763 139.368  0.00  0.00    +0.000 OA
ATOM     43  C   UNL     1     104.573 125.092 139.845  0.00  0.00    +0.000 C 
ENDBRANCH  40  43
ENDBRANCH  32  41
ENDBRANCH   9  32
TORSDOF 7
ENDMDL
MODEL 6
REMARK VINA RESULT:      -9.8      1.637      3.257
REMARK  Name = 73813319
REMARK  7 active torsions:
REMARK  status: ('A' for Active; 'I' for Inactive)
REMARK    1  A    between atoms: O_3  and  C_25
REMARK    2  A    between atoms: O_3  and  C_35
REMARK    3  A    between atoms: O_4  and  C_26
REMARK    4  A    between atoms: O_4  and  C_36
REMARK    5  A    between atoms: C_22  and  C_29
REMARK    6  A    between atoms: C_24  and  C_30
REMARK    7  A    between atoms: C_27  and  C_33
REMARK                            x       y       z     vdW  Elec       q    Type
REMARK                         _______ _______ _______ _____ _____    ______ ____
ROOT
ATOM      1  O   UNL     1     112.098 126.637 136.197  0.00  0.00    +0.000 OA
ATOM      2  O   UNL     1     111.937 124.494 136.586  0.00  0.00    +0.000 OA
ATOM      3  O   UNL     1     109.785 125.594 134.816  0.00  0.00    +0.000 OA
ATOM      4  C   UNL     1     112.263 125.882 136.490  0.00  0.00    +0.000 C 
ATOM      5  C   UNL     1     111.773 125.248 136.294  0.00  0.00    +0.000 C 
ATOM      6  C   UNL     1     111.118 125.368 135.806  0.00  0.00    +0.000 C 
ATOM      7  C   UNL     1     110.954 126.122 135.514  0.00  0.00    +0.000 A 
ATOM      8  C   UNL     1     111.444 126.756 135.710  0.00  0.00    +0.000 A 
ATOM      9  C   UNL     1     110.603 127.677 134.903  0.00  0.00    +0.000 A 
ATOM     10  C   UNL     1     111.283 127.546 135.411  0.00  0.00    +0.000 A 
ATOM     11  C   UNL     1     110.270 126.233 135.007  0.00  0.00    +0.000 A 
ATOM     12  C   UNL     1     110.093 127.017 134.699  0.00  0.00    +0.000 A 
ENDROOT
BRANCH   4  14
ATOM     13  O   UNL     1     114.882 125.406 138.439  0.00  0.00    +0.000 OA
ATOM     14  C   UNL     1     112.917 125.763 136.977  0.00  0.00    +0.000 A 
ATOM     15  C   UNL     1     113.534 125.846 138.264  0.00  0.00    +0.000 A 
ATOM     16  C   UNL     1     112.879 125.966 137.776  0.00  0.00    +0.000 A 
ATOM     17  C   UNL     1     113.610 125.442 136.666  0.00  0.00    +0.000 A 
ATOM     18  C   UNL     1     114.227 125.525 137.952  0.00  0.00    +0.000 A 
ATOM     19  C   UNL     1     114.265 125.323 137.153  0.00  0.00    +0.000 A 
BRANCH  15  20
ATOM     20  O   UNL     1     113.497 126.049 139.062  0.00  0.00    +0.000 OA
BRANCH  20  29
ATOM     21  O   UNL     1     113.461 127.474 138.974  0.00  0.00    +0.000 OA
ATOM     22  O   UNL     1     111.604 127.530 140.609  0.00  0.00    +0.000 OA
ATOM     23  O   UNL     1     112.188 128.937 139.975  0.00  0.00    +0.000 OA
ATOM     24  O   UNL     1     112.258 126.086 140.153  0.00  0.00    +0.000 OA
ATOM     25  C   UNL     1     112.223 127.511 140.064  0.00  0.00    +0.000 C 
ATOM     26  C   UNL     1     112.515 128.215 139.747  0.00  0.00    +0.000 C 
ATOM     27  C   UNL     1     112.550 126.789 139.836  0.00  0.00    +0.000 C 
ATOM     28  C   UNL     1     113.134 128.196 139.202  0.00  0.00    +0.000 C 
ATOM     29  C   UNL     1     113.169 126.770 139.291  0.00  0.00    +0.000 C 
BRANCH  28  31
ATOM     30  O   UNL     1     113.377 129.038 138.073  0.00  0.00    +0.000 OA
ATOM     31  C   UNL     1     113.426 128.900 138.885  0.00  0.00    +0.000 C 
ENDBRANCH  28  31
ENDBRANCH  20  29
ENDBRANCH  15  20
ENDBRANCH   4  14
BRANCH   9  32
ATOM     32  O   UNL     1     110.441 128.432 134.612  0.00  0.00    +0.000 OA
BRANCH  32  41
ATOM     33  O   UNL     1     109.462 128.910 135.537  0.00  0.00    +0.000 OA
ATOM     34  O   UNL     1     110.751 131.005 135.817  0.00  0.00    +0.000 OA
ATOM     35  O   UNL     1     109.343 130.784 136.648  0.00  0.00    +0.000 OA
ATOM     36  O   UNL     1     111.300 129.828 134.798  0.00  0.00    +0.000 OA
ATOM     37  C   UNL     1     110.321 130.306 135.723  0.00  0.00    +0.000 C 
ATOM     38  C   UNL     1     109.617 130.196 136.139  0.00  0.00    +0.000 C 
ATOM     39  C   UNL     1     110.596 129.718 135.214  0.00  0.00    +0.000 C 
ATOM     40  C   UNL     1     109.188 129.499 136.046  0.00  0.00    +0.000 C 
ATOM     41  C   UNL     1     110.167 129.020 135.121  0.00  0.00    +0.000 C 
BRANCH  40  43
ATOM     42  O   UNL     1     107.782 129.246 136.051  0.00  0.00    +0.000 OA
ATOM     43  C   UNL     1     108.484 129.388 136.461  0.00  0.00    +0.000 C 
ENDBRANCH  40  43
ENDBRANCH  32  41
ENDBRANCH   9  32
TORSDOF 7
ENDMDL
MODEL 7
REMARK VINA RESULT:      -9.8      3.190      5.375
REMARK  Name = 73813319
REMARK  7 active torsions:
REMARK  status: ('A' for Active; 'I' for Inactive)
REMARK    1  A    between atoms: O_3  and  C_25
REMARK    2  A    between atoms: O_3  and  C_35
REMARK    3  A    between atoms: O_4  and  C_26
REMARK    4  A    between atoms: O_4  and  C_36
REMARK    5  A    between atoms: C_22  and  C_29
REMARK    6  A    between atoms: C_24  and  C_30
REMARK    7  A    between atoms: C_27  and  C_33
REMARK                            x       y       z     vdW  Elec       q    Type
REMARK                         _______ _______ _______ _____ _____    ______ ____
ROOT
ATOM      1  O   UNL     1     111.985 127.328 139.131  0.00  0.00    +0.000 OA
ATOM      2  O   UNL     1     113.539 128.860 139.073  0.00  0.00    +0.000 OA
ATOM      3  O   UNL     1     112.640 128.117 141.831  0.00  0.00    +0.000 OA
ATOM      4  C   UNL     1     112.543 127.864 138.840  0.00  0.00    +0.000 C 
ATOM      5  C   UNL     1     112.982 128.326 139.363  0.00  0.00    +0.000 C 
ATOM      6  C   UNL     1     112.865 128.253 140.177  0.00  0.00    +0.000 C 
ATOM      7  C   UNL     1     112.308 127.718 140.467  0.00  0.00    +0.000 A 
ATOM      8  C   UNL     1     111.868 127.256 139.944  0.00  0.00    +0.000 A 
ATOM      9  C   UNL     1     111.159 126.615 141.080  0.00  0.00    +0.000 A 
ATOM     10  C   UNL     1     111.285 126.695 140.234  0.00  0.00    +0.000 A 
ATOM     11  C   UNL     1     112.196 127.651 141.316  0.00  0.00    +0.000 A 
ATOM     12  C   UNL     1     111.616 127.096 141.625  0.00  0.00    +0.000 A 
ENDROOT
BRANCH   4  14
ATOM     13  O   UNL     1     113.008 128.154 135.587  0.00  0.00    +0.000 OA
ATOM     14  C   UNL     1     112.659 127.936 138.027  0.00  0.00    +0.000 A 
ATOM     15  C   UNL     1     113.164 127.412 136.797  0.00  0.00    +0.000 A 
ATOM     16  C   UNL     1     113.048 127.339 137.610  0.00  0.00    +0.000 A 
ATOM     17  C   UNL     1     112.387 128.606 137.630  0.00  0.00    +0.000 A 
ATOM     18  C   UNL     1     112.892 128.082 136.400  0.00  0.00    +0.000 A 
ATOM     19  C   UNL     1     112.503 128.679 136.816  0.00  0.00    +0.000 A 
BRANCH  15  20
ATOM     20  O   UNL     1     113.552 126.815 136.380  0.00  0.00    +0.000 OA
BRANCH  20  29
ATOM     21  O   UNL     1     112.527 125.824 136.304  0.00  0.00    +0.000 OA
ATOM     22  O   UNL     1     114.147 124.092 137.013  0.00  0.00    +0.000 OA
ATOM     23  O   UNL     1     112.581 123.677 136.700  0.00  0.00    +0.000 OA
ATOM     24  O   UNL     1     114.633 125.661 136.853  0.00  0.00    +0.000 OA
ATOM     25  C   UNL     1     113.607 124.669 136.776  0.00  0.00    +0.000 C 
ATOM     26  C   UNL     1     112.824 124.462 136.620  0.00  0.00    +0.000 C 
ATOM     27  C   UNL     1     113.850 125.454 136.697  0.00  0.00    +0.000 C 
ATOM     28  C   UNL     1     112.284 125.039 136.384  0.00  0.00    +0.000 C 
ATOM     29  C   UNL     1     113.310 126.031 136.460  0.00  0.00    +0.000 C 
BRANCH  28  31
ATOM     30  O   UNL     1     111.090 125.205 135.618  0.00  0.00    +0.000 OA
ATOM     31  C   UNL     1     111.501 124.831 136.227  0.00  0.00    +0.000 C 
ENDBRANCH  28  31
ENDBRANCH  20  29
ENDBRANCH  15  20
ENDBRANCH   4  14
BRANCH   9  32
ATOM     32  O   UNL     1     110.601 126.079 141.368  0.00  0.00    +0.000 OA
BRANCH  32  41
ATOM     33  O   UNL     1     109.531 126.968 141.695  0.00  0.00    +0.000 OA
ATOM     34  O   UNL     1     107.925 125.439 140.596  0.00  0.00    +0.000 OA
ATOM     35  O   UNL     1     107.391 126.837 141.289  0.00  0.00    +0.000 OA
ATOM     36  O   UNL     1     109.530 125.060 140.635  0.00  0.00    +0.000 OA
ATOM     37  C   UNL     1     108.460 125.948 140.962  0.00  0.00    +0.000 C 
ATOM     38  C   UNL     1     108.194 126.648 141.309  0.00  0.00    +0.000 C 
ATOM     39  C   UNL     1     109.264 125.759 140.982  0.00  0.00    +0.000 C 
ATOM     40  C   UNL     1     108.728 127.157 141.675  0.00  0.00    +0.000 C 
ATOM     41  C   UNL     1     109.798 126.268 141.348  0.00  0.00    +0.000 C 
BRANCH  40  43
ATOM     42  O   UNL     1     108.638 128.018 142.812  0.00  0.00    +0.000 OA
ATOM     43  C   UNL     1     108.462 127.856 142.022  0.00  0.00    +0.000 C 
ENDBRANCH  40  43
ENDBRANCH  32  41
ENDBRANCH   9  32
TORSDOF 7
ENDMDL
MODEL 8
REMARK VINA RESULT:      -9.8      8.482     10.641
REMARK  Name = 73813319
REMARK  7 active torsions:
REMARK  status: ('A' for Active; 'I' for Inactive)
REMARK    1  A    between atoms: O_3  and  C_25
REMARK    2  A    between atoms: O_3  and  C_35
REMARK    3  A    between atoms: O_4  and  C_26
REMARK    4  A    between atoms: O_4  and  C_36
REMARK    5  A    between atoms: C_22  and  C_29
REMARK    6  A    between atoms: C_24  and  C_30
REMARK    7  A    between atoms: C_27  and  C_33
REMARK                            x       y       z     vdW  Elec       q    Type
REMARK                         _______ _______ _______ _____ _____    ______ ____
ROOT
ATOM      1  O   UNL     1     105.571 126.067 144.476  0.00  0.00    +0.000 OA
ATOM      2  O   UNL     1     106.765 127.866 144.804  0.00  0.00    +0.000 OA
ATOM      3  O   UNL     1     106.588 126.051 147.180  0.00  0.00    +0.000 OA
ATOM      4  C   UNL     1     105.948 126.789 144.340  0.00  0.00    +0.000 C 
ATOM      5  C   UNL     1     106.388 127.145 144.940  0.00  0.00    +0.000 C 
ATOM      6  C   UNL     1     106.450 126.780 145.677  0.00  0.00    +0.000 C 
ATOM      7  C   UNL     1     106.073 126.059 145.814  0.00  0.00    +0.000 A 
ATOM      8  C   UNL     1     105.634 125.703 145.213  0.00  0.00    +0.000 A 
ATOM      9  C   UNL     1     105.298 124.566 146.109  0.00  0.00    +0.000 A 
ATOM     10  C   UNL     1     105.236 124.951 145.343  0.00  0.00    +0.000 A 
ATOM     11  C   UNL     1     106.146 125.689 146.586  0.00  0.00    +0.000 A 
ATOM     12  C   UNL     1     105.756 124.937 146.734  0.00  0.00    +0.000 A 
ENDROOT
BRANCH   4  14
ATOM     13  O   UNL     1     105.695 128.248 141.391  0.00  0.00    +0.000 OA
ATOM     14  C   UNL     1     105.885 127.154 143.603  0.00  0.00    +0.000 A 
ATOM     15  C   UNL     1     106.310 127.282 142.244  0.00  0.00    +0.000 A 
ATOM     16  C   UNL     1     106.373 126.917 142.981  0.00  0.00    +0.000 A 
ATOM     17  C   UNL     1     105.333 127.756 143.487  0.00  0.00    +0.000 A 
ATOM     18  C   UNL     1     105.758 127.884 142.128  0.00  0.00    +0.000 A 
ATOM     19  C   UNL     1     105.270 128.121 142.750  0.00  0.00    +0.000 A 
BRANCH  15  20
ATOM     20  O   UNL     1     106.798 127.045 141.623  0.00  0.00    +0.000 OA
BRANCH  20  29
ATOM     21  O   UNL     1     106.096 125.941 141.050  0.00  0.00    +0.000 OA
ATOM     22  O   UNL     1     108.138 124.552 141.221  0.00  0.00    +0.000 OA
ATOM     23  O   UNL     1     106.755 123.911 140.591  0.00  0.00    +0.000 OA
ATOM     24  O   UNL     1     108.160 126.120 141.737  0.00  0.00    +0.000 OA
ATOM     25  C   UNL     1     107.457 125.015 141.164  0.00  0.00    +0.000 C 
ATOM     26  C   UNL     1     106.766 124.694 140.849  0.00  0.00    +0.000 C 
ATOM     27  C   UNL     1     107.468 125.799 141.422  0.00  0.00    +0.000 C 
ATOM     28  C   UNL     1     106.085 125.157 140.792  0.00  0.00    +0.000 C 
ATOM     29  C   UNL     1     106.788 126.262 141.365  0.00  0.00    +0.000 C 
BRANCH  28  31
ATOM     30  O   UNL     1     104.950 125.267 139.932  0.00  0.00    +0.000 OA
ATOM     31  C   UNL     1     105.394 124.835 140.477  0.00  0.00    +0.000 C 
ENDBRANCH  28  31
ENDBRANCH  20  29
ENDBRANCH  15  20
ENDBRANCH   4  14
BRANCH   9  32
ATOM     32  O   UNL     1     104.920 123.845 146.243  0.00  0.00    +0.000 OA
BRANCH  32  41
ATOM     33  O   UNL     1     103.700 124.305 146.827  0.00  0.00    +0.000 OA
ATOM     34  O   UNL     1     102.425 122.739 145.396  0.00  0.00    +0.000 OA
ATOM     35  O   UNL     1     101.631 123.721 146.457  0.00  0.00    +0.000 OA
ATOM     36  O   UNL     1     104.070 122.802 145.289  0.00  0.00    +0.000 OA
ATOM     37  C   UNL     1     102.850 123.261 145.873  0.00  0.00    +0.000 C 
ATOM     38  C   UNL     1     102.453 123.752 146.404  0.00  0.00    +0.000 C 
ATOM     39  C   UNL     1     103.673 123.293 145.819  0.00  0.00    +0.000 C 
ATOM     40  C   UNL     1     102.878 124.274 146.880  0.00  0.00    +0.000 C 
ATOM     41  C   UNL     1     104.098 123.814 146.296  0.00  0.00    +0.000 C 
BRANCH  40  43
ATOM     42  O   UNL     1     102.766 124.856 148.180  0.00  0.00    +0.000 OA
ATOM     43  C   UNL     1     102.481 124.765 147.411  0.00  0.00    +0.000 C 
ENDBRANCH  40  43
ENDBRANCH  32  41
ENDBRANCH   9  32
TORSDOF 7
ENDMDL
MODEL 9
REMARK VINA RESULT:      -9.8      1.251      5.331
REMARK  Name = 73813319
REMARK  7 active torsions:
REMARK  status: ('A' for Active; 'I' for Inactive)
REMARK    1  A    between atoms: O_3  and  C_25
REMARK    2  A    between atoms: O_3  and  C_35
REMARK    3  A    between atoms: O_4  and  C_26
REMARK    4  A    between atoms: O_4  and  C_36
REMARK    5  A    between atoms: C_22  and  C_29
REMARK    6  A    between atoms: C_24  and  C_30
REMARK    7  A    between atoms: C_27  and  C_33
REMARK                            x       y       z     vdW  Elec       q    Type
REMARK                         _______ _______ _______ _____ _____    ______ ____
ROOT
ATOM      1  O   UNL     1     110.061 130.026 136.752  0.00  0.00    +0.000 OA
ATOM      2  O   UNL     1     108.125 131.018 136.931  0.00  0.00    +0.000 OA
ATOM      3  O   UNL     1     108.023 128.349 135.576  0.00  0.00    +0.000 OA
ATOM      4  C   UNL     1     109.487 130.589 136.940  0.00  0.00    +0.000 C 
ATOM      5  C   UNL     1     108.698 130.455 136.743  0.00  0.00    +0.000 C 
ATOM      6  C   UNL     1     108.481 129.759 136.358  0.00  0.00    +0.000 C 
ATOM      7  C   UNL     1     109.054 129.196 136.170  0.00  0.00    +0.000 A 
ATOM      8  C   UNL     1     109.844 129.330 136.367  0.00  0.00    +0.000 A 
ATOM      9  C   UNL     1     110.230 128.023 135.775  0.00  0.00    +0.000 A 
ATOM     10  C   UNL     1     110.450 128.750 136.176  0.00  0.00    +0.000 A 
ATOM     11  C   UNL     1     108.815 128.474 135.769  0.00  0.00    +0.000 A 
ATOM     12  C   UNL     1     109.408 127.884 135.570  0.00  0.00    +0.000 A 
ENDROOT
BRANCH   4  14
ATOM     13  O   UNL     1     110.358 133.376 138.478  0.00  0.00    +0.000 OA
ATOM     14  C   UNL     1     109.705 131.286 137.325  0.00  0.00    +0.000 A 
ATOM     15  C   UNL     1     109.946 132.009 138.533  0.00  0.00    +0.000 A 
ATOM     16  C   UNL     1     109.728 131.312 138.149  0.00  0.00    +0.000 A 
ATOM     17  C   UNL     1     109.900 131.956 136.884  0.00  0.00    +0.000 A 
ATOM     18  C   UNL     1     110.140 132.679 138.093  0.00  0.00    +0.000 A 
ATOM     19  C   UNL     1     110.117 132.653 137.269  0.00  0.00    +0.000 A 
BRANCH  15  20
ATOM     20  O   UNL     1     109.969 132.036 139.357  0.00  0.00    +0.000 OA
BRANCH  20  29
ATOM     21  O   UNL     1     111.069 131.156 139.589  0.00  0.00    +0.000 OA
ATOM     22  O   UNL     1     109.820 130.080 141.436  0.00  0.00    +0.000 OA
ATOM     23  O   UNL     1     111.338 129.558 141.052  0.00  0.00    +0.000 OA
ATOM     24  O   UNL     1     109.135 131.319 140.588  0.00  0.00    +0.000 OA
ATOM     25  C   UNL     1     110.236 130.439 140.820  0.00  0.00    +0.000 C 
ATOM     26  C   UNL     1     110.995 130.177 140.629  0.00  0.00    +0.000 C 
ATOM     27  C   UNL     1     109.894 131.058 140.397  0.00  0.00    +0.000 C 
ATOM     28  C   UNL     1     111.412 130.536 140.013  0.00  0.00    +0.000 C 
ATOM     29  C   UNL     1     110.310 131.417 139.781  0.00  0.00    +0.000 C 
BRANCH  28  31
ATOM     30  O   UNL     1     112.763 130.821 139.648  0.00  0.00    +0.000 OA
ATOM     31  C   UNL     1     112.170 130.274 139.822  0.00  0.00    +0.000 C 
ENDBRANCH  28  31
ENDBRANCH  20  29
ENDBRANCH  15  20
ENDBRANCH   4  14
BRANCH   9  32
ATOM     32  O   UNL     1     110.805 127.462 135.588  0.00  0.00    +0.000 OA
BRANCH  32  41
ATOM     33  O   UNL     1     110.935 126.861 136.879  0.00  0.00    +0.000 OA
ATOM     34  O   UNL     1     111.074 124.626 135.825  0.00  0.00    +0.000 OA
ATOM     35  O   UNL     1     111.158 124.772 137.465  0.00  0.00    +0.000 OA
ATOM     36  O   UNL     1     110.898 125.972 134.886  0.00  0.00    +0.000 OA
ATOM     37  C   UNL     1     111.028 125.371 136.176  0.00  0.00    +0.000 C 
ATOM     38  C   UNL     1     111.069 125.444 136.997  0.00  0.00    +0.000 C 
ATOM     39  C   UNL     1     110.939 126.045 135.706  0.00  0.00    +0.000 C 
ATOM     40  C   UNL     1     111.023 126.189 137.347  0.00  0.00    +0.000 C 
ATOM     41  C   UNL     1     110.893 126.789 136.057  0.00  0.00    +0.000 C 
BRANCH  40  43
ATOM     42  O   UNL     1     111.603 126.788 138.508  0.00  0.00    +0.000 OA
ATOM     43  C   UNL     1     111.065 126.262 138.168  0.00  0.00    +0.000 C 
ENDBRANCH  40  43
ENDBRANCH  32  41
ENDBRANCH   9  32
TORSDOF 7
ENDMDL
MODEL 10
REMARK VINA RESULT:      -9.7      1.671      5.438
REMARK  Name = 73813319
REMARK  7 active torsions:
REMARK  status: ('A' for Active; 'I' for Inactive)
REMARK    1  A    between atoms: O_3  and  C_25
REMARK    2  A    between atoms: O_3  and  C_35
REMARK    3  A    between atoms: O_4  and  C_26
REMARK    4  A    between atoms: O_4  and  C_36
REMARK    5  A    between atoms: C_22  and  C_29
REMARK    6  A    between atoms: C_24  and  C_30
REMARK    7  A    between atoms: C_27  and  C_33
REMARK                            x       y       z     vdW  Elec       q    Type
REMARK                         _______ _______ _______ _____ _____    ______ ____
ROOT
ATOM      1  O   UNL     1     111.027 128.271 136.998  0.00  0.00    +0.000 OA
ATOM      2  O   UNL     1     111.418 129.646 135.347  0.00  0.00    +0.000 OA
ATOM      3  O   UNL     1     113.858 128.279 136.421  0.00  0.00    +0.000 OA
ATOM      4  C   UNL     1     110.903 128.821 136.394  0.00  0.00    +0.000 C 
ATOM      5  C   UNL     1     111.542 129.097 135.950  0.00  0.00    +0.000 C 
ATOM      6  C   UNL     1     112.304 128.823 136.110  0.00  0.00    +0.000 C 
ATOM      7  C   UNL     1     112.427 128.274 136.713  0.00  0.00    +0.000 A 
ATOM      8  C   UNL     1     111.789 127.998 137.157  0.00  0.00    +0.000 A 
ATOM      9  C   UNL     1     112.696 127.138 137.958  0.00  0.00    +0.000 A 
ATOM     10  C   UNL     1     111.904 127.426 137.788  0.00  0.00    +0.000 A 
ATOM     11  C   UNL     1     113.225 127.998 136.870  0.00  0.00    +0.000 A 
ATOM     12  C   UNL     1     113.361 127.425 137.497  0.00  0.00    +0.000 A 
ENDROOT
BRANCH   4  14
ATOM     13  O   UNL     1     107.855 129.910 135.756  0.00  0.00    +0.000 OA
ATOM     14  C   UNL     1     110.141 129.093 136.235  0.00  0.00    +0.000 A 
ATOM     15  C   UNL     1     108.979 129.824 136.633  0.00  0.00    +0.000 A 
ATOM     16  C   UNL     1     109.742 129.552 136.792  0.00  0.00    +0.000 A 
ATOM     17  C   UNL     1     109.779 128.907 135.518  0.00  0.00    +0.000 A 
ATOM     18  C   UNL     1     108.617 129.638 135.915  0.00  0.00    +0.000 A 
ATOM     19  C   UNL     1     109.016 129.179 135.358  0.00  0.00    +0.000 A 
BRANCH  15  20
ATOM     20  O   UNL     1     108.580 130.282 137.190  0.00  0.00    +0.000 OA
BRANCH  20  29
ATOM     21  O   UNL     1     109.295 131.512 137.064  0.00  0.00    +0.000 OA
ATOM     22  O   UNL     1     109.400 131.705 139.529  0.00  0.00    +0.000 OA
ATOM     23  O   UNL     1     110.081 132.871 138.580  0.00  0.00    +0.000 OA
ATOM     24  O   UNL     1     108.650 130.410 138.834  0.00  0.00    +0.000 OA
ATOM     25  C   UNL     1     109.365 131.641 138.707  0.00  0.00    +0.000 C 
ATOM     26  C   UNL     1     109.705 132.224 138.233  0.00  0.00    +0.000 C 
ATOM     27  C   UNL     1     108.990 130.993 138.360  0.00  0.00    +0.000 C 
ATOM     28  C   UNL     1     109.670 132.160 137.411  0.00  0.00    +0.000 C 
ATOM     29  C   UNL     1     108.955 130.929 137.538  0.00  0.00    +0.000 C 
BRANCH  28  31
ATOM     30  O   UNL     1     109.690 132.911 136.196  0.00  0.00    +0.000 OA
ATOM     31  C   UNL     1     110.011 132.743 136.938  0.00  0.00    +0.000 C 
ENDBRANCH  28  31
ENDBRANCH  20  29
ENDBRANCH  15  20
ENDBRANCH   4  14
BRANCH   9  32
ATOM     32  O   UNL     1     112.817 126.588 138.562  0.00  0.00    +0.000 OA
BRANCH  32  41
ATOM     33  O   UNL     1     113.266 127.446 139.613  0.00  0.00    +0.000 OA
ATOM     34  O   UNL     1     111.731 126.315 141.192  0.00  0.00    +0.000 OA
ATOM     35  O   UNL     1     112.692 127.548 141.716  0.00  0.00    +0.000 OA
ATOM     36  O   UNL     1     111.793 125.835 139.614  0.00  0.00    +0.000 OA
ATOM     37  C   UNL     1     112.243 126.692 140.666  0.00  0.00    +0.000 C 
ATOM     38  C   UNL     1     112.724 127.309 140.928  0.00  0.00    +0.000 C 
ATOM     39  C   UNL     1     112.274 126.452 139.876  0.00  0.00    +0.000 C 
ATOM     40  C   UNL     1     113.235 127.685 140.402  0.00  0.00    +0.000 C 
ATOM     41  C   UNL     1     112.785 126.828 139.351  0.00  0.00    +0.000 C 
BRANCH  40  43
ATOM     42  O   UNL     1     114.537 128.225 140.636  0.00  0.00    +0.000 OA
ATOM     43  C   UNL     1     113.716 128.302 140.664  0.00  0.00    +0.000 C 
ENDBRANCH  40  43
ENDBRANCH  32  41
ENDBRANCH   9  32
TORSDOF 7
ENDMDL
