MODEL 1
REMARK VINA RESULT:      -8.9      0.000      0.000
REMARK  Name = 44259495
REMARK  8 active torsions:
REMARK  status: ('A' for Active; 'I' for Inactive)
REMARK    1  A    between atoms: O_2  and  C_19
REMARK    2  A    between atoms: O_2  and  C_21
REMARK    3  A    between atoms: O_6  and  C_20
REMARK    4  A    between atoms: O_6  and  C_26
REMARK    5  A    between atoms: O_11  and  C_35
REMARK    6  A    between atoms: O_12  and  C_36
REMARK    7  A    between atoms: C_17  and  C_20
REMARK    8  A    between atoms: C_22  and  C_25
REMARK                            x       y       z     vdW  Elec       q    Type
REMARK                         _______ _______ _______ _____ _____    ______ ____
ROOT
ATOM      1  O   UNL     1     112.986 127.593 135.829  0.00  0.00    +0.000 OA
ATOM      2  O   UNL     1     112.567 128.827 137.934  0.00  0.00    +0.000 OA
ATOM      3  O   UNL     1     113.331 129.954 137.459  0.00  0.00    +0.000 OA
ATOM      4  O   UNL     1     114.541 129.832 134.804  0.00  0.00    +0.000 OA
ATOM      5  C   UNL     1     112.395 127.659 137.129  0.00  0.00    +0.000 A 
ATOM      6  C   UNL     1     112.535 127.247 136.427  0.00  0.00    +0.000 A 
ATOM      7  C   UNL     1     112.707 128.415 137.232  0.00  0.00    +0.000 A 
ATOM      8  C   UNL     1     113.157 128.762 136.634  0.00  0.00    +0.000 A 
ATOM      9  C   UNL     1     113.296 128.351 135.933  0.00  0.00    +0.000 A 
ATOM     10  C   UNL     1     113.476 129.551 136.754  0.00  0.00    +0.000 A 
ATOM     11  C   UNL     1     113.764 128.700 135.302  0.00  0.00    +0.000 A 
ATOM     12  C   UNL     1     113.946 129.917 136.135  0.00  0.00    +0.000 A 
ATOM     13  C   UNL     1     114.091 129.488 135.404  0.00  0.00    +0.000 A 
ENDROOT
BRANCH   6  15
ATOM     14  O   UNL     1     111.291 124.218 136.017  0.00  0.00    +0.000 OA
ATOM     15  C   UNL     1     112.224 126.491 136.324  0.00  0.00    +0.000 A 
ATOM     16  C   UNL     1     111.547 126.381 135.865  0.00  0.00    +0.000 A 
ATOM     17  C   UNL     1     112.589 125.842 136.682  0.00  0.00    +0.000 A 
ATOM     18  C   UNL     1     112.278 125.085 136.579  0.00  0.00    +0.000 A 
ATOM     19  C   UNL     1     111.237 125.623 135.763  0.00  0.00    +0.000 A 
ATOM     20  C   UNL     1     111.602 124.976 136.119  0.00  0.00    +0.000 A 
BRANCH  18  21
ATOM     21  O   UNL     1     112.644 124.437 136.936  0.00  0.00    +0.000 OA
ATOM     22  C   UNL     1     113.457 124.326 136.855  0.00  0.00    +0.000 C 
ENDBRANCH  18  21
BRANCH  19  23
ATOM     23  O   UNL     1     110.560 125.514 135.303  0.00  0.00    +0.000 OA
ATOM     24  C   UNL     1     110.452 125.958 134.616  0.00  0.00    +0.000 C 
ENDBRANCH  19  23
ENDBRANCH   6  15
BRANCH   5  25
ATOM     25  O   UNL     1     111.945 127.313 137.728  0.00  0.00    +0.000 OA
BRANCH  25  34
ATOM     26  O   UNL     1     110.785 128.110 137.483  0.00  0.00    +0.000 OA
ATOM     27  O   UNL     1     109.234 128.831 138.840  0.00  0.00    +0.000 OA
ATOM     28  O   UNL     1     110.199 127.995 139.885  0.00  0.00    +0.000 OA
ATOM     29  O   UNL     1     111.554 127.236 139.329  0.00  0.00    +0.000 OA
ATOM     30  C   UNL     1     109.912 128.451 138.561  0.00  0.00    +0.000 C 
ATOM     31  C   UNL     1     110.394 128.034 139.084  0.00  0.00    +0.000 C 
ATOM     32  C   UNL     1     110.108 128.490 137.761  0.00  0.00    +0.000 C 
ATOM     33  C   UNL     1     111.072 127.654 138.806  0.00  0.00    +0.000 C 
ATOM     34  C   UNL     1     111.268 127.692 138.005  0.00  0.00    +0.000 C 
BRANCH  32  35
ATOM     35  C   UNL     1     109.624 128.908 137.239  0.00  0.00    +0.000 C 
BRANCH  35  36
ATOM     36  O   UNL     1     109.405 128.571 136.519  0.00  0.00    +0.000 OA
BRANCH  36  38
ATOM     37  O   UNL     1     108.168 128.994 135.942  0.00  0.00    +0.000 OA
ATOM     38  C   UNL     1     108.993 129.019 135.962  0.00  0.00    +0.000 C 
ATOM     39  C   UNL     1     109.403 129.491 135.425  0.00  0.00    +0.000 C 
ENDBRANCH  36  38
ENDBRANCH  35  36
ENDBRANCH  32  35
ENDBRANCH  25  34
ENDBRANCH   5  25
TORSDOF 8
ENDMDL
MODEL 2
REMARK VINA RESULT:      -8.7      1.391      4.063
REMARK  Name = 44259495
REMARK  8 active torsions:
REMARK  status: ('A' for Active; 'I' for Inactive)
REMARK    1  A    between atoms: O_2  and  C_19
REMARK    2  A    between atoms: O_2  and  C_21
REMARK    3  A    between atoms: O_6  and  C_20
REMARK    4  A    between atoms: O_6  and  C_26
REMARK    5  A    between atoms: O_11  and  C_35
REMARK    6  A    between atoms: O_12  and  C_36
REMARK    7  A    between atoms: C_17  and  C_20
REMARK    8  A    between atoms: C_22  and  C_25
REMARK                            x       y       z     vdW  Elec       q    Type
REMARK                         _______ _______ _______ _____ _____    ______ ____
ROOT
ATOM      1  O   UNL     1     113.562 126.715 136.846  0.00  0.00    +0.000 OA
ATOM      2  O   UNL     1     111.618 125.424 136.017  0.00  0.00    +0.000 OA
ATOM      3  O   UNL     1     112.281 124.179 136.318  0.00  0.00    +0.000 OA
ATOM      4  O   UNL     1     114.960 124.240 137.481  0.00  0.00    +0.000 OA
ATOM      5  C   UNL     1     112.251 126.679 136.278  0.00  0.00    +0.000 A 
ATOM      6  C   UNL     1     112.899 127.109 136.554  0.00  0.00    +0.000 A 
ATOM      7  C   UNL     1     112.267 125.855 136.294  0.00  0.00    +0.000 A 
ATOM      8  C   UNL     1     112.930 125.460 136.586  0.00  0.00    +0.000 A 
ATOM      9  C   UNL     1     113.576 125.890 136.862  0.00  0.00    +0.000 A 
ATOM     10  C   UNL     1     112.933 124.601 136.597  0.00  0.00    +0.000 A 
ATOM     11  C   UNL     1     114.273 125.491 137.169  0.00  0.00    +0.000 A 
ATOM     12  C   UNL     1     113.620 124.183 136.900  0.00  0.00    +0.000 A 
ATOM     13  C   UNL     1     114.295 124.632 137.188  0.00  0.00    +0.000 A 
ENDROOT
BRANCH   6  15
ATOM     14  O   UNL     1     112.836 130.408 136.487  0.00  0.00    +0.000 OA
ATOM     15  C   UNL     1     112.883 127.934 136.538  0.00  0.00    +0.000 A 
ATOM     16  C   UNL     1     112.732 128.358 137.230  0.00  0.00    +0.000 A 
ATOM     17  C   UNL     1     113.018 128.335 135.829  0.00  0.00    +0.000 A 
ATOM     18  C   UNL     1     113.002 129.160 135.813  0.00  0.00    +0.000 A 
ATOM     19  C   UNL     1     112.717 129.183 137.213  0.00  0.00    +0.000 A 
ATOM     20  C   UNL     1     112.851 129.583 136.505  0.00  0.00    +0.000 A 
BRANCH  18  21
ATOM     21  O   UNL     1     113.136 129.561 135.104  0.00  0.00    +0.000 OA
ATOM     22  C   UNL     1     113.819 129.408 134.667  0.00  0.00    +0.000 C 
ENDBRANCH  18  21
BRANCH  19  23
ATOM     23  O   UNL     1     112.566 129.606 137.904  0.00  0.00    +0.000 OA
ATOM     24  C   UNL     1     112.881 129.349 138.623  0.00  0.00    +0.000 C 
ENDBRANCH  19  23
ENDBRANCH   6  15
BRANCH   5  25
ATOM     25  O   UNL     1     111.588 127.074 135.985  0.00  0.00    +0.000 OA
BRANCH  25  34
ATOM     26  O   UNL     1     110.787 126.760 137.127  0.00  0.00    +0.000 OA
ATOM     27  O   UNL     1     108.625 126.551 137.341  0.00  0.00    +0.000 OA
ATOM     28  O   UNL     1     108.745 126.917 135.737  0.00  0.00    +0.000 OA
ATOM     29  O   UNL     1     110.226 127.179 135.059  0.00  0.00    +0.000 OA
ATOM     30  C   UNL     1     109.366 126.681 137.002  0.00  0.00    +0.000 C 
ATOM     31  C   UNL     1     109.426 126.865 136.200  0.00  0.00    +0.000 C 
ATOM     32  C   UNL     1     110.047 126.629 137.465  0.00  0.00    +0.000 C 
ATOM     33  C   UNL     1     110.167 126.996 135.861  0.00  0.00    +0.000 C 
ATOM     34  C   UNL     1     110.848 126.943 136.324  0.00  0.00    +0.000 C 
BRANCH  32  35
ATOM     35  C   UNL     1     109.987 126.446 138.268  0.00  0.00    +0.000 C 
BRANCH  35  36
ATOM     36  O   UNL     1     110.481 126.815 138.814  0.00  0.00    +0.000 OA
BRANCH  36  38
ATOM     37  O   UNL     1     110.832 125.739 139.686  0.00  0.00    +0.000 OA
ATOM     38  C   UNL     1     110.556 126.509 139.577  0.00  0.00    +0.000 C 
ATOM     39  C   UNL     1     110.355 126.971 140.229  0.00  0.00    +0.000 C 
ENDBRANCH  36  38
ENDBRANCH  35  36
ENDBRANCH  32  35
ENDBRANCH  25  34
ENDBRANCH   5  25
TORSDOF 8
ENDMDL
MODEL 3
REMARK VINA RESULT:      -8.5      1.543      3.474
REMARK  Name = 44259495
REMARK  8 active torsions:
REMARK  status: ('A' for Active; 'I' for Inactive)
REMARK    1  A    between atoms: O_2  and  C_19
REMARK    2  A    between atoms: O_2  and  C_21
REMARK    3  A    between atoms: O_6  and  C_20
REMARK    4  A    between atoms: O_6  and  C_26
REMARK    5  A    between atoms: O_11  and  C_35
REMARK    6  A    between atoms: O_12  and  C_36
REMARK    7  A    between atoms: C_17  and  C_20
REMARK    8  A    between atoms: C_22  and  C_25
REMARK                            x       y       z     vdW  Elec       q    Type
REMARK                         _______ _______ _______ _____ _____    ______ ____
ROOT
ATOM      1  O   UNL     1     113.643 127.328 136.645  0.00  0.00    +0.000 OA
ATOM      2  O   UNL     1     112.409 126.059 138.375  0.00  0.00    +0.000 OA
ATOM      3  O   UNL     1     113.211 124.885 138.127  0.00  0.00    +0.000 OA
ATOM      4  O   UNL     1     115.300 124.998 136.090  0.00  0.00    +0.000 OA
ATOM      5  C   UNL     1     112.622 127.267 137.643  0.00  0.00    +0.000 A 
ATOM      6  C   UNL     1     113.034 127.690 137.066  0.00  0.00    +0.000 A 
ATOM      7  C   UNL     1     112.821 126.482 137.798  0.00  0.00    +0.000 A 
ATOM      8  C   UNL     1     113.430 126.119 137.377  0.00  0.00    +0.000 A 
ATOM      9  C   UNL     1     113.841 126.542 136.801  0.00  0.00    +0.000 A 
ATOM     10  C   UNL     1     113.628 125.300 137.549  0.00  0.00    +0.000 A 
ATOM     11  C   UNL     1     114.478 126.176 136.355  0.00  0.00    +0.000 A 
ATOM     12  C   UNL     1     114.261 124.917 137.114  0.00  0.00    +0.000 A 
ATOM     13  C   UNL     1     114.690 125.358 136.512  0.00  0.00    +0.000 A 
ENDROOT
BRANCH   6  15
ATOM     14  O   UNL     1     112.239 130.833 136.448  0.00  0.00    +0.000 OA
ATOM     15  C   UNL     1     112.835 128.476 136.911  0.00  0.00    +0.000 A 
ATOM     16  C   UNL     1     112.391 128.665 136.242  0.00  0.00    +0.000 A 
ATOM     17  C   UNL     1     113.081 129.073 137.426  0.00  0.00    +0.000 A 
ATOM     18  C   UNL     1     112.882 129.858 137.271  0.00  0.00    +0.000 A 
ATOM     19  C   UNL     1     112.193 129.451 136.088  0.00  0.00    +0.000 A 
ATOM     20  C   UNL     1     112.438 130.047 136.602  0.00  0.00    +0.000 A 
BRANCH  18  21
ATOM     21  O   UNL     1     113.127 130.455 137.786  0.00  0.00    +0.000 OA
ATOM     22  C   UNL     1     113.926 130.532 137.977  0.00  0.00    +0.000 C 
ENDBRANCH  18  21
BRANCH  19  23
ATOM     23  O   UNL     1     111.749 129.640 135.419  0.00  0.00    +0.000 OA
ATOM     24  C   UNL     1     111.804 129.173 134.740  0.00  0.00    +0.000 C 
ENDBRANCH  19  23
ENDBRANCH   6  15
BRANCH   5  25
ATOM     25  O   UNL     1     112.012 127.630 138.064  0.00  0.00    +0.000 OA
BRANCH  25  34
ATOM     26  O   UNL     1     111.004 126.878 137.385  0.00  0.00    +0.000 OA
ATOM     27  O   UNL     1     108.965 126.366 137.973  0.00  0.00    +0.000 OA
ATOM     28  O   UNL     1     109.458 127.237 139.285  0.00  0.00    +0.000 OA
ATOM     29  O   UNL     1     110.982 127.869 139.330  0.00  0.00    +0.000 OA
ATOM     30  C   UNL     1     109.728 126.682 137.996  0.00  0.00    +0.000 C 
ATOM     31  C   UNL     1     109.973 127.117 138.652  0.00  0.00    +0.000 C 
ATOM     32  C   UNL     1     110.243 126.562 137.363  0.00  0.00    +0.000 C 
ATOM     33  C   UNL     1     110.736 127.434 138.674  0.00  0.00    +0.000 C 
ATOM     34  C   UNL     1     111.251 127.314 138.041  0.00  0.00    +0.000 C 
BRANCH  32  35
ATOM     35  C   UNL     1     109.996 126.127 136.707  0.00  0.00    +0.000 C 
BRANCH  35  36
ATOM     36  O   UNL     1     110.244 126.341 135.951  0.00  0.00    +0.000 OA
BRANCH  36  38
ATOM     37  O   UNL     1     110.588 125.078 135.380  0.00  0.00    +0.000 OA
ATOM     38  C   UNL     1     110.194 125.800 135.330  0.00  0.00    +0.000 C 
ATOM     39  C   UNL     1     109.749 125.981 134.660  0.00  0.00    +0.000 C 
ENDBRANCH  36  38
ENDBRANCH  35  36
ENDBRANCH  32  35
ENDBRANCH  25  34
ENDBRANCH   5  25
TORSDOF 8
ENDMDL
MODEL 4
REMARK VINA RESULT:      -8.5      1.711      3.117
REMARK  Name = 44259495
REMARK  8 active torsions:
REMARK  status: ('A' for Active; 'I' for Inactive)
REMARK    1  A    between atoms: O_2  and  C_19
REMARK    2  A    between atoms: O_2  and  C_21
REMARK    3  A    between atoms: O_6  and  C_20
REMARK    4  A    between atoms: O_6  and  C_26
REMARK    5  A    between atoms: O_11  and  C_35
REMARK    6  A    between atoms: O_12  and  C_36
REMARK    7  A    between atoms: C_17  and  C_20
REMARK    8  A    between atoms: C_22  and  C_25
REMARK                            x       y       z     vdW  Elec       q    Type
REMARK                         _______ _______ _______ _____ _____    ______ ____
ROOT
ATOM      1  O   UNL     1     112.789 127.621 136.970  0.00  0.00    +0.000 OA
ATOM      2  O   UNL     1     111.196 128.247 138.758  0.00  0.00    +0.000 OA
ATOM      3  O   UNL     1     111.483 129.648 138.563  0.00  0.00    +0.000 OA
ATOM      4  O   UNL     1     113.420 130.428 136.520  0.00  0.00    +0.000 OA
ATOM      5  C   UNL     1     111.841 127.244 137.971  0.00  0.00    +0.000 A 
ATOM      6  C   UNL     1     112.372 127.035 137.375  0.00  0.00    +0.000 A 
ATOM      7  C   UNL     1     111.727 128.038 138.162  0.00  0.00    +0.000 A 
ATOM      8  C   UNL     1     112.144 128.624 137.757  0.00  0.00    +0.000 A 
ATOM      9  C   UNL     1     112.675 128.415 137.161  0.00  0.00    +0.000 A 
ATOM     10  C   UNL     1     112.016 129.448 137.965  0.00  0.00    +0.000 A 
ATOM     11  C   UNL     1     113.115 129.015 136.732  0.00  0.00    +0.000 A 
ATOM     12  C   UNL     1     112.447 130.063 137.548  0.00  0.00    +0.000 A 
ATOM     13  C   UNL     1     113.001 129.845 136.926  0.00  0.00    +0.000 A 
ENDROOT
BRANCH   6  15
ATOM     14  O   UNL     1     112.830 123.857 136.614  0.00  0.00    +0.000 OA
ATOM     15  C   UNL     1     112.486 126.241 137.184  0.00  0.00    +0.000 A 
ATOM     16  C   UNL     1     111.919 125.837 136.741  0.00  0.00    +0.000 A 
ATOM     17  C   UNL     1     113.168 125.850 137.437  0.00  0.00    +0.000 A 
ATOM     18  C   UNL     1     113.282 125.055 137.247  0.00  0.00    +0.000 A 
ATOM     19  C   UNL     1     112.034 125.042 136.552  0.00  0.00    +0.000 A 
ATOM     20  C   UNL     1     112.715 124.651 136.804  0.00  0.00    +0.000 A 
BRANCH  18  21
ATOM     21  O   UNL     1     113.963 124.664 137.500  0.00  0.00    +0.000 OA
ATOM     22  C   UNL     1     114.671 125.080 137.583  0.00  0.00    +0.000 C 
ENDBRANCH  18  21
BRANCH  19  23
ATOM     23  O   UNL     1     111.467 124.638 136.109  0.00  0.00    +0.000 OA
ATOM     24  C   UNL     1     110.978 125.052 135.588  0.00  0.00    +0.000 C 
ENDBRANCH  19  23
ENDBRANCH   6  15
BRANCH   5  25
ATOM     25  O   UNL     1     111.424 126.658 138.376  0.00  0.00    +0.000 OA
BRANCH  25  34
ATOM     26  O   UNL     1     112.181 126.825 139.576  0.00  0.00    +0.000 OA
ATOM     27  O   UNL     1     111.660 126.436 141.660  0.00  0.00    +0.000 OA
ATOM     28  O   UNL     1     110.264 125.991 140.901  0.00  0.00    +0.000 OA
ATOM     29  O   UNL     1     110.146 126.103 139.259  0.00  0.00    +0.000 OA
ATOM     30  C   UNL     1     111.601 126.491 140.838  0.00  0.00    +0.000 C 
ATOM     31  C   UNL     1     110.903 126.269 140.459  0.00  0.00    +0.000 C 
ATOM     32  C   UNL     1     112.240 126.769 140.397  0.00  0.00    +0.000 C 
ATOM     33  C   UNL     1     110.844 126.325 139.638  0.00  0.00    +0.000 C 
ATOM     34  C   UNL     1     111.483 126.603 139.196  0.00  0.00    +0.000 C 
BRANCH  32  35
ATOM     35  C   UNL     1     112.938 126.991 140.777  0.00  0.00    +0.000 C 
BRANCH  35  36
ATOM     36  O   UNL     1     113.661 126.924 140.386  0.00  0.00    +0.000 OA
BRANCH  36  38
ATOM     37  O   UNL     1     114.877 126.754 141.117  0.00  0.00    +0.000 OA
ATOM     38  C   UNL     1     114.344 127.244 140.721  0.00  0.00    +0.000 C 
ATOM     39  C   UNL     1     114.494 128.052 140.661  0.00  0.00    +0.000 C 
ENDBRANCH  36  38
ENDBRANCH  35  36
ENDBRANCH  32  35
ENDBRANCH  25  34
ENDBRANCH   5  25
TORSDOF 8
ENDMDL
MODEL 5
REMARK VINA RESULT:      -8.4      1.328      2.382
REMARK  Name = 44259495
REMARK  8 active torsions:
REMARK  status: ('A' for Active; 'I' for Inactive)
REMARK    1  A    between atoms: O_2  and  C_19
REMARK    2  A    between atoms: O_2  and  C_21
REMARK    3  A    between atoms: O_6  and  C_20
REMARK    4  A    between atoms: O_6  and  C_26
REMARK    5  A    between atoms: O_11  and  C_35
REMARK    6  A    between atoms: O_12  and  C_36
REMARK    7  A    between atoms: C_17  and  C_20
REMARK    8  A    between atoms: C_22  and  C_25
REMARK                            x       y       z     vdW  Elec       q    Type
REMARK                         _______ _______ _______ _____ _____    ______ ____
ROOT
ATOM      1  O   UNL     1     112.971 127.386 136.454  0.00  0.00    +0.000 OA
ATOM      2  O   UNL     1     111.270 128.624 135.149  0.00  0.00    +0.000 OA
ATOM      3  O   UNL     1     112.280 129.503 134.612  0.00  0.00    +0.000 OA
ATOM      4  O   UNL     1     115.064 129.121 135.410  0.00  0.00    +0.000 OA
ATOM      5  C   UNL     1     111.610 127.577 136.060  0.00  0.00    +0.000 A 
ATOM      6  C   UNL     1     112.177 127.164 136.495  0.00  0.00    +0.000 A 
ATOM      7  C   UNL     1     111.837 128.211 135.584  0.00  0.00    +0.000 A 
ATOM      8  C   UNL     1     112.631 128.433 135.543  0.00  0.00    +0.000 A 
ATOM      9  C   UNL     1     113.197 128.020 135.977  0.00  0.00    +0.000 A 
ATOM     10  C   UNL     1     112.854 129.096 135.044  0.00  0.00    +0.000 A 
ATOM     11  C   UNL     1     114.026 128.241 135.943  0.00  0.00    +0.000 A 
ATOM     12  C   UNL     1     113.678 129.332 134.996  0.00  0.00    +0.000 A 
ATOM     13  C   UNL     1     114.269 128.902 135.450  0.00  0.00    +0.000 A 
ENDROOT
BRANCH   6  15
ATOM     14  O   UNL     1     111.268 124.627 138.400  0.00  0.00    +0.000 OA
ATOM     15  C   UNL     1     111.950 126.529 136.970  0.00  0.00    +0.000 A 
ATOM     16  C   UNL     1     111.782 125.797 136.630  0.00  0.00    +0.000 A 
ATOM     17  C   UNL     1     111.891 126.627 137.788  0.00  0.00    +0.000 A 
ATOM     18  C   UNL     1     111.664 125.993 138.264  0.00  0.00    +0.000 A 
ATOM     19  C   UNL     1     111.554 125.163 137.107  0.00  0.00    +0.000 A 
ATOM     20  C   UNL     1     111.496 125.261 137.923  0.00  0.00    +0.000 A 
BRANCH  18  21
ATOM     21  O   UNL     1     111.605 126.091 139.082  0.00  0.00    +0.000 OA
ATOM     22  C   UNL     1     112.141 126.578 139.478  0.00  0.00    +0.000 C 
ENDBRANCH  18  21
BRANCH  19  23
ATOM     23  O   UNL     1     111.386 124.431 136.766  0.00  0.00    +0.000 OA
ATOM     24  C   UNL     1     111.957 124.046 136.310  0.00  0.00    +0.000 C 
ENDBRANCH  19  23
ENDBRANCH   6  15
BRANCH   5  25
ATOM     25  O   UNL     1     110.816 127.355 136.101  0.00  0.00    +0.000 OA
BRANCH  25  34
ATOM     26  O   UNL     1     110.415 128.478 136.889  0.00  0.00    +0.000 OA
ATOM     27  O   UNL     1     108.526 129.570 136.962  0.00  0.00    +0.000 OA
ATOM     28  O   UNL     1     108.184 128.431 135.817  0.00  0.00    +0.000 OA
ATOM     29  O   UNL     1     109.329 127.324 135.387  0.00  0.00    +0.000 OA
ATOM     30  C   UNL     1     109.099 129.016 136.747  0.00  0.00    +0.000 C 
ATOM     31  C   UNL     1     108.928 128.447 136.174  0.00  0.00    +0.000 C 
ATOM     32  C   UNL     1     109.843 129.031 137.104  0.00  0.00    +0.000 C 
ATOM     33  C   UNL     1     109.501 127.893 135.959  0.00  0.00    +0.000 C 
ATOM     34  C   UNL     1     110.244 127.908 136.316  0.00  0.00    +0.000 C 
BRANCH  32  35
ATOM     35  C   UNL     1     110.013 129.600 137.676  0.00  0.00    +0.000 C 
BRANCH  35  36
ATOM     36  O   UNL     1     110.489 129.408 138.321  0.00  0.00    +0.000 OA
BRANCH  36  38
ATOM     37  O   UNL     1     110.328 130.187 139.508  0.00  0.00    +0.000 OA
ATOM     38  C   UNL     1     110.757 130.001 138.829  0.00  0.00    +0.000 C 
ATOM     39  C   UNL     1     111.453 130.407 138.657  0.00  0.00    +0.000 C 
ENDBRANCH  36  38
ENDBRANCH  35  36
ENDBRANCH  32  35
ENDBRANCH  25  34
ENDBRANCH   5  25
TORSDOF 8
ENDMDL
MODEL 6
REMARK VINA RESULT:      -8.4      1.942      3.772
REMARK  Name = 44259495
REMARK  8 active torsions:
REMARK  status: ('A' for Active; 'I' for Inactive)
REMARK    1  A    between atoms: O_2  and  C_19
REMARK    2  A    between atoms: O_2  and  C_21
REMARK    3  A    between atoms: O_6  and  C_20
REMARK    4  A    between atoms: O_6  and  C_26
REMARK    5  A    between atoms: O_11  and  C_35
REMARK    6  A    between atoms: O_12  and  C_36
REMARK    7  A    between atoms: C_17  and  C_20
REMARK    8  A    between atoms: C_22  and  C_25
REMARK                            x       y       z     vdW  Elec       q    Type
REMARK                         _______ _______ _______ _____ _____    ______ ____
ROOT
ATOM      1  O   UNL     1     113.813 126.340 137.990  0.00  0.00    +0.000 OA
ATOM      2  O   UNL     1     111.789 124.919 137.876  0.00  0.00    +0.000 OA
ATOM      3  O   UNL     1     112.378 124.115 136.833  0.00  0.00    +0.000 OA
ATOM      4  O   UNL     1     115.065 124.761 135.887  0.00  0.00    +0.000 OA
ATOM      5  C   UNL     1     112.498 126.019 138.449  0.00  0.00    +0.000 A 
ATOM      6  C   UNL     1     113.173 126.493 138.487  0.00  0.00    +0.000 A 
ATOM      7  C   UNL     1     112.464 125.393 137.914  0.00  0.00    +0.000 A 
ATOM      8  C   UNL     1     113.105 125.239 137.417  0.00  0.00    +0.000 A 
ATOM      9  C   UNL     1     113.778 125.713 137.455  0.00  0.00    +0.000 A 
ATOM     10  C   UNL     1     113.057 124.583 136.864  0.00  0.00    +0.000 A 
ATOM     11  C   UNL     1     114.452 125.564 136.943  0.00  0.00    +0.000 A 
ATOM     12  C   UNL     1     113.720 124.418 136.343  0.00  0.00    +0.000 A 
ATOM     13  C   UNL     1     114.423 124.912 136.383  0.00  0.00    +0.000 A 
ENDROOT
BRANCH   6  15
ATOM     14  O   UNL     1     113.308 128.999 140.631  0.00  0.00    +0.000 OA
ATOM     15  C   UNL     1     113.207 127.120 139.022  0.00  0.00    +0.000 A 
ATOM     16  C   UNL     1     113.066 127.891 138.765  0.00  0.00    +0.000 A 
ATOM     17  C   UNL     1     113.381 126.975 139.816  0.00  0.00    +0.000 A 
ATOM     18  C   UNL     1     113.415 127.602 140.352  0.00  0.00    +0.000 A 
ATOM     19  C   UNL     1     113.100 128.517 139.302  0.00  0.00    +0.000 A 
ATOM     20  C   UNL     1     113.274 128.373 140.094  0.00  0.00    +0.000 A 
BRANCH  18  21
ATOM     21  O   UNL     1     113.589 127.457 141.145  0.00  0.00    +0.000 OA
ATOM     22  C   UNL     1     114.225 126.971 141.346  0.00  0.00    +0.000 C 
ENDBRANCH  18  21
BRANCH  19  23
ATOM     23  O   UNL     1     112.959 129.288 139.044  0.00  0.00    +0.000 OA
ATOM     24  C   UNL     1     113.279 129.550 138.329  0.00  0.00    +0.000 C 
ENDBRANCH  19  23
ENDBRANCH   6  15
BRANCH   5  25
ATOM     25  O   UNL     1     111.858 126.173 138.946  0.00  0.00    +0.000 OA
BRANCH  25  34
ATOM     26  O   UNL     1     111.047 126.700 137.894  0.00  0.00    +0.000 OA
ATOM     27  O   UNL     1     108.878 126.774 137.661  0.00  0.00    +0.000 OA
ATOM     28  O   UNL     1     109.009 126.019 139.123  0.00  0.00    +0.000 OA
ATOM     29  O   UNL     1     110.499 125.719 139.765  0.00  0.00    +0.000 OA
ATOM     30  C   UNL     1     109.624 126.624 137.983  0.00  0.00    +0.000 C 
ATOM     31  C   UNL     1     109.689 126.246 138.713  0.00  0.00    +0.000 C 
ATOM     32  C   UNL     1     110.303 126.851 137.573  0.00  0.00    +0.000 C 
ATOM     33  C   UNL     1     110.434 126.096 139.035  0.00  0.00    +0.000 C 
ATOM     34  C   UNL     1     111.113 126.323 138.625  0.00  0.00    +0.000 C 
BRANCH  32  35
ATOM     35  C   UNL     1     110.237 127.228 136.842  0.00  0.00    +0.000 C 
BRANCH  35  36
ATOM     36  O   UNL     1     110.728 127.864 136.660  0.00  0.00    +0.000 OA
BRANCH  36  38
ATOM     37  O   UNL     1     110.195 128.755 135.679  0.00  0.00    +0.000 OA
ATOM     38  C   UNL     1     110.738 128.173 135.894  0.00  0.00    +0.000 C 
ATOM     39  C   UNL     1     111.289 127.899 135.346  0.00  0.00    +0.000 C 
ENDBRANCH  36  38
ENDBRANCH  35  36
ENDBRANCH  32  35
ENDBRANCH  25  34
ENDBRANCH   5  25
TORSDOF 8
ENDMDL
MODEL 7
REMARK VINA RESULT:      -8.4      1.715      3.967
REMARK  Name = 44259495
REMARK  8 active torsions:
REMARK  status: ('A' for Active; 'I' for Inactive)
REMARK    1  A    between atoms: O_2  and  C_19
REMARK    2  A    between atoms: O_2  and  C_21
REMARK    3  A    between atoms: O_6  and  C_20
REMARK    4  A    between atoms: O_6  and  C_26
REMARK    5  A    between atoms: O_11  and  C_35
REMARK    6  A    between atoms: O_12  and  C_36
REMARK    7  A    between atoms: C_17  and  C_20
REMARK    8  A    between atoms: C_22  and  C_25
REMARK                            x       y       z     vdW  Elec       q    Type
REMARK                         _______ _______ _______ _____ _____    ______ ____
ROOT
ATOM      1  O   UNL     1     112.160 128.363 138.261  0.00  0.00    +0.000 OA
ATOM      2  O   UNL     1     113.828 127.340 136.744  0.00  0.00    +0.000 OA
ATOM      3  O   UNL     1     113.706 128.441 135.820  0.00  0.00    +0.000 OA
ATOM      4  O   UNL     1     111.861 130.618 136.442  0.00  0.00    +0.000 OA
ATOM      5  C   UNL     1     113.065 127.300 137.951  0.00  0.00    +0.000 A 
ATOM      6  C   UNL     1     112.508 127.641 138.457  0.00  0.00    +0.000 A 
ATOM      7  C   UNL     1     113.272 127.681 137.250  0.00  0.00    +0.000 A 
ATOM      8  C   UNL     1     112.924 128.403 137.053  0.00  0.00    +0.000 A 
ATOM      9  C   UNL     1     112.368 128.743 137.559  0.00  0.00    +0.000 A 
ATOM     10  C   UNL     1     113.149 128.789 136.320  0.00  0.00    +0.000 A 
ATOM     11  C   UNL     1     111.998 129.494 137.366  0.00  0.00    +0.000 A 
ATOM     12  C   UNL     1     112.790 129.541 136.109  0.00  0.00    +0.000 A 
ATOM     13  C   UNL     1     112.210 129.896 136.636  0.00  0.00    +0.000 A 
ENDROOT
BRANCH   6  15
ATOM     14  O   UNL     1     111.676 126.114 141.262  0.00  0.00    +0.000 OA
ATOM     15  C   UNL     1     112.301 127.259 139.158  0.00  0.00    +0.000 A 
ATOM     16  C   UNL     1     112.804 127.293 139.811  0.00  0.00    +0.000 A 
ATOM     17  C   UNL     1     111.589 126.844 139.207  0.00  0.00    +0.000 A 
ATOM     18  C   UNL     1     111.381 126.463 139.908  0.00  0.00    +0.000 A 
ATOM     19  C   UNL     1     112.596 126.911 140.512  0.00  0.00    +0.000 A 
ATOM     20  C   UNL     1     111.885 126.496 140.561  0.00  0.00    +0.000 A 
BRANCH  18  21
ATOM     21  O   UNL     1     110.669 126.048 139.957  0.00  0.00    +0.000 OA
ATOM     22  C   UNL     1     109.987 126.357 139.610  0.00  0.00    +0.000 C 
ENDBRANCH  18  21
BRANCH  19  23
ATOM     23  O   UNL     1     113.099 126.944 141.165  0.00  0.00    +0.000 OA
ATOM     24  C   UNL     1     113.473 127.653 141.363  0.00  0.00    +0.000 C 
ENDBRANCH  19  23
ENDBRANCH   6  15
BRANCH   5  25
ATOM     25  O   UNL     1     113.413 126.578 138.148  0.00  0.00    +0.000 OA
BRANCH  25  34
ATOM     26  O   UNL     1     112.681 125.869 137.146  0.00  0.00    +0.000 OA
ATOM     27  O   UNL     1     113.120 123.997 136.112  0.00  0.00    +0.000 OA
ATOM     28  O   UNL     1     114.437 124.125 137.098  0.00  0.00    +0.000 OA
ATOM     29  O   UNL     1     114.583 125.416 138.116  0.00  0.00    +0.000 OA
ATOM     30  C   UNL     1     113.193 124.643 136.621  0.00  0.00    +0.000 C 
ATOM     31  C   UNL     1     113.852 124.706 137.114  0.00  0.00    +0.000 C 
ATOM     32  C   UNL     1     112.608 125.224 136.637  0.00  0.00    +0.000 C 
ATOM     33  C   UNL     1     113.925 125.352 137.623  0.00  0.00    +0.000 C 
ATOM     34  C   UNL     1     113.339 125.933 137.639  0.00  0.00    +0.000 C 
BRANCH  32  35
ATOM     35  C   UNL     1     111.949 125.159 136.144  0.00  0.00    +0.000 C 
BRANCH  35  36
ATOM     36  O   UNL     1     111.199 125.347 136.430  0.00  0.00    +0.000 OA
BRANCH  36  38
ATOM     37  O   UNL     1     110.460 124.989 135.261  0.00  0.00    +0.000 OA
ATOM     38  C   UNL     1     110.581 125.493 135.903  0.00  0.00    +0.000 C 
ATOM     39  C   UNL     1     110.084 126.140 136.018  0.00  0.00    +0.000 C 
ENDBRANCH  36  38
ENDBRANCH  35  36
ENDBRANCH  32  35
ENDBRANCH  25  34
ENDBRANCH   5  25
TORSDOF 8
ENDMDL
MODEL 8
REMARK VINA RESULT:      -8.3      1.652      3.894
REMARK  Name = 44259495
REMARK  8 active torsions:
REMARK  status: ('A' for Active; 'I' for Inactive)
REMARK    1  A    between atoms: O_2  and  C_19
REMARK    2  A    between atoms: O_2  and  C_21
REMARK    3  A    between atoms: O_6  and  C_20
REMARK    4  A    between atoms: O_6  and  C_26
REMARK    5  A    between atoms: O_11  and  C_35
REMARK    6  A    between atoms: O_12  and  C_36
REMARK    7  A    between atoms: C_17  and  C_20
REMARK    8  A    between atoms: C_22  and  C_25
REMARK                            x       y       z     vdW  Elec       q    Type
REMARK                         _______ _______ _______ _____ _____    ______ ____
ROOT
ATOM      1  O   UNL     1     111.360 126.934 136.729  0.00  0.00    +0.000 OA
ATOM      2  O   UNL     1     112.020 128.780 135.217  0.00  0.00    +0.000 OA
ATOM      3  O   UNL     1     110.640 129.042 134.888  0.00  0.00    +0.000 OA
ATOM      4  O   UNL     1     108.553 127.405 136.111  0.00  0.00    +0.000 OA
ATOM      5  C   UNL     1     112.377 127.738 136.128  0.00  0.00    +0.000 A 
ATOM      6  C   UNL     1     112.157 127.123 136.632  0.00  0.00    +0.000 A 
ATOM      7  C   UNL     1     111.800 128.165 135.721  0.00  0.00    +0.000 A 
ATOM      8  C   UNL     1     111.002 127.976 135.819  0.00  0.00    +0.000 A 
ATOM      9  C   UNL     1     110.783 127.362 136.322  0.00  0.00    +0.000 A 
ATOM     10  C   UNL     1     110.410 128.428 135.390  0.00  0.00    +0.000 A 
ATOM     11  C   UNL     1     109.956 127.155 136.433  0.00  0.00    +0.000 A 
ATOM     12  C   UNL     1     109.579 128.237 135.487  0.00  0.00    +0.000 A 
ATOM     13  C   UNL     1     109.349 127.596 136.012  0.00  0.00    +0.000 A 
ENDROOT
BRANCH   6  15
ATOM     14  O   UNL     1     114.469 125.416 138.254  0.00  0.00    +0.000 OA
ATOM     15  C   UNL     1     112.735 126.696 137.038  0.00  0.00    +0.000 A 
ATOM     16  C   UNL     1     112.873 126.846 137.837  0.00  0.00    +0.000 A 
ATOM     17  C   UNL     1     113.175 126.120 136.644  0.00  0.00    +0.000 A 
ATOM     18  C   UNL     1     113.753 125.694 137.050  0.00  0.00    +0.000 A 
ATOM     19  C   UNL     1     113.451 126.419 138.243  0.00  0.00    +0.000 A 
ATOM     20  C   UNL     1     113.890 125.843 137.849  0.00  0.00    +0.000 A 
BRANCH  18  21
ATOM     21  O   UNL     1     114.193 125.117 136.655  0.00  0.00    +0.000 OA
ATOM     22  C   UNL     1     113.809 124.498 136.268  0.00  0.00    +0.000 C 
ENDBRANCH  18  21
BRANCH  19  23
ATOM     23  O   UNL     1     113.589 126.568 139.042  0.00  0.00    +0.000 OA
ATOM     24  C   UNL     1     112.955 126.719 139.550  0.00  0.00    +0.000 C 
ENDBRANCH  19  23
ENDBRANCH   6  15
BRANCH   5  25
ATOM     25  O   UNL     1     113.174 127.927 136.030  0.00  0.00    +0.000 OA
BRANCH  25  34
ATOM     26  O   UNL     1     113.095 129.125 136.804  0.00  0.00    +0.000 OA
ATOM     27  O   UNL     1     114.241 130.979 136.689  0.00  0.00    +0.000 OA
ATOM     28  O   UNL     1     114.933 130.109 135.471  0.00  0.00    +0.000 OA
ATOM     29  O   UNL     1     114.400 128.582 135.141  0.00  0.00    +0.000 OA
ATOM     30  C   UNL     1     113.974 130.216 136.524  0.00  0.00    +0.000 C 
ATOM     31  C   UNL     1     114.321 129.781 135.915  0.00  0.00    +0.000 C 
ATOM     32  C   UNL     1     113.361 129.888 136.969  0.00  0.00    +0.000 C 
ATOM     33  C   UNL     1     114.054 129.017 135.750  0.00  0.00    +0.000 C 
ATOM     34  C   UNL     1     113.441 128.689 136.195  0.00  0.00    +0.000 C 
BRANCH  32  35
ATOM     35  C   UNL     1     113.015 130.324 137.578  0.00  0.00    +0.000 C 
BRANCH  35  36
ATOM     36  O   UNL     1     112.784 129.949 138.275  0.00  0.00    +0.000 OA
BRANCH  36  38
ATOM     37  O   UNL     1     112.735 130.787 139.430  0.00  0.00    +0.000 OA
ATOM     38  C   UNL     1     112.347 130.361 138.841  0.00  0.00    +0.000 C 
ATOM     39  C   UNL     1     111.523 130.346 138.817  0.00  0.00    +0.000 C 
ENDBRANCH  36  38
ENDBRANCH  35  36
ENDBRANCH  32  35
ENDBRANCH  25  34
ENDBRANCH   5  25
TORSDOF 8
ENDMDL
MODEL 9
REMARK VINA RESULT:      -8.3      1.579      4.435
REMARK  Name = 44259495
REMARK  8 active torsions:
REMARK  status: ('A' for Active; 'I' for Inactive)
REMARK    1  A    between atoms: O_2  and  C_19
REMARK    2  A    between atoms: O_2  and  C_21
REMARK    3  A    between atoms: O_6  and  C_20
REMARK    4  A    between atoms: O_6  and  C_26
REMARK    5  A    between atoms: O_11  and  C_35
REMARK    6  A    between atoms: O_12  and  C_36
REMARK    7  A    between atoms: C_17  and  C_20
REMARK    8  A    between atoms: C_22  and  C_25
REMARK                            x       y       z     vdW  Elec       q    Type
REMARK                         _______ _______ _______ _____ _____    ______ ____
ROOT
ATOM      1  O   UNL     1     113.019 128.350 138.376  0.00  0.00    +0.000 OA
ATOM      2  O   UNL     1     111.618 126.332 138.682  0.00  0.00    +0.000 OA
ATOM      3  O   UNL     1     112.120 126.152 140.022  0.00  0.00    +0.000 OA
ATOM      4  O   UNL     1     114.076 128.049 141.073  0.00  0.00    +0.000 OA
ATOM      5  C   UNL     1     112.061 127.419 137.867  0.00  0.00    +0.000 A 
ATOM      6  C   UNL     1     112.529 128.092 137.765  0.00  0.00    +0.000 A 
ATOM      7  C   UNL     1     112.085 127.005 138.580  0.00  0.00    +0.000 A 
ATOM      8  C   UNL     1     112.575 127.264 139.191  0.00  0.00    +0.000 A 
ATOM      9  C   UNL     1     113.042 127.936 139.089  0.00  0.00    +0.000 A 
ATOM     10  C   UNL     1     112.590 126.824 139.929  0.00  0.00    +0.000 A 
ATOM     11  C   UNL     1     113.556 128.215 139.718  0.00  0.00    +0.000 A 
ATOM     12  C   UNL     1     113.098 127.087 140.570  0.00  0.00    +0.000 A 
ATOM     13  C   UNL     1     113.585 127.788 140.463  0.00  0.00    +0.000 A 
ENDROOT
BRANCH   6  15
ATOM     14  O   UNL     1     112.437 129.745 134.910  0.00  0.00    +0.000 OA
ATOM     15  C   UNL     1     112.505 128.506 137.052  0.00  0.00    +0.000 A 
ATOM     16  C   UNL     1     111.873 129.009 136.887  0.00  0.00    +0.000 A 
ATOM     17  C   UNL     1     113.115 128.416 136.503  0.00  0.00    +0.000 A 
ATOM     18  C   UNL     1     113.092 128.829 135.789  0.00  0.00    +0.000 A 
ATOM     19  C   UNL     1     111.850 129.422 136.173  0.00  0.00    +0.000 A 
ATOM     20  C   UNL     1     112.459 129.332 135.624  0.00  0.00    +0.000 A 
BRANCH  18  21
ATOM     21  O   UNL     1     113.702 128.739 135.240  0.00  0.00    +0.000 OA
ATOM     22  C   UNL     1     114.488 128.747 135.492  0.00  0.00    +0.000 C 
ENDBRANCH  18  21
BRANCH  19  23
ATOM     23  O   UNL     1     111.217 129.925 136.008  0.00  0.00    +0.000 OA
ATOM     24  C   UNL     1     110.962 130.468 136.576  0.00  0.00    +0.000 C 
ENDBRANCH  19  23
ENDBRANCH   6  15
BRANCH   5  25
ATOM     25  O   UNL     1     111.571 127.161 137.256  0.00  0.00    +0.000 OA
BRANCH  25  34
ATOM     26  O   UNL     1     112.411 126.045 136.952  0.00  0.00    +0.000 OA
ATOM     27  O   UNL     1     111.960 124.135 135.996  0.00  0.00    +0.000 OA
ATOM     28  O   UNL     1     110.475 124.854 135.973  0.00  0.00    +0.000 OA
ATOM     29  O   UNL     1     110.281 126.367 136.602  0.00  0.00    +0.000 OA
ATOM     30  C   UNL     1     111.863 124.892 136.311  0.00  0.00    +0.000 C 
ATOM     31  C   UNL     1     111.120 125.251 136.299  0.00  0.00    +0.000 C 
ATOM     32  C   UNL     1     112.508 125.289 136.638  0.00  0.00    +0.000 C 
ATOM     33  C   UNL     1     111.023 126.008 136.614  0.00  0.00    +0.000 C 
ATOM     34  C   UNL     1     111.669 126.405 136.941  0.00  0.00    +0.000 C 
BRANCH  32  35
ATOM     35  C   UNL     1     113.251 124.929 136.649  0.00  0.00    +0.000 C 
BRANCH  35  36
ATOM     36  O   UNL     1     113.923 125.362 136.448  0.00  0.00    +0.000 OA
BRANCH  36  38
ATOM     37  O   UNL     1     114.817 124.710 137.351  0.00  0.00    +0.000 OA
ATOM     38  C   UNL     1     114.673 125.064 136.620  0.00  0.00    +0.000 C 
ATOM     39  C   UNL     1     115.278 125.121 136.063  0.00  0.00    +0.000 C 
ENDBRANCH  36  38
ENDBRANCH  35  36
ENDBRANCH  32  35
ENDBRANCH  25  34
ENDBRANCH   5  25
TORSDOF 8
ENDMDL
MODEL 10
REMARK VINA RESULT:      -8.3      1.012      2.631
REMARK  Name = 44259495
REMARK  8 active torsions:
REMARK  status: ('A' for Active; 'I' for Inactive)
REMARK    1  A    between atoms: O_2  and  C_19
REMARK    2  A    between atoms: O_2  and  C_21
REMARK    3  A    between atoms: O_6  and  C_20
REMARK    4  A    between atoms: O_6  and  C_26
REMARK    5  A    between atoms: O_11  and  C_35
REMARK    6  A    between atoms: O_12  and  C_36
REMARK    7  A    between atoms: C_17  and  C_20
REMARK    8  A    between atoms: C_22  and  C_25
REMARK                            x       y       z     vdW  Elec       q    Type
REMARK                         _______ _______ _______ _____ _____    ______ ____
ROOT
ATOM      1  O   UNL     1     112.866 127.561 136.046  0.00  0.00    +0.000 OA
ATOM      2  O   UNL     1     111.463 129.139 137.339  0.00  0.00    +0.000 OA
ATOM      3  O   UNL     1     112.391 130.214 137.087  0.00  0.00    +0.000 OA
ATOM      4  O   UNL     1     114.783 129.683 135.497  0.00  0.00    +0.000 OA
ATOM      5  C   UNL     1     111.697 127.826 136.825  0.00  0.00    +0.000 A 
ATOM      6  C   UNL     1     112.165 127.300 136.393  0.00  0.00    +0.000 A 
ATOM      7  C   UNL     1     111.931 128.613 136.908  0.00  0.00    +0.000 A 
ATOM      8  C   UNL     1     112.633 128.873 136.560  0.00  0.00    +0.000 A 
ATOM      9  C   UNL     1     113.100 128.348 136.130  0.00  0.00    +0.000 A 
ATOM     10  C   UNL     1     112.865 129.695 136.654  0.00  0.00    +0.000 A 
ATOM     11  C   UNL     1     113.832 128.607 135.763  0.00  0.00    +0.000 A 
ATOM     12  C   UNL     1     113.594 129.973 136.295  0.00  0.00    +0.000 A 
ATOM     13  C   UNL     1     114.082 129.425 135.846  0.00  0.00    +0.000 A 
ENDROOT
BRANCH   6  15
ATOM     14  O   UNL     1     111.225 124.154 136.059  0.00  0.00    +0.000 OA
ATOM     15  C   UNL     1     111.930 126.513 136.310  0.00  0.00    +0.000 A 
ATOM     16  C   UNL     1     112.322 125.919 136.727  0.00  0.00    +0.000 A 
ATOM     17  C   UNL     1     111.303 126.321 135.809  0.00  0.00    +0.000 A 
ATOM     18  C   UNL     1     111.068 125.535 135.726  0.00  0.00    +0.000 A 
ATOM     19  C   UNL     1     112.087 125.133 136.643  0.00  0.00    +0.000 A 
ATOM     20  C   UNL     1     111.460 124.941 136.143  0.00  0.00    +0.000 A 
BRANCH  18  21
ATOM     21  O   UNL     1     110.440 125.343 135.225  0.00  0.00    +0.000 OA
ATOM     22  C   UNL     1     110.231 125.853 134.612  0.00  0.00    +0.000 C 
ENDBRANCH  18  21
BRANCH  19  23
ATOM     23  O   UNL     1     112.479 124.539 137.060  0.00  0.00    +0.000 OA
ATOM     24  C   UNL     1     113.304 124.513 137.064  0.00  0.00    +0.000 C 
ENDBRANCH  19  23
ENDBRANCH   6  15
BRANCH   5  25
ATOM     25  O   UNL     1     110.996 127.565 137.172  0.00  0.00    +0.000 OA
BRANCH  25  34
ATOM     26  O   UNL     1     111.512 127.575 138.504  0.00  0.00    +0.000 OA
ATOM     27  O   UNL     1     110.524 127.937 140.417  0.00  0.00    +0.000 OA
ATOM     28  O   UNL     1     109.256 128.104 139.375  0.00  0.00    +0.000 OA
ATOM     29  O   UNL     1     109.492 127.918 137.752  0.00  0.00    +0.000 OA
ATOM     30  C   UNL     1     110.642 127.844 139.605  0.00  0.00    +0.000 C 
ATOM     31  C   UNL     1     110.008 127.928 139.085  0.00  0.00    +0.000 C 
ATOM     32  C   UNL     1     111.394 127.667 139.315  0.00  0.00    +0.000 C 
ATOM     33  C   UNL     1     110.126 127.835 138.273  0.00  0.00    +0.000 C 
ATOM     34  C   UNL     1     110.878 127.658 137.983  0.00  0.00    +0.000 C 
BRANCH  32  35
ATOM     35  C   UNL     1     112.028 127.584 139.837  0.00  0.00    +0.000 C 
BRANCH  35  36
ATOM     36  O   UNL     1     112.547 126.949 139.757  0.00  0.00    +0.000 OA
BRANCH  36  38
ATOM     37  O   UNL     1     113.199 126.912 141.028  0.00  0.00    +0.000 OA
ATOM     38  C   UNL     1     113.241 126.923 140.204  0.00  0.00    +0.000 C 
ATOM     39  C   UNL     1     113.974 126.909 139.828  0.00  0.00    +0.000 C 
ENDBRANCH  36  38
ENDBRANCH  35  36
ENDBRANCH  32  35
ENDBRANCH  25  34
ENDBRANCH   5  25
TORSDOF 8
ENDMDL
