MODEL 1
REMARK VINA RESULT:     -10.2      0.000      0.000
REMARK  Name = 44257654
REMARK  2 active torsions:
REMARK  status: ('A' for Active; 'I' for Inactive)
REMARK    1  A    between atoms: C_10  and  C_14
REMARK    2  A    between atoms: C_23  and  C_25
REMARK                            x       y       z     vdW  Elec       q    Type
REMARK                         _______ _______ _______ _____ _____    ______ ____
ROOT
ATOM      1  O   UNL     1     104.239 124.604 138.840  0.00  0.00    +0.000 OA
ATOM      2  O   UNL     1     106.054 124.008 141.015  0.00  0.00    +0.000 OA
ATOM      3  O   UNL     1     105.026 126.657 140.701  0.00  0.00    +0.000 OA
ATOM      4  O   UNL     1     105.683 122.952 140.103  0.00  0.00    +0.000 OA
ATOM      5  C   UNL     1     105.540 125.332 140.857  0.00  0.00    +0.000 A 
ATOM      6  C   UNL     1     105.584 124.548 140.605  0.00  0.00    +0.000 A 
ATOM      7  C   UNL     1     105.070 125.873 140.448  0.00  0.00    +0.000 A 
ATOM      8  C   UNL     1     105.157 124.305 139.941  0.00  0.00    +0.000 A 
ATOM      9  C   UNL     1     104.687 124.845 139.531  0.00  0.00    +0.000 A 
ATOM     10  C   UNL     1     104.644 125.629 139.785  0.00  0.00    +0.000 A 
ATOM     11  C   UNL     1     105.211 123.486 139.688  0.00  0.00    +0.000 A 
ATOM     12  C   UNL     1     104.280 123.788 138.571  0.00  0.00    +0.000 A 
ATOM     13  C   UNL     1     104.769 123.225 138.997  0.00  0.00    +0.000 A 
ENDROOT
BRANCH   5  18
ATOM     14  O   UNL     1     105.631 125.514 142.272  0.00  0.00    +0.000 OA
ATOM     15  O   UNL     1     107.062 125.943 140.681  0.00  0.00    +0.000 OA
ATOM     16  O   UNL     1     107.914 126.430 142.007  0.00  0.00    +0.000 OA
ATOM     17  O   UNL     1     107.244 126.306 143.510  0.00  0.00    +0.000 OA
ATOM     18  C   UNL     1     105.966 125.576 141.521  0.00  0.00    +0.000 C 
ATOM     19  C   UNL     1     106.728 125.882 141.433  0.00  0.00    +0.000 C 
ATOM     20  C   UNL     1     107.153 126.125 142.096  0.00  0.00    +0.000 C 
ATOM     21  C   UNL     1     106.057 125.758 142.935  0.00  0.00    +0.000 C 
ATOM     22  C   UNL     1     106.819 126.063 142.847  0.00  0.00    +0.000 C 
ATOM     23  C   UNL     1     105.722 125.696 143.686  0.00  0.00    +0.000 C 
ENDBRANCH   5  18
BRANCH  12  25
ATOM     24  O   UNL     1     102.570 122.824 135.919  0.00  0.00    +0.000 OA
ATOM     25  C   UNL     1     103.853 123.547 137.907  0.00  0.00    +0.000 A 
ATOM     26  C   UNL     1     104.249 123.335 137.216  0.00  0.00    +0.000 A 
ATOM     27  C   UNL     1     103.029 123.518 137.936  0.00  0.00    +0.000 A 
ATOM     28  C   UNL     1     103.821 123.094 136.552  0.00  0.00    +0.000 A 
ATOM     29  C   UNL     1     102.602 123.277 137.274  0.00  0.00    +0.000 A 
ATOM     30  C   UNL     1     102.997 123.065 136.582  0.00  0.00    +0.000 A 
ENDBRANCH  12  25
TORSDOF 2
ENDMDL
MODEL 2
REMARK VINA RESULT:     -10.0      7.543      8.824
REMARK  Name = 44257654
REMARK  2 active torsions:
REMARK  status: ('A' for Active; 'I' for Inactive)
REMARK    1  A    between atoms: C_10  and  C_14
REMARK    2  A    between atoms: C_23  and  C_25
REMARK                            x       y       z     vdW  Elec       q    Type
REMARK                         _______ _______ _______ _____ _____    ______ ____
ROOT
ATOM      1  O   UNL     1     113.163 126.169 138.883  0.00  0.00    +0.000 OA
ATOM      2  O   UNL     1     112.894 129.048 139.014  0.00  0.00    +0.000 OA
ATOM      3  O   UNL     1     114.277 127.651 141.089  0.00  0.00    +0.000 OA
ATOM      4  O   UNL     1     112.322 128.342 137.893  0.00  0.00    +0.000 OA
ATOM      5  C   UNL     1     113.585 128.349 140.051  0.00  0.00    +0.000 A 
ATOM      6  C   UNL     1     113.169 128.342 139.339  0.00  0.00    +0.000 A 
ATOM      7  C   UNL     1     113.861 127.643 140.376  0.00  0.00    +0.000 A 
ATOM      8  C   UNL     1     113.028 127.626 138.952  0.00  0.00    +0.000 A 
ATOM      9  C   UNL     1     113.304 126.920 139.276  0.00  0.00    +0.000 A 
ATOM     10  C   UNL     1     113.720 126.929 139.989  0.00  0.00    +0.000 A 
ATOM     11  C   UNL     1     112.593 127.631 138.211  0.00  0.00    +0.000 A 
ATOM     12  C   UNL     1     112.730 126.154 138.140  0.00  0.00    +0.000 A 
ATOM     13  C   UNL     1     112.443 126.890 137.802  0.00  0.00    +0.000 A 
ENDROOT
BRANCH   5  18
ATOM     14  O   UNL     1     114.396 129.508 140.253  0.00  0.00    +0.000 OA
ATOM     15  O   UNL     1     112.527 128.890 141.196  0.00  0.00    +0.000 OA
ATOM     16  O   UNL     1     112.809 130.319 141.971  0.00  0.00    +0.000 OA
ATOM     17  O   UNL     1     114.149 131.208 141.600  0.00  0.00    +0.000 OA
ATOM     18  C   UNL     1     113.726 129.064 140.439  0.00  0.00    +0.000 C 
ATOM     19  C   UNL     1     113.197 129.335 141.011  0.00  0.00    +0.000 C 
ATOM     20  C   UNL     1     113.338 130.049 141.398  0.00  0.00    +0.000 C 
ATOM     21  C   UNL     1     114.537 130.224 140.641  0.00  0.00    +0.000 C 
ATOM     22  C   UNL     1     114.008 130.494 141.213  0.00  0.00    +0.000 C 
ATOM     23  C   UNL     1     115.207 130.668 140.455  0.00  0.00    +0.000 C 
ENDBRANCH   5  18
BRANCH  12  25
ATOM     24  O   UNL     1     112.171 123.290 136.600  0.00  0.00    +0.000 OA
ATOM     25  C   UNL     1     112.591 125.438 137.755  0.00  0.00    +0.000 A 
ATOM     26  C   UNL     1     113.197 125.071 137.334  0.00  0.00    +0.000 A 
ATOM     27  C   UNL     1     111.844 125.089 137.791  0.00  0.00    +0.000 A 
ATOM     28  C   UNL     1     113.058 124.355 136.949  0.00  0.00    +0.000 A 
ATOM     29  C   UNL     1     111.704 124.374 137.406  0.00  0.00    +0.000 A 
ATOM     30  C   UNL     1     112.311 124.006 136.985  0.00  0.00    +0.000 A 
ENDBRANCH  12  25
TORSDOF 2
ENDMDL
MODEL 3
REMARK VINA RESULT:      -9.9      4.528      7.371
REMARK  Name = 44257654
REMARK  2 active torsions:
REMARK  status: ('A' for Active; 'I' for Inactive)
REMARK    1  A    between atoms: C_10  and  C_14
REMARK    2  A    between atoms: C_23  and  C_25
REMARK                            x       y       z     vdW  Elec       q    Type
REMARK                         _______ _______ _______ _____ _____    ______ ____
ROOT
ATOM      1  O   UNL     1     106.472 125.388 146.155  0.00  0.00    +0.000 OA
ATOM      2  O   UNL     1     106.607 127.901 144.724  0.00  0.00    +0.000 OA
ATOM      3  O   UNL     1     105.629 125.561 143.406  0.00  0.00    +0.000 OA
ATOM      4  O   UNL     1     107.039 127.855 146.101  0.00  0.00    +0.000 OA
ATOM      5  C   UNL     1     106.118 126.730 144.066  0.00  0.00    +0.000 A 
ATOM      6  C   UNL     1     106.421 127.097 144.739  0.00  0.00    +0.000 A 
ATOM      7  C   UNL     1     105.932 125.927 144.080  0.00  0.00    +0.000 A 
ATOM      8  C   UNL     1     106.540 126.658 145.429  0.00  0.00    +0.000 A 
ATOM      9  C   UNL     1     106.354 125.855 145.444  0.00  0.00    +0.000 A 
ATOM     10  C   UNL     1     106.050 125.489 144.769  0.00  0.00    +0.000 A 
ATOM     11  C   UNL     1     106.856 127.051 146.124  0.00  0.00    +0.000 A 
ATOM     12  C   UNL     1     106.788 125.763 146.861  0.00  0.00    +0.000 A 
ATOM     13  C   UNL     1     106.982 126.600 146.846  0.00  0.00    +0.000 A 
ENDROOT
BRANCH   5  18
ATOM     14  O   UNL     1     105.291 127.575 143.262  0.00  0.00    +0.000 OA
ATOM     15  O   UNL     1     107.300 126.794 142.916  0.00  0.00    +0.000 OA
ATOM     16  O   UNL     1     107.063 127.670 141.538  0.00  0.00    +0.000 OA
ATOM     17  O   UNL     1     105.645 128.483 141.309  0.00  0.00    +0.000 OA
ATOM     18  C   UNL     1     106.000 127.169 143.376  0.00  0.00    +0.000 C 
ATOM     19  C   UNL     1     106.591 127.201 142.801  0.00  0.00    +0.000 C 
ATOM     20  C   UNL     1     106.472 127.638 142.112  0.00  0.00    +0.000 C 
ATOM     21  C   UNL     1     105.173 128.013 142.573  0.00  0.00    +0.000 C 
ATOM     22  C   UNL     1     105.764 128.045 141.998  0.00  0.00    +0.000 C 
ATOM     23  C   UNL     1     104.464 128.419 142.459  0.00  0.00    +0.000 C 
ENDBRANCH   5  18
BRANCH  12  25
ATOM     24  O   UNL     1     107.258 124.003 149.612  0.00  0.00    +0.000 OA
ATOM     25  C   UNL     1     106.905 125.323 147.549  0.00  0.00    +0.000 A 
ATOM     26  C   UNL     1     106.258 125.073 147.994  0.00  0.00    +0.000 A 
ATOM     27  C   UNL     1     107.671 125.133 147.792  0.00  0.00    +0.000 A 
ATOM     28  C   UNL     1     106.375 124.633 148.682  0.00  0.00    +0.000 A 
ATOM     29  C   UNL     1     107.788 124.693 148.479  0.00  0.00    +0.000 A 
ATOM     30  C   UNL     1     107.141 124.443 148.924  0.00  0.00    +0.000 A 
ENDBRANCH  12  25
TORSDOF 2
ENDMDL
MODEL 4
REMARK VINA RESULT:      -9.8      4.810      6.537
REMARK  Name = 44257654
REMARK  2 active torsions:
REMARK  status: ('A' for Active; 'I' for Inactive)
REMARK    1  A    between atoms: C_10  and  C_14
REMARK    2  A    between atoms: C_23  and  C_25
REMARK                            x       y       z     vdW  Elec       q    Type
REMARK                         _______ _______ _______ _____ _____    ______ ____
ROOT
ATOM      1  O   UNL     1     106.193 127.352 144.741  0.00  0.00    +0.000 OA
ATOM      2  O   UNL     1     106.524 124.747 145.959  0.00  0.00    +0.000 OA
ATOM      3  O   UNL     1     106.729 127.105 147.561  0.00  0.00    +0.000 OA
ATOM      4  O   UNL     1     106.257 124.829 144.543  0.00  0.00    +0.000 OA
ATOM      5  C   UNL     1     106.626 125.927 146.759  0.00  0.00    +0.000 A 
ATOM      6  C   UNL     1     106.504 125.569 146.026  0.00  0.00    +0.000 A 
ATOM      7  C   UNL     1     106.606 126.749 146.827  0.00  0.00    +0.000 A 
ATOM      8  C   UNL     1     106.361 126.035 145.360  0.00  0.00    +0.000 A 
ATOM      9  C   UNL     1     106.341 126.857 145.427  0.00  0.00    +0.000 A 
ATOM     10  C   UNL     1     106.464 127.213 146.161  0.00  0.00    +0.000 A 
ATOM     11  C   UNL     1     106.235 125.651 144.601  0.00  0.00    +0.000 A 
ATOM     12  C   UNL     1     106.065 126.986 143.973  0.00  0.00    +0.000 A 
ATOM     13  C   UNL     1     106.086 126.131 143.903  0.00  0.00    +0.000 A 
ENDROOT
BRANCH   5  18
ATOM     14  O   UNL     1     106.137 125.176 147.872  0.00  0.00    +0.000 OA
ATOM     15  O   UNL     1     108.176 125.567 147.198  0.00  0.00    +0.000 OA
ATOM     16  O   UNL     1     108.461 124.636 148.531  0.00  0.00    +0.000 OA
ATOM     17  O   UNL     1     107.196 124.065 149.424  0.00  0.00    +0.000 OA
ATOM     18  C   UNL     1     106.769 125.461 147.426  0.00  0.00    +0.000 C 
ATOM     19  C   UNL     1     107.544 125.281 147.646  0.00  0.00    +0.000 C 
ATOM     20  C   UNL     1     107.686 124.816 148.311  0.00  0.00    +0.000 C 
ATOM     21  C   UNL     1     106.280 124.710 148.539  0.00  0.00    +0.000 C 
ATOM     22  C   UNL     1     107.054 124.530 148.759  0.00  0.00    +0.000 C 
ATOM     23  C   UNL     1     105.647 124.425 148.985  0.00  0.00    +0.000 C 
ENDBRANCH   5  18
BRANCH  12  25
ATOM     24  O   UNL     1     105.496 128.856 141.315  0.00  0.00    +0.000 OA
ATOM     25  C   UNL     1     105.922 127.454 143.309  0.00  0.00    +0.000 A 
ATOM     26  C   UNL     1     105.163 127.739 143.159  0.00  0.00    +0.000 A 
ATOM     27  C   UNL     1     106.540 127.637 142.793  0.00  0.00    +0.000 A 
ATOM     28  C   UNL     1     105.020 128.206 142.495  0.00  0.00    +0.000 A 
ATOM     29  C   UNL     1     106.398 128.104 142.129  0.00  0.00    +0.000 A 
ATOM     30  C   UNL     1     105.639 128.389 141.980  0.00  0.00    +0.000 A 
ENDBRANCH  12  25
TORSDOF 2
ENDMDL
MODEL 5
REMARK VINA RESULT:      -9.7      6.995      8.173
REMARK  Name = 44257654
REMARK  2 active torsions:
REMARK  status: ('A' for Active; 'I' for Inactive)
REMARK    1  A    between atoms: C_10  and  C_14
REMARK    2  A    between atoms: C_23  and  C_25
REMARK                            x       y       z     vdW  Elec       q    Type
REMARK                         _______ _______ _______ _____ _____    ______ ____
ROOT
ATOM      1  O   UNL     1     110.846 126.824 136.861  0.00  0.00    +0.000 OA
ATOM      2  O   UNL     1     110.199 129.050 135.128  0.00  0.00    +0.000 OA
ATOM      3  O   UNL     1     109.225 129.006 137.815  0.00  0.00    +0.000 OA
ATOM      4  O   UNL     1     111.013 127.977 134.613  0.00  0.00    +0.000 OA
ATOM      5  C   UNL     1     109.712 129.028 136.472  0.00  0.00    +0.000 A 
ATOM      6  C   UNL     1     110.142 128.677 135.862  0.00  0.00    +0.000 A 
ATOM      7  C   UNL     1     109.656 128.654 137.205  0.00  0.00    +0.000 A 
ATOM      8  C   UNL     1     110.517 127.952 135.986  0.00  0.00    +0.000 A 
ATOM      9  C   UNL     1     110.461 127.578 136.719  0.00  0.00    +0.000 A 
ATOM     10  C   UNL     1     110.030 127.930 137.329  0.00  0.00    +0.000 A 
ATOM     11  C   UNL     1     110.962 127.596 135.343  0.00  0.00    +0.000 A 
ATOM     12  C   UNL     1     111.296 126.453 136.229  0.00  0.00    +0.000 A 
ATOM     13  C   UNL     1     111.355 126.841 135.466  0.00  0.00    +0.000 A 
ENDROOT
BRANCH   5  18
ATOM     14  O   UNL     1     109.747 130.456 136.481  0.00  0.00    +0.000 OA
ATOM     15  O   UNL     1     108.144 129.070 135.959  0.00  0.00    +0.000 OA
ATOM     16  O   UNL     1     107.396 130.519 135.711  0.00  0.00    +0.000 OA
ATOM     17  O   UNL     1     108.215 131.927 135.976  0.00  0.00    +0.000 OA
ATOM     18  C   UNL     1     109.337 129.753 136.348  0.00  0.00    +0.000 C 
ATOM     19  C   UNL     1     108.553 129.774 136.091  0.00  0.00    +0.000 C 
ATOM     20  C   UNL     1     108.180 130.498 135.967  0.00  0.00    +0.000 C 
ATOM     21  C   UNL     1     109.373 131.181 136.357  0.00  0.00    +0.000 C 
ATOM     22  C   UNL     1     108.589 131.202 136.100  0.00  0.00    +0.000 C 
ATOM     23  C   UNL     1     109.783 131.885 136.489  0.00  0.00    +0.000 C 
ENDBRANCH   5  18
BRANCH  12  25
ATOM     24  O   UNL     1     112.791 123.555 136.736  0.00  0.00    +0.000 OA
ATOM     25  C   UNL     1     111.670 125.728 136.356  0.00  0.00    +0.000 A 
ATOM     26  C   UNL     1     111.265 125.024 136.212  0.00  0.00    +0.000 A 
ATOM     27  C   UNL     1     112.449 125.707 136.626  0.00  0.00    +0.000 A 
ATOM     28  C   UNL     1     111.639 124.299 136.339  0.00  0.00    +0.000 A 
ATOM     29  C   UNL     1     112.823 124.984 136.753  0.00  0.00    +0.000 A 
ATOM     30  C   UNL     1     112.418 124.280 136.609  0.00  0.00    +0.000 A 
ENDBRANCH  12  25
TORSDOF 2
ENDMDL
MODEL 6
REMARK VINA RESULT:      -9.7      7.470      9.009
REMARK  Name = 44257654
REMARK  2 active torsions:
REMARK  status: ('A' for Active; 'I' for Inactive)
REMARK    1  A    between atoms: C_10  and  C_14
REMARK    2  A    between atoms: C_23  and  C_25
REMARK                            x       y       z     vdW  Elec       q    Type
REMARK                         _______ _______ _______ _____ _____    ______ ____
ROOT
ATOM      1  O   UNL     1     112.133 126.579 136.103  0.00  0.00    +0.000 OA
ATOM      2  O   UNL     1     110.922 129.090 136.880  0.00  0.00    +0.000 OA
ATOM      3  O   UNL     1     109.922 127.669 134.612  0.00  0.00    +0.000 OA
ATOM      4  O   UNL     1     112.028 128.578 137.653  0.00  0.00    +0.000 OA
ATOM      5  C   UNL     1     110.423 128.379 135.746  0.00  0.00    +0.000 A 
ATOM      6  C   UNL     1     110.954 128.440 136.374  0.00  0.00    +0.000 A 
ATOM      7  C   UNL     1     110.454 127.729 135.240  0.00  0.00    +0.000 A 
ATOM      8  C   UNL     1     111.519 127.849 136.495  0.00  0.00    +0.000 A 
ATOM      9  C   UNL     1     111.551 127.199 135.988  0.00  0.00    +0.000 A 
ATOM     10  C   UNL     1     111.018 127.139 135.361  0.00  0.00    +0.000 A 
ATOM     11  C   UNL     1     112.067 127.924 137.152  0.00  0.00    +0.000 A 
ATOM     12  C   UNL     1     112.690 126.636 136.755  0.00  0.00    +0.000 A 
ATOM     13  C   UNL     1     112.657 127.313 137.283  0.00  0.00    +0.000 A 
ENDROOT
BRANCH   5  18
ATOM     14  O   UNL     1     110.049 129.636 135.179  0.00  0.00    +0.000 OA
ATOM     15  O   UNL     1     108.914 128.224 136.396  0.00  0.00    +0.000 OA
ATOM     16  O   UNL     1     107.786 129.404 136.155  0.00  0.00    +0.000 OA
ATOM     17  O   UNL     1     108.167 130.739 135.263  0.00  0.00    +0.000 OA
ATOM     18  C   UNL     1     109.858 128.969 135.625  0.00  0.00    +0.000 C 
ATOM     19  C   UNL     1     109.104 128.892 135.950  0.00  0.00    +0.000 C 
ATOM     20  C   UNL     1     108.541 129.481 135.830  0.00  0.00    +0.000 C 
ATOM     21  C   UNL     1     109.485 130.227 135.059  0.00  0.00    +0.000 C 
ATOM     22  C   UNL     1     108.730 130.149 135.384  0.00  0.00    +0.000 C 
ATOM     23  C   UNL     1     109.676 130.894 134.613  0.00  0.00    +0.000 C 
ENDBRANCH   5  18
BRANCH  12  25
ATOM     24  O   UNL     1     114.943 124.272 137.229  0.00  0.00    +0.000 OA
ATOM     25  C   UNL     1     113.253 126.044 136.874  0.00  0.00    +0.000 A 
ATOM     26  C   UNL     1     113.052 125.359 137.286  0.00  0.00    +0.000 A 
ATOM     27  C   UNL     1     114.019 126.139 136.580  0.00  0.00    +0.000 A 
ATOM     28  C   UNL     1     113.615 124.768 137.405  0.00  0.00    +0.000 A 
ATOM     29  C   UNL     1     114.581 125.548 136.698  0.00  0.00    +0.000 A 
ATOM     30  C   UNL     1     114.380 124.863 137.110  0.00  0.00    +0.000 A 
ENDBRANCH  12  25
TORSDOF 2
ENDMDL
MODEL 7
REMARK VINA RESULT:      -9.6      3.979      5.911
REMARK  Name = 44257654
REMARK  2 active torsions:
REMARK  status: ('A' for Active; 'I' for Inactive)
REMARK    1  A    between atoms: C_10  and  C_14
REMARK    2  A    between atoms: C_23  and  C_25
REMARK                            x       y       z     vdW  Elec       q    Type
REMARK                         _______ _______ _______ _____ _____    ______ ____
ROOT
ATOM      1  O   UNL     1     103.593 130.023 142.334  0.00  0.00    +0.000 OA
ATOM      2  O   UNL     1     104.584 127.643 141.017  0.00  0.00    +0.000 OA
ATOM      3  O   UNL     1     105.652 128.417 143.553  0.00  0.00    +0.000 OA
ATOM      4  O   UNL     1     103.552 128.421 140.374  0.00  0.00    +0.000 OA
ATOM      5  C   UNL     1     105.118 128.031 142.285  0.00  0.00    +0.000 A 
ATOM      6  C   UNL     1     104.600 128.164 141.657  0.00  0.00    +0.000 A 
ATOM      7  C   UNL     1     105.133 128.551 142.925  0.00  0.00    +0.000 A 
ATOM      8  C   UNL     1     104.096 128.818 141.669  0.00  0.00    +0.000 A 
ATOM      9  C   UNL     1     104.112 129.339 142.309  0.00  0.00    +0.000 A 
ATOM     10  C   UNL     1     104.630 129.205 142.937  0.00  0.00    +0.000 A 
ATOM     11  C   UNL     1     103.561 128.946 141.010  0.00  0.00    +0.000 A 
ATOM     12  C   UNL     1     103.051 130.168 141.683  0.00  0.00    +0.000 A 
ATOM     13  C   UNL     1     103.035 129.626 141.016  0.00  0.00    +0.000 A 
ENDROOT
BRANCH   5  18
ATOM     14  O   UNL     1     105.379 126.665 142.613  0.00  0.00    +0.000 OA
ATOM     15  O   UNL     1     106.605 128.147 141.581  0.00  0.00    +0.000 OA
ATOM     16  O   UNL     1     107.611 126.839 141.557  0.00  0.00    +0.000 OA
ATOM     17  O   UNL     1     107.128 125.415 142.236  0.00  0.00    +0.000 OA
ATOM     18  C   UNL     1     105.621 127.376 142.273  0.00  0.00    +0.000 C 
ATOM     19  C   UNL     1     106.365 127.434 141.921  0.00  0.00    +0.000 C 
ATOM     20  C   UNL     1     106.867 126.781 141.909  0.00  0.00    +0.000 C 
ATOM     21  C   UNL     1     105.882 126.010 142.601  0.00  0.00    +0.000 C 
ATOM     22  C   UNL     1     106.626 126.068 142.248  0.00  0.00    +0.000 C 
ATOM     23  C   UNL     1     105.641 125.299 142.941  0.00  0.00    +0.000 C 
ENDBRANCH   5  18
BRANCH  12  25
ATOM     24  O   UNL     1     101.045 132.787 141.741  0.00  0.00    +0.000 OA
ATOM     25  C   UNL     1     102.549 130.822 141.697  0.00  0.00    +0.000 A 
ATOM     26  C   UNL     1     101.765 130.736 141.937  0.00  0.00    +0.000 A 
ATOM     27  C   UNL     1     102.832 131.564 141.472  0.00  0.00    +0.000 A 
ATOM     28  C   UNL     1     101.263 131.391 141.952  0.00  0.00    +0.000 A 
ATOM     29  C   UNL     1     102.331 132.218 141.486  0.00  0.00    +0.000 A 
ATOM     30  C   UNL     1     101.547 132.132 141.726  0.00  0.00    +0.000 A 
ENDBRANCH  12  25
TORSDOF 2
ENDMDL
MODEL 8
REMARK VINA RESULT:      -9.5      7.497     10.091
REMARK  Name = 44257654
REMARK  2 active torsions:
REMARK  status: ('A' for Active; 'I' for Inactive)
REMARK    1  A    between atoms: C_10  and  C_14
REMARK    2  A    between atoms: C_23  and  C_25
REMARK                            x       y       z     vdW  Elec       q    Type
REMARK                         _______ _______ _______ _____ _____    ______ ____
ROOT
ATOM      1  O   UNL     1     113.404 128.858 139.431  0.00  0.00    +0.000 OA
ATOM      2  O   UNL     1     113.605 125.974 139.301  0.00  0.00    +0.000 OA
ATOM      3  O   UNL     1     112.362 127.413 137.167  0.00  0.00    +0.000 OA
ATOM      4  O   UNL     1     114.139 126.661 140.452  0.00  0.00    +0.000 OA
ATOM      5  C   UNL     1     112.984 126.694 138.234  0.00  0.00    +0.000 A 
ATOM      6  C   UNL     1     113.364 126.688 138.966  0.00  0.00    +0.000 A 
ATOM      7  C   UNL     1     112.743 127.409 137.899  0.00  0.00    +0.000 A 
ATOM      8  C   UNL     1     113.504 127.399 139.363  0.00  0.00    +0.000 A 
ATOM      9  C   UNL     1     113.264 128.113 139.028  0.00  0.00    +0.000 A 
ATOM     10  C   UNL     1     112.883 128.118 138.296  0.00  0.00    +0.000 A 
ATOM     11  C   UNL     1     113.902 127.380 140.124  0.00  0.00    +0.000 A 
ATOM     12  C   UNL     1     113.800 128.860 140.194  0.00  0.00    +0.000 A 
ATOM     13  C   UNL     1     114.051 128.116 140.543  0.00  0.00    +0.000 A 
ENDROOT
BRANCH   5  18
ATOM     14  O   UNL     1     113.418 125.674 137.333  0.00  0.00    +0.000 OA
ATOM     15  O   UNL     1     111.555 125.897 138.448  0.00  0.00    +0.000 OA
ATOM     16  O   UNL     1     111.275 124.478 137.654  0.00  0.00    +0.000 OA
ATOM     17  O   UNL     1     112.424 123.856 136.646  0.00  0.00    +0.000 OA
ATOM     18  C   UNL     1     112.843 125.984 137.837  0.00  0.00    +0.000 C 
ATOM     19  C   UNL     1     112.129 125.586 137.944  0.00  0.00    +0.000 C 
ATOM     20  C   UNL     1     111.989 124.877 137.547  0.00  0.00    +0.000 C 
ATOM     21  C   UNL     1     113.278 124.963 136.936  0.00  0.00    +0.000 C 
ATOM     22  C   UNL     1     112.563 124.565 137.043  0.00  0.00    +0.000 C 
ATOM     23  C   UNL     1     113.852 124.653 136.432  0.00  0.00    +0.000 C 
ENDBRANCH   5  18
BRANCH  12  25
ATOM     24  O   UNL     1     114.357 131.703 141.773  0.00  0.00    +0.000 OA
ATOM     25  C   UNL     1     113.939 129.571 140.589  0.00  0.00    +0.000 A 
ATOM     26  C   UNL     1     113.387 129.857 141.131  0.00  0.00    +0.000 A 
ATOM     27  C   UNL     1     114.631 129.996 140.442  0.00  0.00    +0.000 A 
ATOM     28  C   UNL     1     113.526 130.568 141.525  0.00  0.00    +0.000 A 
ATOM     29  C   UNL     1     114.770 130.706 140.836  0.00  0.00    +0.000 A 
ATOM     30  C   UNL     1     114.218 130.992 141.378  0.00  0.00    +0.000 A 
ENDBRANCH  12  25
TORSDOF 2
ENDMDL
MODEL 9
REMARK VINA RESULT:      -9.4      7.374      8.426
REMARK  Name = 44257654
REMARK  2 active torsions:
REMARK  status: ('A' for Active; 'I' for Inactive)
REMARK    1  A    between atoms: C_10  and  C_14
REMARK    2  A    between atoms: C_23  and  C_25
REMARK                            x       y       z     vdW  Elec       q    Type
REMARK                         _______ _______ _______ _____ _____    ______ ____
ROOT
ATOM      1  O   UNL     1     110.142 128.101 135.375  0.00  0.00    +0.000 OA
ATOM      2  O   UNL     1     112.031 126.936 137.233  0.00  0.00    +0.000 OA
ATOM      3  O   UNL     1     110.924 125.338 135.138  0.00  0.00    +0.000 OA
ATOM      4  O   UNL     1     111.664 128.323 137.386  0.00  0.00    +0.000 OA
ATOM      5  C   UNL     1     111.477 126.137 136.185  0.00  0.00    +0.000 A 
ATOM      6  C   UNL     1     111.535 126.860 136.578  0.00  0.00    +0.000 A 
ATOM      7  C   UNL     1     110.982 126.062 135.530  0.00  0.00    +0.000 A 
ATOM      8  C   UNL     1     111.098 127.509 136.314  0.00  0.00    +0.000 A 
ATOM      9  C   UNL     1     110.603 127.434 135.659  0.00  0.00    +0.000 A 
ATOM     10  C   UNL     1     110.545 126.710 135.267  0.00  0.00    +0.000 A 
ATOM     11  C   UNL     1     111.167 128.257 136.731  0.00  0.00    +0.000 A 
ATOM     12  C   UNL     1     110.198 128.857 135.779  0.00  0.00    +0.000 A 
ATOM     13  C   UNL     1     110.714 128.936 136.462  0.00  0.00    +0.000 A 
ENDROOT
BRANCH   5  18
ATOM     14  O   UNL     1     112.699 125.396 136.209  0.00  0.00    +0.000 OA
ATOM     15  O   UNL     1     110.784 125.027 137.190  0.00  0.00    +0.000 OA
ATOM     16  O   UNL     1     111.659 123.731 137.717  0.00  0.00    +0.000 OA
ATOM     17  O   UNL     1     113.227 123.545 137.238  0.00  0.00    +0.000 OA
ATOM     18  C   UNL     1     111.915 125.489 136.449  0.00  0.00    +0.000 C 
ATOM     19  C   UNL     1     111.568 124.934 136.951  0.00  0.00    +0.000 C 
ATOM     20  C   UNL     1     112.006 124.286 137.214  0.00  0.00    +0.000 C 
ATOM     21  C   UNL     1     113.136 124.747 136.473  0.00  0.00    +0.000 C 
ATOM     22  C   UNL     1     112.790 124.193 136.975  0.00  0.00    +0.000 C 
ATOM     23  C   UNL     1     113.920 124.655 136.233  0.00  0.00    +0.000 C 
ENDBRANCH   5  18
BRANCH  12  25
ATOM     24  O   UNL     1     108.446 131.443 134.717  0.00  0.00    +0.000 OA
ATOM     25  C   UNL     1     109.760 129.504 135.514  0.00  0.00    +0.000 A 
ATOM     26  C   UNL     1     109.050 129.702 135.884  0.00  0.00    +0.000 A 
ATOM     27  C   UNL     1     110.032 129.953 134.878  0.00  0.00    +0.000 A 
ATOM     28  C   UNL     1     108.611 130.348 135.618  0.00  0.00    +0.000 A 
ATOM     29  C   UNL     1     109.594 130.599 134.612  0.00  0.00    +0.000 A 
ATOM     30  C   UNL     1     108.884 130.797 134.982  0.00  0.00    +0.000 A 
ENDBRANCH  12  25
TORSDOF 2
ENDMDL
