MODEL 1
REMARK VINA RESULT:      -8.8      0.000      0.000
REMARK  Name = 44258211
REMARK  4 active torsions:
REMARK  status: ('A' for Active; 'I' for Inactive)
REMARK    1  A    between atoms: S_1  and  O_3
REMARK    2  A    between atoms: O_3  and  C_19
REMARK    3  A    between atoms: O_6  and  C_23
REMARK    4  A    between atoms: C_13  and  C_14
REMARK                            x       y       z     vdW  Elec       q    Type
REMARK                         _______ _______ _______ _____ _____    ______ ____
ROOT
ATOM      1  O   UNL     1     104.229 124.220 146.683  0.00  0.00    +0.000 OA
ATOM      2  O   UNL     1     101.634 125.004 147.683  0.00  0.00    +0.000 OA
ATOM      3  O   UNL     1     102.829 125.712 148.074  0.00  0.00    +0.000 OA
ATOM      4  C   UNL     1     102.945 124.607 147.177  0.00  0.00    +0.000 A 
ATOM      5  C   UNL     1     103.412 124.109 146.713  0.00  0.00    +0.000 A 
ATOM      6  C   UNL     1     104.579 124.828 147.117  0.00  0.00    +0.000 A 
ATOM      7  C   UNL     1     103.295 125.215 147.611  0.00  0.00    +0.000 A 
ATOM      8  C   UNL     1     102.093 124.502 147.217  0.00  0.00    +0.000 A 
ATOM      9  C   UNL     1     104.113 125.326 147.581  0.00  0.00    +0.000 A 
ATOM     10  C   UNL     1     103.059 123.472 146.257  0.00  0.00    +0.000 A 
ATOM     11  C   UNL     1     102.209 123.352 146.284  0.00  0.00    +0.000 A 
ATOM     12  C   UNL     1     101.723 123.870 146.767  0.00  0.00    +0.000 A 
ENDROOT
BRANCH   6  14
ATOM     13  O   UNL     1     107.848 125.268 146.997  0.00  0.00    +0.000 OA
ATOM     14  C   UNL     1     105.396 124.939 147.086  0.00  0.00    +0.000 A 
ATOM     15  C   UNL     1     105.746 125.249 146.407  0.00  0.00    +0.000 A 
ATOM     16  C   UNL     1     105.864 124.738 147.737  0.00  0.00    +0.000 A 
ATOM     17  C   UNL     1     106.563 125.359 146.377  0.00  0.00    +0.000 A 
ATOM     18  C   UNL     1     106.681 124.848 147.706  0.00  0.00    +0.000 A 
ATOM     19  C   UNL     1     107.030 125.158 147.027  0.00  0.00    +0.000 A 
BRANCH  17  20
ATOM     20  O   UNL     1     106.913 125.669 145.698  0.00  0.00    +0.000 OA
ATOM     21  C   UNL     1     106.465 126.119 145.172  0.00  0.00    +0.000 C 
ENDBRANCH  17  20
ENDBRANCH   6  14
BRANCH  11  22
ATOM     22  O   UNL     1     101.862 122.742 145.849  0.00  0.00    +0.000 OA
BRANCH  22  23
ATOM     23  S   UNL     1     101.382 122.920 145.202  0.00  0.00    +0.000 S 
ATOM     24  O   UNL     1     100.901 123.098 144.556  0.00  0.00    +0.000 OA
ATOM     25  O   UNL     1     102.052 123.023 144.733  0.00  0.00    +0.000 OA
ATOM     26  O   UNL     1     100.711 122.817 145.672  0.00  0.00    +0.000 OA
ENDBRANCH  22  23
ENDBRANCH  11  22
TORSDOF 4
ENDMDL
MODEL 2
REMARK VINA RESULT:      -8.6      1.897      5.046
REMARK  Name = 44258211
REMARK  4 active torsions:
REMARK  status: ('A' for Active; 'I' for Inactive)
REMARK    1  A    between atoms: S_1  and  O_3
REMARK    2  A    between atoms: O_3  and  C_19
REMARK    3  A    between atoms: O_6  and  C_23
REMARK    4  A    between atoms: C_13  and  C_14
REMARK                            x       y       z     vdW  Elec       q    Type
REMARK                         _______ _______ _______ _____ _____    ______ ____
ROOT
ATOM      1  O   UNL     1     104.629 124.261 147.221  0.00  0.00    +0.000 OA
ATOM      2  O   UNL     1     107.081 125.329 146.127  0.00  0.00    +0.000 OA
ATOM      3  O   UNL     1     105.996 124.925 145.268  0.00  0.00    +0.000 OA
ATOM      4  C   UNL     1     105.842 124.790 146.681  0.00  0.00    +0.000 A 
ATOM      5  C   UNL     1     105.387 124.568 147.332  0.00  0.00    +0.000 A 
ATOM      6  C   UNL     1     104.327 124.175 146.458  0.00  0.00    +0.000 A 
ATOM      7  C   UNL     1     105.540 124.704 145.919  0.00  0.00    +0.000 A 
ATOM      8  C   UNL     1     106.633 125.111 146.785  0.00  0.00    +0.000 A 
ATOM      9  C   UNL     1     104.783 124.397 145.807  0.00  0.00    +0.000 A 
ATOM     10  C   UNL     1     105.690 124.653 148.132  0.00  0.00    +0.000 A 
ATOM     11  C   UNL     1     106.478 124.972 148.255  0.00  0.00    +0.000 A 
ATOM     12  C   UNL     1     106.953 125.203 147.577  0.00  0.00    +0.000 A 
ENDROOT
BRANCH   6  14
ATOM     13  O   UNL     1     101.298 122.944 146.012  0.00  0.00    +0.000 OA
ATOM     14  C   UNL     1     103.570 123.868 146.347  0.00  0.00    +0.000 A 
ATOM     15  C   UNL     1     102.912 124.279 146.628  0.00  0.00    +0.000 A 
ATOM     16  C   UNL     1     103.470 123.149 145.953  0.00  0.00    +0.000 A 
ATOM     17  C   UNL     1     102.155 123.971 146.517  0.00  0.00    +0.000 A 
ATOM     18  C   UNL     1     102.713 122.842 145.842  0.00  0.00    +0.000 A 
ATOM     19  C   UNL     1     102.055 123.253 146.124  0.00  0.00    +0.000 A 
BRANCH  17  20
ATOM     20  O   UNL     1     101.497 124.382 146.798  0.00  0.00    +0.000 OA
ATOM     21  C   UNL     1     101.482 124.654 147.577  0.00  0.00    +0.000 C 
ENDBRANCH  17  20
ENDBRANCH   6  14
BRANCH  11  22
ATOM     22  O   UNL     1     106.777 125.057 149.020  0.00  0.00    +0.000 OA
BRANCH  22  23
ATOM     23  S   UNL     1     107.314 124.504 149.315  0.00  0.00    +0.000 S 
ATOM     24  O   UNL     1     107.851 123.952 149.611  0.00  0.00    +0.000 OA
ATOM     25  O   UNL     1     106.688 124.015 149.537  0.00  0.00    +0.000 OA
ATOM     26  O   UNL     1     107.940 124.994 149.094  0.00  0.00    +0.000 OA
ENDBRANCH  22  23
ENDBRANCH  11  22
TORSDOF 4
ENDMDL
MODEL 3
REMARK VINA RESULT:      -8.2     12.507     13.644
REMARK  Name = 44258211
REMARK  4 active torsions:
REMARK  status: ('A' for Active; 'I' for Inactive)
REMARK    1  A    between atoms: S_1  and  O_3
REMARK    2  A    between atoms: O_3  and  C_19
REMARK    3  A    between atoms: O_6  and  C_23
REMARK    4  A    between atoms: C_13  and  C_14
REMARK                            x       y       z     vdW  Elec       q    Type
REMARK                         _______ _______ _______ _____ _____    ______ ____
ROOT
ATOM      1  O   UNL     1     112.207 126.670 136.040  0.00  0.00    +0.000 OA
ATOM      2  O   UNL     1     109.685 125.970 134.815  0.00  0.00    +0.000 OA
ATOM      3  O   UNL     1     110.464 124.989 135.530  0.00  0.00    +0.000 OA
ATOM      4  C   UNL     1     110.960 126.325 135.434  0.00  0.00    +0.000 A 
ATOM      5  C   UNL     1     111.541 126.885 135.604  0.00  0.00    +0.000 A 
ATOM      6  C   UNL     1     112.293 125.893 136.306  0.00  0.00    +0.000 A 
ATOM      7  C   UNL     1     111.045 125.549 135.700  0.00  0.00    +0.000 A 
ATOM      8  C   UNL     1     110.261 126.538 134.981  0.00  0.00    +0.000 A 
ATOM      9  C   UNL     1     111.712 125.332 136.136  0.00  0.00    +0.000 A 
ATOM     10  C   UNL     1     111.464 127.697 135.332  0.00  0.00    +0.000 A 
ATOM     11  C   UNL     1     110.772 127.928 134.878  0.00  0.00    +0.000 A 
ATOM     12  C   UNL     1     110.167 127.344 134.701  0.00  0.00    +0.000 A 
ENDROOT
BRANCH   6  14
ATOM     13  O   UNL     1     114.960 125.030 138.047  0.00  0.00    +0.000 OA
ATOM     14  C   UNL     1     112.959 125.678 136.741  0.00  0.00    +0.000 A 
ATOM     15  C   UNL     1     113.046 125.938 137.519  0.00  0.00    +0.000 A 
ATOM     16  C   UNL     1     113.539 125.201 136.399  0.00  0.00    +0.000 A 
ATOM     17  C   UNL     1     113.713 125.722 137.954  0.00  0.00    +0.000 A 
ATOM     18  C   UNL     1     114.206 124.985 136.834  0.00  0.00    +0.000 A 
ATOM     19  C   UNL     1     114.293 125.246 137.612  0.00  0.00    +0.000 A 
BRANCH  17  20
ATOM     20  O   UNL     1     113.800 125.983 138.732  0.00  0.00    +0.000 OA
ATOM     21  C   UNL     1     113.235 126.482 139.066  0.00  0.00    +0.000 C 
ENDBRANCH  17  20
ENDBRANCH   6  14
BRANCH  11  22
ATOM     22  O   UNL     1     110.690 128.706 134.614  0.00  0.00    +0.000 OA
BRANCH  22  23
ATOM     23  S   UNL     1     110.390 129.284 135.121  0.00  0.00    +0.000 S 
ATOM     24  O   UNL     1     110.091 129.861 135.628  0.00  0.00    +0.000 OA
ATOM     25  O   UNL     1     109.622 129.080 134.899  0.00  0.00    +0.000 OA
ATOM     26  O   UNL     1     111.159 129.487 135.342  0.00  0.00    +0.000 OA
ENDBRANCH  22  23
ENDBRANCH  11  22
TORSDOF 4
ENDMDL
MODEL 4
REMARK VINA RESULT:      -8.2      3.490      4.235
REMARK  Name = 44258211
REMARK  4 active torsions:
REMARK  status: ('A' for Active; 'I' for Inactive)
REMARK    1  A    between atoms: S_1  and  O_3
REMARK    2  A    between atoms: O_3  and  C_19
REMARK    3  A    between atoms: O_6  and  C_23
REMARK    4  A    between atoms: C_13  and  C_14
REMARK                            x       y       z     vdW  Elec       q    Type
REMARK                         _______ _______ _______ _____ _____    ______ ____
ROOT
ATOM      1  O   UNL     1     106.610 125.384 146.310  0.00  0.00    +0.000 OA
ATOM      2  O   UNL     1     106.208 127.926 144.996  0.00  0.00    +0.000 OA
ATOM      3  O   UNL     1     106.742 127.855 146.334  0.00  0.00    +0.000 OA
ATOM      4  C   UNL     1     106.411 126.641 145.659  0.00  0.00    +0.000 A 
ATOM      5  C   UNL     1     106.367 125.817 145.651  0.00  0.00    +0.000 A 
ATOM      6  C   UNL     1     106.898 125.776 146.977  0.00  0.00    +0.000 A 
ATOM      7  C   UNL     1     106.698 127.032 146.326  0.00  0.00    +0.000 A 
ATOM      8  C   UNL     1     106.160 127.103 144.979  0.00  0.00    +0.000 A 
ATOM      9  C   UNL     1     106.942 126.599 146.986  0.00  0.00    +0.000 A 
ATOM     10  C   UNL     1     106.070 125.398 144.962  0.00  0.00    +0.000 A 
ATOM     11  C   UNL     1     105.815 125.843 144.273  0.00  0.00    +0.000 A 
ATOM     12  C   UNL     1     105.860 126.701 144.281  0.00  0.00    +0.000 A 
ENDROOT
BRANCH   6  14
ATOM     13  O   UNL     1     107.873 124.043 149.611  0.00  0.00    +0.000 OA
ATOM     14  C   UNL     1     107.141 125.343 147.636  0.00  0.00    +0.000 A 
ATOM     15  C   UNL     1     106.581 125.035 148.157  0.00  0.00    +0.000 A 
ATOM     16  C   UNL     1     107.946 125.217 147.773  0.00  0.00    +0.000 A 
ATOM     17  C   UNL     1     106.826 124.601 148.816  0.00  0.00    +0.000 A 
ATOM     18  C   UNL     1     108.189 124.784 148.431  0.00  0.00    +0.000 A 
ATOM     19  C   UNL     1     107.629 124.476 148.953  0.00  0.00    +0.000 A 
BRANCH  17  20
ATOM     20  O   UNL     1     106.266 124.293 149.338  0.00  0.00    +0.000 OA
ATOM     21  C   UNL     1     105.588 124.727 149.519  0.00  0.00    +0.000 C 
ENDBRANCH  17  20
ENDBRANCH   6  14
BRANCH  11  22
ATOM     22  O   UNL     1     105.528 125.449 143.607  0.00  0.00    +0.000 OA
BRANCH  22  23
ATOM     23  S   UNL     1     106.016 125.340 142.951  0.00  0.00    +0.000 S 
ATOM     24  O   UNL     1     106.504 125.231 142.294  0.00  0.00    +0.000 OA
ATOM     25  O   UNL     1     105.664 125.988 142.581  0.00  0.00    +0.000 OA
ATOM     26  O   UNL     1     106.368 124.691 143.320  0.00  0.00    +0.000 OA
ENDBRANCH  22  23
ENDBRANCH  11  22
TORSDOF 4
ENDMDL
MODEL 5
REMARK VINA RESULT:      -8.1      7.217      8.735
REMARK  Name = 44258211
REMARK  4 active torsions:
REMARK  status: ('A' for Active; 'I' for Inactive)
REMARK    1  A    between atoms: S_1  and  O_3
REMARK    2  A    between atoms: O_3  and  C_19
REMARK    3  A    between atoms: O_6  and  C_23
REMARK    4  A    between atoms: C_13  and  C_14
REMARK                            x       y       z     vdW  Elec       q    Type
REMARK                         _______ _______ _______ _____ _____    ______ ____
ROOT
ATOM      1  O   UNL     1     102.898 130.473 142.013  0.00  0.00    +0.000 OA
ATOM      2  O   UNL     1     103.527 128.302 140.213  0.00  0.00    +0.000 OA
ATOM      3  O   UNL     1     102.586 129.330 139.841  0.00  0.00    +0.000 OA
ATOM      4  C   UNL     1     103.210 129.399 141.124  0.00  0.00    +0.000 A 
ATOM      5  C   UNL     1     103.314 129.781 141.848  0.00  0.00    +0.000 A 
ATOM      6  C   UNL     1     102.377 130.785 141.454  0.00  0.00    +0.000 A 
ATOM      7  C   UNL     1     102.690 129.711 140.565  0.00  0.00    +0.000 A 
ATOM      8  C   UNL     1     103.638 128.677 140.940  0.00  0.00    +0.000 A 
ATOM      9  C   UNL     1     102.273 130.404 140.729  0.00  0.00    +0.000 A 
ATOM     10  C   UNL     1     103.853 129.466 142.438  0.00  0.00    +0.000 A 
ATOM     11  C   UNL     1     104.290 128.744 142.272  0.00  0.00    +0.000 A 
ATOM     12  C   UNL     1     104.181 128.347 141.518  0.00  0.00    +0.000 A 
ENDROOT
BRANCH   6  14
ATOM     13  O   UNL     1     100.711 133.556 142.117  0.00  0.00    +0.000 OA
ATOM     14  C   UNL     1     101.961 131.478 141.619  0.00  0.00    +0.000 A 
ATOM     15  C   UNL     1     102.309 132.213 141.475  0.00  0.00    +0.000 A 
ATOM     16  C   UNL     1     101.197 131.436 141.929  0.00  0.00    +0.000 A 
ATOM     17  C   UNL     1     101.891 132.905 141.641  0.00  0.00    +0.000 A 
ATOM     18  C   UNL     1     100.781 132.129 142.094  0.00  0.00    +0.000 A 
ATOM     19  C   UNL     1     101.128 132.863 141.951  0.00  0.00    +0.000 A 
BRANCH  17  20
ATOM     20  O   UNL     1     102.238 133.639 141.498  0.00  0.00    +0.000 OA
ATOM     21  C   UNL     1     102.966 133.684 141.112  0.00  0.00    +0.000 C 
ENDBRANCH  17  20
ENDBRANCH   6  14
BRANCH  11  22
ATOM     22  O   UNL     1     104.810 128.436 142.834  0.00  0.00    +0.000 OA
BRANCH  22  23
ATOM     23  S   UNL     1     105.621 128.426 142.683  0.00  0.00    +0.000 S 
ATOM     24  O   UNL     1     106.432 128.416 142.532  0.00  0.00    +0.000 OA
ATOM     25  O   UNL     1     105.674 129.215 142.919  0.00  0.00    +0.000 OA
ATOM     26  O   UNL     1     105.567 127.637 142.448  0.00  0.00    +0.000 OA
ENDBRANCH  22  23
ENDBRANCH  11  22
TORSDOF 4
ENDMDL
MODEL 6
REMARK VINA RESULT:      -8.0      8.832     10.201
REMARK  Name = 44258211
REMARK  4 active torsions:
REMARK  status: ('A' for Active; 'I' for Inactive)
REMARK    1  A    between atoms: S_1  and  O_3
REMARK    2  A    between atoms: O_3  and  C_19
REMARK    3  A    between atoms: O_6  and  C_23
REMARK    4  A    between atoms: C_13  and  C_14
REMARK                            x       y       z     vdW  Elec       q    Type
REMARK                         _______ _______ _______ _____ _____    ______ ____
ROOT
ATOM      1  O   UNL     1     103.031 132.041 141.196  0.00  0.00    +0.000 OA
ATOM      2  O   UNL     1     100.921 133.870 141.938  0.00  0.00    +0.000 OA
ATOM      3  O   UNL     1     100.797 132.453 142.178  0.00  0.00    +0.000 OA
ATOM      4  C   UNL     1     101.988 132.946 141.562  0.00  0.00    +0.000 A 
ATOM      5  C   UNL     1     102.733 132.809 141.235  0.00  0.00    +0.000 A 
ATOM      6  C   UNL     1     102.584 131.409 141.484  0.00  0.00    +0.000 A 
ATOM      7  C   UNL     1     101.542 132.316 141.850  0.00  0.00    +0.000 A 
ATOM      8  C   UNL     1     101.667 133.742 141.609  0.00  0.00    +0.000 A 
ATOM      9  C   UNL     1     101.839 131.547 141.812  0.00  0.00    +0.000 A 
ATOM     10  C   UNL     1     103.208 133.458 140.931  0.00  0.00    +0.000 A 
ATOM     11  C   UNL     1     102.903 134.260 140.969  0.00  0.00    +0.000 A 
ATOM     12  C   UNL     1     102.127 134.403 141.310  0.00  0.00    +0.000 A 
ENDROOT
BRANCH   6  14
ATOM     13  O   UNL     1     103.779 128.337 141.329  0.00  0.00    +0.000 OA
ATOM     14  C   UNL     1     102.883 130.641 141.445  0.00  0.00    +0.000 A 
ATOM     15  C   UNL     1     102.776 130.191 140.761  0.00  0.00    +0.000 A 
ATOM     16  C   UNL     1     103.288 130.323 142.090  0.00  0.00    +0.000 A 
ATOM     17  C   UNL     1     103.075 129.423 140.723  0.00  0.00    +0.000 A 
ATOM     18  C   UNL     1     103.587 129.555 142.050  0.00  0.00    +0.000 A 
ATOM     19  C   UNL     1     103.480 129.105 141.367  0.00  0.00    +0.000 A 
BRANCH  17  20
ATOM     20  O   UNL     1     102.969 128.973 140.040  0.00  0.00    +0.000 OA
ATOM     21  C   UNL     1     102.316 129.109 139.554  0.00  0.00    +0.000 C 
ENDBRANCH  17  20
ENDBRANCH   6  14
BRANCH  11  22
ATOM     22  O   UNL     1     103.352 134.889 140.680  0.00  0.00    +0.000 OA
BRANCH  22  23
ATOM     23  S   UNL     1     104.078 135.071 141.029  0.00  0.00    +0.000 S 
ATOM     24  O   UNL     1     104.803 135.254 141.377  0.00  0.00    +0.000 OA
ATOM     25  O   UNL     1     104.469 134.660 140.430  0.00  0.00    +0.000 OA
ATOM     26  O   UNL     1     103.686 135.482 141.627  0.00  0.00    +0.000 OA
ENDBRANCH  22  23
ENDBRANCH  11  22
TORSDOF 4
ENDMDL
MODEL 7
REMARK VINA RESULT:      -8.0     13.273     14.695
REMARK  Name = 44258211
REMARK  4 active torsions:
REMARK  status: ('A' for Active; 'I' for Inactive)
REMARK    1  A    between atoms: S_1  and  O_3
REMARK    2  A    between atoms: O_3  and  C_19
REMARK    3  A    between atoms: O_6  and  C_23
REMARK    4  A    between atoms: C_13  and  C_14
REMARK                            x       y       z     vdW  Elec       q    Type
REMARK                         _______ _______ _______ _____ _____    ______ ____
ROOT
ATOM      1  O   UNL     1     113.757 127.790 136.421  0.00  0.00    +0.000 OA
ATOM      2  O   UNL     1     111.346 126.250 136.016  0.00  0.00    +0.000 OA
ATOM      3  O   UNL     1     111.494 127.566 135.443  0.00  0.00    +0.000 OA
ATOM      4  C   UNL     1     112.564 127.028 136.221  0.00  0.00    +0.000 A 
ATOM      5  C   UNL     1     113.319 127.103 136.547  0.00  0.00    +0.000 A 
ATOM      6  C   UNL     1     113.440 128.404 135.968  0.00  0.00    +0.000 A 
ATOM      7  C   UNL     1     112.248 127.641 135.769  0.00  0.00    +0.000 A 
ATOM      8  C   UNL     1     112.099 126.316 136.346  0.00  0.00    +0.000 A 
ATOM      9  C   UNL     1     112.686 128.329 135.642  0.00  0.00    +0.000 A 
ATOM     10  C   UNL     1     113.659 126.471 137.020  0.00  0.00    +0.000 A 
ATOM     11  C   UNL     1     113.208 125.753 137.155  0.00  0.00    +0.000 A 
ATOM     12  C   UNL     1     112.423 125.675 136.816  0.00  0.00    +0.000 A 
ENDROOT
BRANCH   6  14
ATOM     13  O   UNL     1     115.193 131.153 135.462  0.00  0.00    +0.000 OA
ATOM     14  C   UNL     1     113.878 129.091 135.842  0.00  0.00    +0.000 A 
ATOM     15  C   UNL     1     113.842 129.709 136.387  0.00  0.00    +0.000 A 
ATOM     16  C   UNL     1     114.352 129.160 135.170  0.00  0.00    +0.000 A 
ATOM     17  C   UNL     1     114.281 130.397 136.260  0.00  0.00    +0.000 A 
ATOM     18  C   UNL     1     114.790 129.848 135.044  0.00  0.00    +0.000 A 
ATOM     19  C   UNL     1     114.755 130.466 135.589  0.00  0.00    +0.000 A 
BRANCH  17  20
ATOM     20  O   UNL     1     114.246 131.015 136.805  0.00  0.00    +0.000 OA
ATOM     21  C   UNL     1     113.916 130.889 137.551  0.00  0.00    +0.000 C 
ENDBRANCH  17  20
ENDBRANCH   6  14
BRANCH  11  22
ATOM     22  O   UNL     1     113.528 125.141 137.609  0.00  0.00    +0.000 OA
BRANCH  22  23
ATOM     23  S   UNL     1     114.252 124.807 137.397  0.00  0.00    +0.000 S 
ATOM     24  O   UNL     1     114.975 124.472 137.185  0.00  0.00    +0.000 OA
ATOM     25  O   UNL     1     114.633 125.276 137.957  0.00  0.00    +0.000 OA
ATOM     26  O   UNL     1     113.870 124.337 136.836  0.00  0.00    +0.000 OA
ENDBRANCH  22  23
ENDBRANCH  11  22
TORSDOF 4
ENDMDL
MODEL 8
REMARK VINA RESULT:      -8.0      1.670      4.693
REMARK  Name = 44258211
REMARK  4 active torsions:
REMARK  status: ('A' for Active; 'I' for Inactive)
REMARK    1  A    between atoms: S_1  and  O_3
REMARK    2  A    between atoms: O_3  and  C_19
REMARK    3  A    between atoms: O_6  and  C_23
REMARK    4  A    between atoms: C_13  and  C_14
REMARK                            x       y       z     vdW  Elec       q    Type
REMARK                         _______ _______ _______ _____ _____    ______ ____
ROOT
ATOM      1  O   UNL     1     104.104 124.920 145.928  0.00  0.00    +0.000 OA
ATOM      2  O   UNL     1     106.828 125.029 146.888  0.00  0.00    +0.000 OA
ATOM      3  O   UNL     1     105.841 124.203 147.539  0.00  0.00    +0.000 OA
ATOM      4  C   UNL     1     105.451 124.974 146.402  0.00  0.00    +0.000 A 
ATOM      5  C   UNL     1     104.873 125.213 145.865  0.00  0.00    +0.000 A 
ATOM      6  C   UNL     1     103.915 124.386 146.530  0.00  0.00    +0.000 A 
ATOM      7  C   UNL     1     105.262 124.442 147.002  0.00  0.00    +0.000 A 
ATOM      8  C   UNL     1     106.255 125.273 146.346  0.00  0.00    +0.000 A 
ATOM      9  C   UNL     1     104.494 124.147 147.066  0.00  0.00    +0.000 A 
ATOM     10  C   UNL     1     105.058 125.768 145.235  0.00  0.00    +0.000 A 
ATOM     11  C   UNL     1     105.856 126.077 145.164  0.00  0.00    +0.000 A 
ATOM     12  C   UNL     1     106.458 125.828 145.723  0.00  0.00    +0.000 A 
ENDROOT
BRANCH   6  14
ATOM     13  O   UNL     1     100.842 123.210 146.781  0.00  0.00    +0.000 OA
ATOM     14  C   UNL     1     103.147 124.093 146.593  0.00  0.00    +0.000 A 
ATOM     15  C   UNL     1     102.582 124.504 147.032  0.00  0.00    +0.000 A 
ATOM     16  C   UNL     1     102.943 123.387 146.216  0.00  0.00    +0.000 A 
ATOM     17  C   UNL     1     101.814 124.209 147.094  0.00  0.00    +0.000 A 
ATOM     18  C   UNL     1     102.175 123.093 146.279  0.00  0.00    +0.000 A 
ATOM     19  C   UNL     1     101.610 123.505 146.718  0.00  0.00    +0.000 A 
BRANCH  17  20
ATOM     20  O   UNL     1     101.249 124.621 147.533  0.00  0.00    +0.000 OA
ATOM     21  C   UNL     1     101.463 124.985 148.242  0.00  0.00    +0.000 C 
ENDBRANCH  17  20
ENDBRANCH   6  14
BRANCH  11  22
ATOM     22  O   UNL     1     106.042 126.610 144.561  0.00  0.00    +0.000 OA
BRANCH  22  23
ATOM     23  S   UNL     1     106.371 126.336 143.856  0.00  0.00    +0.000 S 
ATOM     24  O   UNL     1     106.699 126.062 143.151  0.00  0.00    +0.000 OA
ATOM     25  O   UNL     1     105.614 126.189 143.560  0.00  0.00    +0.000 OA
ATOM     26  O   UNL     1     107.127 126.483 144.151  0.00  0.00    +0.000 OA
ENDBRANCH  22  23
ENDBRANCH  11  22
TORSDOF 4
ENDMDL
MODEL 9
REMARK VINA RESULT:      -7.9     12.896     14.118
REMARK  Name = 44258211
REMARK  4 active torsions:
REMARK  status: ('A' for Active; 'I' for Inactive)
REMARK    1  A    between atoms: S_1  and  O_3
REMARK    2  A    between atoms: O_3  and  C_19
REMARK    3  A    between atoms: O_6  and  C_23
REMARK    4  A    between atoms: C_13  and  C_14
REMARK                            x       y       z     vdW  Elec       q    Type
REMARK                         _______ _______ _______ _____ _____    ______ ____
ROOT
ATOM      1  O   UNL     1     112.966 127.344 137.335  0.00  0.00    +0.000 OA
ATOM      2  O   UNL     1     113.817 129.778 136.032  0.00  0.00    +0.000 OA
ATOM      3  O   UNL     1     114.218 128.486 135.531  0.00  0.00    +0.000 OA
ATOM      4  C   UNL     1     113.387 128.549 136.691  0.00  0.00    +0.000 A 
ATOM      5  C   UNL     1     112.970 128.168 137.292  0.00  0.00    +0.000 A 
ATOM      6  C   UNL     1     113.381 126.901 136.775  0.00  0.00    +0.000 A 
ATOM      7  C   UNL     1     113.800 128.106 136.132  0.00  0.00    +0.000 A 
ATOM      8  C   UNL     1     113.397 129.406 136.637  0.00  0.00    +0.000 A 
ATOM      9  C   UNL     1     113.798 127.281 136.174  0.00  0.00    +0.000 A 
ATOM     10  C   UNL     1     112.534 128.619 137.881  0.00  0.00    +0.000 A 
ATOM     11  C   UNL     1     112.534 129.477 137.842  0.00  0.00    +0.000 A 
ATOM     12  C   UNL     1     112.968 129.873 137.216  0.00  0.00    +0.000 A 
ENDROOT
BRANCH   6  14
ATOM     13  O   UNL     1     113.369 123.605 136.947  0.00  0.00    +0.000 OA
ATOM     14  C   UNL     1     113.377 126.077 136.818  0.00  0.00    +0.000 A 
ATOM     15  C   UNL     1     112.730 125.651 136.533  0.00  0.00    +0.000 A 
ATOM     16  C   UNL     1     114.022 125.678 137.146  0.00  0.00    +0.000 A 
ATOM     17  C   UNL     1     112.728 124.827 136.576  0.00  0.00    +0.000 A 
ATOM     18  C   UNL     1     114.018 124.855 137.188  0.00  0.00    +0.000 A 
ATOM     19  C   UNL     1     113.372 124.429 136.904  0.00  0.00    +0.000 A 
BRANCH  17  20
ATOM     20  O   UNL     1     112.082 124.401 136.291  0.00  0.00    +0.000 OA
ATOM     21  C   UNL     1     111.361 124.782 136.164  0.00  0.00    +0.000 C 
ENDBRANCH  17  20
ENDBRANCH   6  14
BRANCH  11  22
ATOM     22  O   UNL     1     112.119 129.917 138.404  0.00  0.00    +0.000 OA
BRANCH  22  23
ATOM     23  S   UNL     1     112.526 130.300 139.011  0.00  0.00    +0.000 S 
ATOM     24  O   UNL     1     112.933 130.682 139.617  0.00  0.00    +0.000 OA
ATOM     25  O   UNL     1     112.534 129.599 139.447  0.00  0.00    +0.000 OA
ATOM     26  O   UNL     1     112.518 131.000 138.574  0.00  0.00    +0.000 OA
ENDBRANCH  22  23
ENDBRANCH  11  22
TORSDOF 4
ENDMDL
MODEL 10
REMARK VINA RESULT:      -7.9     11.743     12.667
REMARK  Name = 44258211
REMARK  4 active torsions:
REMARK  status: ('A' for Active; 'I' for Inactive)
REMARK    1  A    between atoms: S_1  and  O_3
REMARK    2  A    between atoms: O_3  and  C_19
REMARK    3  A    between atoms: O_6  and  C_23
REMARK    4  A    between atoms: C_13  and  C_14
REMARK                            x       y       z     vdW  Elec       q    Type
REMARK                         _______ _______ _______ _____ _____    ______ ____
ROOT
ATOM      1  O   UNL     1     112.695 126.251 138.520  0.00  0.00    +0.000 OA
ATOM      2  O   UNL     1     113.993 124.360 136.764  0.00  0.00    +0.000 OA
ATOM      3  O   UNL     1     114.751 125.131 137.718  0.00  0.00    +0.000 OA
ATOM      4  C   UNL     1     113.336 125.315 137.651  0.00  0.00    +0.000 A 
ATOM      5  C   UNL     1     112.651 125.688 137.919  0.00  0.00    +0.000 A 
ATOM      6  C   UNL     1     113.425 126.440 138.855  0.00  0.00    +0.000 A 
ATOM      7  C   UNL     1     114.065 125.504 137.986  0.00  0.00    +0.000 A 
ATOM      8  C   UNL     1     113.302 124.728 137.024  0.00  0.00    +0.000 A 
ATOM      9  C   UNL     1     114.111 126.067 138.588  0.00  0.00    +0.000 A 
ATOM     10  C   UNL     1     111.884 125.500 137.578  0.00  0.00    +0.000 A 
ATOM     11  C   UNL     1     111.832 124.915 136.951  0.00  0.00    +0.000 A 
ATOM     12  C   UNL     1     112.545 124.527 136.672  0.00  0.00    +0.000 A 
ENDROOT
BRANCH   6  14
ATOM     13  O   UNL     1     113.601 128.687 141.265  0.00  0.00    +0.000 OA
ATOM     14  C   UNL     1     113.469 127.002 139.457  0.00  0.00    +0.000 A 
ATOM     15  C   UNL     1     113.456 127.806 139.273  0.00  0.00    +0.000 A 
ATOM     16  C   UNL     1     113.526 126.759 140.244  0.00  0.00    +0.000 A 
ATOM     17  C   UNL     1     113.500 128.368 139.876  0.00  0.00    +0.000 A 
ATOM     18  C   UNL     1     113.570 127.322 140.846  0.00  0.00    +0.000 A 
ATOM     19  C   UNL     1     113.557 128.126 140.662  0.00  0.00    +0.000 A 
BRANCH  17  20
ATOM     20  O   UNL     1     113.487 129.172 139.692  0.00  0.00    +0.000 OA
ATOM     21  C   UNL     1     113.042 129.442 139.052  0.00  0.00    +0.000 C 
ENDBRANCH  17  20
ENDBRANCH   6  14
BRANCH  11  22
ATOM     22  O   UNL     1     111.099 124.728 136.618  0.00  0.00    +0.000 OA
BRANCH  22  23
ATOM     23  S   UNL     1     110.808 125.173 135.987  0.00  0.00    +0.000 S 
ATOM     24  O   UNL     1     110.517 125.618 135.356  0.00  0.00    +0.000 OA
ATOM     25  O   UNL     1     110.426 125.676 136.518  0.00  0.00    +0.000 OA
ATOM     26  O   UNL     1     111.191 124.670 135.456  0.00  0.00    +0.000 OA
ENDBRANCH  22  23
ENDBRANCH  11  22
TORSDOF 4
ENDMDL
