MODEL 1
REMARK VINA RESULT:     -10.4      0.000      0.000
REMARK  Name = 44258336
REMARK  12 active torsions:
REMARK  status: ('A' for Active; 'I' for Inactive)
REMARK    1  A    between atoms: O_2  and  C_18
REMARK    2  A    between atoms: O_2  and  C_23
REMARK    3  A    between atoms: O_9  and  C_30
REMARK    4  A    between atoms: O_9  and  C_41
REMARK    5  A    between atoms: O_10  and  C_32
REMARK    6  A    between atoms: O_16  and  C_53
REMARK    7  A    between atoms: C_20  and  C_29
REMARK    8  A    between atoms: C_22  and  C_28
REMARK    9  A    between atoms: C_27  and  C_30
REMARK   10  A    between atoms: C_39  and  C_42
REMARK   11  A    between atoms: C_41  and  C_43
REMARK   12  A    between atoms: C_46  and  C_50
REMARK                            x       y       z     vdW  Elec       q    Type
REMARK                         _______ _______ _______ _____ _____    ______ ____
ROOT
ATOM      1  O   UNL     1     114.017 129.576 140.252  0.00  0.00    +0.000 OA
ATOM      2  O   UNL     1     112.606 130.057 142.228  0.00  0.00    +0.000 OA
ATOM      3  O   UNL     1     113.770 131.130 141.764  0.00  0.00    +0.000 OA
ATOM      4  C   UNL     1     112.964 129.199 141.142  0.00  0.00    +0.000 C 
ATOM      5  C   UNL     1     113.077 129.897 141.569  0.00  0.00    +0.000 C 
ATOM      6  C   UNL     1     113.435 129.039 140.484  0.00  0.00    +0.000 C 
ATOM      7  C   UNL     1     113.659 130.433 141.337  0.00  0.00    +0.000 C 
ATOM      8  C   UNL     1     114.129 130.272 140.679  0.00  0.00    +0.000 C 
ENDROOT
BRANCH   6  12
ATOM      9  O   UNL     1     112.548 129.057 139.093  0.00  0.00    +0.000 OA
ATOM     10  O   UNL     1     112.989 126.215 138.768  0.00  0.00    +0.000 OA
ATOM     11  O   UNL     1     111.976 128.387 137.950  0.00  0.00    +0.000 OA
ATOM     12  C   UNL     1     113.323 128.341 140.057  0.00  0.00    +0.000 A 
ATOM     13  C   UNL     1     112.879 128.351 139.361  0.00  0.00    +0.000 A 
ATOM     14  C   UNL     1     113.654 127.636 140.325  0.00  0.00    +0.000 A 
ATOM     15  C   UNL     1     112.768 127.654 138.935  0.00  0.00    +0.000 A 
ATOM     16  C   UNL     1     113.542 126.939 139.899  0.00  0.00    +0.000 A 
ATOM     17  C   UNL     1     113.099 126.948 139.204  0.00  0.00    +0.000 A 
ATOM     18  C   UNL     1     112.303 127.677 138.211  0.00  0.00    +0.000 A 
ATOM     19  C   UNL     1     112.183 126.954 137.762  0.00  0.00    +0.000 A 
ATOM     20  C   UNL     1     112.528 126.217 138.042  0.00  0.00    +0.000 A 
BRANCH  20  22
ATOM     21  O   UNL     1     112.087 123.423 136.345  0.00  0.00    +0.000 OA
ATOM     22  C   UNL     1     112.418 125.519 137.618  0.00  0.00    +0.000 A 
ATOM     23  C   UNL     1     112.988 125.272 137.075  0.00  0.00    +0.000 A 
ATOM     24  C   UNL     1     111.737 125.067 137.737  0.00  0.00    +0.000 A 
ATOM     25  C   UNL     1     112.877 124.573 136.651  0.00  0.00    +0.000 A 
ATOM     26  C   UNL     1     111.627 124.369 137.313  0.00  0.00    +0.000 A 
ATOM     27  C   UNL     1     112.197 124.122 136.770  0.00  0.00    +0.000 A 
ENDBRANCH  20  22
BRANCH  14  28
ATOM     28  O   UNL     1     114.097 127.627 141.022  0.00  0.00    +0.000 OA
ATOM     29  C   UNL     1     114.605 126.996 141.179  0.00  0.00    +0.000 C 
ENDBRANCH  14  28
ENDBRANCH   6  12
BRANCH   8  30
ATOM     30  C   UNL     1     114.712 130.810 140.446  0.00  0.00    +0.000 C 
ATOM     31  C   UNL     1     115.505 130.586 140.454  0.00  0.00    +0.000 C 
ENDBRANCH   8  30
BRANCH   4  32
ATOM     32  O   UNL     1     112.383 128.663 141.374  0.00  0.00    +0.000 OA
BRANCH  32  37
ATOM     33  O   UNL     1     111.291 129.545 141.108  0.00  0.00    +0.000 OA
ATOM     34  O   UNL     1     111.522 127.964 142.596  0.00  0.00    +0.000 OA
ATOM     35  O   UNL     1     109.998 128.497 142.942  0.00  0.00    +0.000 OA
ATOM     36  O   UNL     1     109.337 129.729 142.064  0.00  0.00    +0.000 OA
ATOM     37  C   UNL     1     111.621 128.929 141.547  0.00  0.00    +0.000 C 
ATOM     38  C   UNL     1     111.190 128.580 142.158  0.00  0.00    +0.000 C 
ATOM     39  C   UNL     1     110.429 128.846 142.330  0.00  0.00    +0.000 C 
ATOM     40  C   UNL     1     110.098 129.462 141.892  0.00  0.00    +0.000 C 
ATOM     41  C   UNL     1     110.528 129.812 141.281  0.00  0.00    +0.000 C 
BRANCH  41  42
ATOM     42  C   UNL     1     110.198 130.427 140.843  0.00  0.00    +0.000 C 
BRANCH  42  43
ATOM     43  O   UNL     1     110.166 130.376 140.019  0.00  0.00    +0.000 OA
BRANCH  43  45
ATOM     44  O   UNL     1     110.404 131.758 139.752  0.00  0.00    +0.000 OA
ATOM     45  C   UNL     1     110.021 131.052 139.570  0.00  0.00    +0.000 C 
BRANCH  45  46
ATOM     46  C   UNL     1     109.491 131.020 138.937  0.00  0.00    +0.000 C 
ATOM     47  C   UNL     1     109.767 131.112 138.165  0.00  0.00    +0.000 C 
BRANCH  47  49
ATOM     48  O   UNL     1     107.650 130.986 135.636  0.00  0.00    +0.000 OA
ATOM     49  C   UNL     1     109.237 131.080 137.532  0.00  0.00    +0.000 A 
ATOM     50  C   UNL     1     109.148 130.381 137.103  0.00  0.00    +0.000 A 
ATOM     51  C   UNL     1     108.797 131.748 137.329  0.00  0.00    +0.000 A 
ATOM     52  C   UNL     1     108.620 130.350 136.471  0.00  0.00    +0.000 A 
ATOM     53  C   UNL     1     108.269 131.716 136.697  0.00  0.00    +0.000 A 
ATOM     54  C   UNL     1     108.180 131.017 136.268  0.00  0.00    +0.000 A 
BRANCH  52  55
ATOM     55  O   UNL     1     108.531 129.650 136.041  0.00  0.00    +0.000 OA
ATOM     56  C   UNL     1     109.195 129.211 135.826  0.00  0.00    +0.000 C 
ENDBRANCH  52  55
ENDBRANCH  47  49
ENDBRANCH  45  46
ENDBRANCH  43  45
ENDBRANCH  42  43
ENDBRANCH  41  42
ENDBRANCH  32  37
ENDBRANCH   4  32
TORSDOF 12
ENDMDL
MODEL 2
REMARK VINA RESULT:     -10.1      1.930      5.405
REMARK  Name = 44258336
REMARK  12 active torsions:
REMARK  status: ('A' for Active; 'I' for Inactive)
REMARK    1  A    between atoms: O_2  and  C_18
REMARK    2  A    between atoms: O_2  and  C_23
REMARK    3  A    between atoms: O_9  and  C_30
REMARK    4  A    between atoms: O_9  and  C_41
REMARK    5  A    between atoms: O_10  and  C_32
REMARK    6  A    between atoms: O_16  and  C_53
REMARK    7  A    between atoms: C_20  and  C_29
REMARK    8  A    between atoms: C_22  and  C_28
REMARK    9  A    between atoms: C_27  and  C_30
REMARK   10  A    between atoms: C_39  and  C_42
REMARK   11  A    between atoms: C_41  and  C_43
REMARK   12  A    between atoms: C_46  and  C_50
REMARK                            x       y       z     vdW  Elec       q    Type
REMARK                         _______ _______ _______ _____ _____    ______ ____
ROOT
ATOM      1  O   UNL     1     112.891 128.681 137.170  0.00  0.00    +0.000 OA
ATOM      2  O   UNL     1     111.995 130.378 135.607  0.00  0.00    +0.000 OA
ATOM      3  O   UNL     1     112.746 129.031 135.020  0.00  0.00    +0.000 OA
ATOM      4  C   UNL     1     112.216 129.920 136.942  0.00  0.00    +0.000 C 
ATOM      5  C   UNL     1     112.293 129.812 136.127  0.00  0.00    +0.000 C 
ATOM      6  C   UNL     1     112.515 129.355 137.463  0.00  0.00    +0.000 C 
ATOM      7  C   UNL     1     112.669 129.139 135.834  0.00  0.00    +0.000 C 
ATOM      8  C   UNL     1     112.968 128.574 136.356  0.00  0.00    +0.000 C 
ENDROOT
BRANCH   6  12
ATOM      9  O   UNL     1     111.281 128.625 138.279  0.00  0.00    +0.000 OA
ATOM     10  O   UNL     1     112.215 129.800 140.754  0.00  0.00    +0.000 OA
ATOM     11  O   UNL     1     110.561 128.350 139.498  0.00  0.00    +0.000 OA
ATOM     12  C   UNL     1     112.438 129.463 138.278  0.00  0.00    +0.000 A 
ATOM     13  C   UNL     1     111.821 129.098 138.685  0.00  0.00    +0.000 A 
ATOM     14  C   UNL     1     112.978 129.935 138.683  0.00  0.00    +0.000 A 
ATOM     15  C   UNL     1     111.744 129.207 139.499  0.00  0.00    +0.000 A 
ATOM     16  C   UNL     1     112.901 130.044 139.498  0.00  0.00    +0.000 A 
ATOM     17  C   UNL     1     112.284 129.679 139.905  0.00  0.00    +0.000 A 
ATOM     18  C   UNL     1     111.096 128.821 139.912  0.00  0.00    +0.000 A 
ATOM     19  C   UNL     1     111.010 128.929 140.761  0.00  0.00    +0.000 A 
ATOM     20  C   UNL     1     111.573 129.422 141.185  0.00  0.00    +0.000 A 
BRANCH  20  22
ATOM     21  O   UNL     1     111.276 129.863 144.441  0.00  0.00    +0.000 OA
ATOM     22  C   UNL     1     111.499 129.532 141.998  0.00  0.00    +0.000 A 
ATOM     23  C   UNL     1     111.849 128.998 142.520  0.00  0.00    +0.000 A 
ATOM     24  C   UNL     1     111.074 130.177 142.290  0.00  0.00    +0.000 A 
ATOM     25  C   UNL     1     111.775 129.109 143.335  0.00  0.00    +0.000 A 
ATOM     26  C   UNL     1     111.000 130.287 143.104  0.00  0.00    +0.000 A 
ATOM     27  C   UNL     1     111.350 129.753 143.626  0.00  0.00    +0.000 A 
ENDBRANCH  20  22
BRANCH  14  28
ATOM     28  O   UNL     1     113.596 130.301 138.275  0.00  0.00    +0.000 OA
ATOM     29  C   UNL     1     114.227 130.631 138.692  0.00  0.00    +0.000 C 
ENDBRANCH  14  28
ENDBRANCH   6  12
BRANCH   8  30
ATOM     30  C   UNL     1     113.344 127.899 136.063  0.00  0.00    +0.000 C 
ATOM     31  C   UNL     1     113.774 127.413 136.571  0.00  0.00    +0.000 C 
ENDBRANCH   8  30
BRANCH   4  32
ATOM     32  O   UNL     1     111.841 130.593 137.235  0.00  0.00    +0.000 OA
BRANCH  32  37
ATOM     33  O   UNL     1     110.596 130.288 136.604  0.00  0.00    +0.000 OA
ATOM     34  O   UNL     1     111.472 132.200 137.186  0.00  0.00    +0.000 OA
ATOM     35  O   UNL     1     110.042 132.700 136.530  0.00  0.00    +0.000 OA
ATOM     36  O   UNL     1     108.981 131.590 135.923  0.00  0.00    +0.000 OA
ATOM     37  C   UNL     1     111.126 130.843 136.907  0.00  0.00    +0.000 C 
ATOM     38  C   UNL     1     110.941 131.646 136.882  0.00  0.00    +0.000 C 
ATOM     39  C   UNL     1     110.227 131.895 136.555  0.00  0.00    +0.000 C 
ATOM     40  C   UNL     1     109.696 131.341 136.251  0.00  0.00    +0.000 C 
ATOM     41  C   UNL     1     109.881 130.537 136.276  0.00  0.00    +0.000 C 
BRANCH  41  42
ATOM     42  C   UNL     1     109.351 129.982 135.973  0.00  0.00    +0.000 C 
BRANCH  42  43
ATOM     43  O   UNL     1     109.185 129.295 136.399  0.00  0.00    +0.000 OA
BRANCH  43  45
ATOM     44  O   UNL     1     108.050 128.636 135.835  0.00  0.00    +0.000 OA
ATOM     45  C   UNL     1     108.854 128.643 136.017  0.00  0.00    +0.000 C 
BRANCH  45  46
ATOM     46  C   UNL     1     109.328 127.998 135.818  0.00  0.00    +0.000 C 
ATOM     47  C   UNL     1     109.189 127.262 136.164  0.00  0.00    +0.000 C 
BRANCH  47  49
ATOM     48  O   UNL     1     111.085 124.682 135.366  0.00  0.00    +0.000 OA
ATOM     49  C   UNL     1     109.663 126.616 135.964  0.00  0.00    +0.000 A 
ATOM     50  C   UNL     1     110.071 126.206 136.553  0.00  0.00    +0.000 A 
ATOM     51  C   UNL     1     109.730 126.382 135.176  0.00  0.00    +0.000 A 
ATOM     52  C   UNL     1     110.544 125.562 136.353  0.00  0.00    +0.000 A 
ATOM     53  C   UNL     1     110.204 125.737 134.977  0.00  0.00    +0.000 A 
ATOM     54  C   UNL     1     110.611 125.327 135.566  0.00  0.00    +0.000 A 
BRANCH  52  55
ATOM     55  O   UNL     1     110.952 125.151 136.943  0.00  0.00    +0.000 OA
ATOM     56  C   UNL     1     110.910 125.404 137.726  0.00  0.00    +0.000 C 
ENDBRANCH  52  55
ENDBRANCH  47  49
ENDBRANCH  45  46
ENDBRANCH  43  45
ENDBRANCH  42  43
ENDBRANCH  41  42
ENDBRANCH  32  37
ENDBRANCH   4  32
TORSDOF 12
ENDMDL
MODEL 3
REMARK VINA RESULT:     -10.0      1.940      5.985
REMARK  Name = 44258336
REMARK  12 active torsions:
REMARK  status: ('A' for Active; 'I' for Inactive)
REMARK    1  A    between atoms: O_2  and  C_18
REMARK    2  A    between atoms: O_2  and  C_23
REMARK    3  A    between atoms: O_9  and  C_30
REMARK    4  A    between atoms: O_9  and  C_41
REMARK    5  A    between atoms: O_10  and  C_32
REMARK    6  A    between atoms: O_16  and  C_53
REMARK    7  A    between atoms: C_20  and  C_29
REMARK    8  A    between atoms: C_22  and  C_28
REMARK    9  A    between atoms: C_27  and  C_30
REMARK   10  A    between atoms: C_39  and  C_42
REMARK   11  A    between atoms: C_41  and  C_43
REMARK   12  A    between atoms: C_46  and  C_50
REMARK                            x       y       z     vdW  Elec       q    Type
REMARK                         _______ _______ _______ _____ _____    ______ ____
ROOT
ATOM      1  O   UNL     1     112.781 129.085 136.759  0.00  0.00    +0.000 OA
ATOM      2  O   UNL     1     110.894 129.504 135.213  0.00  0.00    +0.000 OA
ATOM      3  O   UNL     1     112.397 129.183 134.613  0.00  0.00    +0.000 OA
ATOM      4  C   UNL     1     111.400 129.385 136.544  0.00  0.00    +0.000 C 
ATOM      5  C   UNL     1     111.523 129.364 135.728  0.00  0.00    +0.000 C 
ATOM      6  C   UNL     1     112.029 129.245 137.059  0.00  0.00    +0.000 C 
ATOM      7  C   UNL     1     112.275 129.204 135.428  0.00  0.00    +0.000 C 
ATOM      8  C   UNL     1     112.903 129.064 135.944  0.00  0.00    +0.000 C 
ENDROOT
BRANCH   6  12
ATOM      9  O   UNL     1     111.869 127.838 137.905  0.00  0.00    +0.000 OA
ATOM     10  O   UNL     1     111.532 129.342 140.355  0.00  0.00    +0.000 OA
ATOM     11  O   UNL     1     111.665 127.123 139.141  0.00  0.00    +0.000 OA
ATOM     12  C   UNL     1     111.906 129.266 137.875  0.00  0.00    +0.000 A 
ATOM     13  C   UNL     1     111.826 128.562 138.298  0.00  0.00    +0.000 A 
ATOM     14  C   UNL     1     111.863 129.990 138.267  0.00  0.00    +0.000 A 
ATOM     15  C   UNL     1     111.703 128.584 139.113  0.00  0.00    +0.000 A 
ATOM     16  C   UNL     1     111.740 130.011 139.083  0.00  0.00    +0.000 A 
ATOM     17  C   UNL     1     111.660 129.307 139.505  0.00  0.00    +0.000 A 
ATOM     18  C   UNL     1     111.621 127.843 139.542  0.00  0.00    +0.000 A 
ATOM     19  C   UNL     1     111.493 127.857 140.393  0.00  0.00    +0.000 A 
ATOM     20  C   UNL     1     111.448 128.613 140.802  0.00  0.00    +0.000 A 
BRANCH  20  22
ATOM     21  O   UNL     1     110.957 128.709 144.063  0.00  0.00    +0.000 OA
ATOM     22  C   UNL     1     111.325 128.637 141.616  0.00  0.00    +0.000 A 
ATOM     23  C   UNL     1     110.559 128.598 141.920  0.00  0.00    +0.000 A 
ATOM     24  C   UNL     1     111.970 128.699 142.129  0.00  0.00    +0.000 A 
ATOM     25  C   UNL     1     110.437 128.623 142.735  0.00  0.00    +0.000 A 
ATOM     26  C   UNL     1     111.847 128.723 142.944  0.00  0.00    +0.000 A 
ATOM     27  C   UNL     1     111.081 128.685 143.247  0.00  0.00    +0.000 A 
ENDBRANCH  20  22
BRANCH  14  28
ATOM     28  O   UNL     1     111.943 130.694 137.844  0.00  0.00    +0.000 OA
ATOM     29  C   UNL     1     112.005 131.412 138.246  0.00  0.00    +0.000 C 
ENDBRANCH  14  28
ENDBRANCH   6  12
BRANCH   8  30
ATOM     30  C   UNL     1     113.656 128.904 135.644  0.00  0.00    +0.000 C 
ATOM     31  C   UNL     1     114.280 129.419 135.801  0.00  0.00    +0.000 C 
ENDBRANCH   8  30
BRANCH   4  32
ATOM     32  O   UNL     1     110.649 129.545 136.844  0.00  0.00    +0.000 OA
BRANCH  32  37
ATOM     33  O   UNL     1     110.033 128.338 136.390  0.00  0.00    +0.000 OA
ATOM     34  O   UNL     1     109.251 130.370 136.548  0.00  0.00    +0.000 OA
ATOM     35  O   UNL     1     107.935 129.576 135.946  0.00  0.00    +0.000 OA
ATOM     36  O   UNL     1     108.019 127.957 135.640  0.00  0.00    +0.000 OA
ATOM     37  C   UNL     1     109.991 129.148 136.543  0.00  0.00    +0.000 C 
ATOM     38  C   UNL     1     109.292 129.560 136.395  0.00  0.00    +0.000 C 
ATOM     39  C   UNL     1     108.635 129.163 136.094  0.00  0.00    +0.000 C 
ATOM     40  C   UNL     1     108.676 128.353 135.941  0.00  0.00    +0.000 C 
ATOM     41  C   UNL     1     109.375 127.941 136.089  0.00  0.00    +0.000 C 
BRANCH  41  42
ATOM     42  C   UNL     1     109.417 127.131 135.936  0.00  0.00    +0.000 C 
BRANCH  42  43
ATOM     43  O   UNL     1     110.122 126.800 135.663  0.00  0.00    +0.000 OA
BRANCH  43  45
ATOM     44  O   UNL     1     109.705 125.617 134.980  0.00  0.00    +0.000 OA
ATOM     45  C   UNL     1     110.176 125.985 135.547  0.00  0.00    +0.000 C 
BRANCH  45  46
ATOM     46  C   UNL     1     110.702 125.538 136.001  0.00  0.00    +0.000 C 
ATOM     47  C   UNL     1     111.421 125.296 135.678  0.00  0.00    +0.000 C 
BRANCH  47  49
ATOM     48  O   UNL     1     113.522 123.508 137.490  0.00  0.00    +0.000 OA
ATOM     49  C   UNL     1     111.947 124.849 136.131  0.00  0.00    +0.000 A 
ATOM     50  C   UNL     1     112.737 125.078 136.192  0.00  0.00    +0.000 A 
ATOM     51  C   UNL     1     111.681 124.173 136.523  0.00  0.00    +0.000 A 
ATOM     52  C   UNL     1     113.262 124.631 136.645  0.00  0.00    +0.000 A 
ATOM     53  C   UNL     1     112.207 123.727 136.976  0.00  0.00    +0.000 A 
ATOM     54  C   UNL     1     112.997 123.956 137.037  0.00  0.00    +0.000 A 
BRANCH  52  55
ATOM     55  O   UNL     1     114.053 124.860 136.706  0.00  0.00    +0.000 OA
ATOM     56  C   UNL     1     114.259 125.654 136.628  0.00  0.00    +0.000 C 
ENDBRANCH  52  55
ENDBRANCH  47  49
ENDBRANCH  45  46
ENDBRANCH  43  45
ENDBRANCH  42  43
ENDBRANCH  41  42
ENDBRANCH  32  37
ENDBRANCH   4  32
TORSDOF 12
ENDMDL
MODEL 4
REMARK VINA RESULT:      -9.9      2.054      4.907
REMARK  Name = 44258336
REMARK  12 active torsions:
REMARK  status: ('A' for Active; 'I' for Inactive)
REMARK    1  A    between atoms: O_2  and  C_18
REMARK    2  A    between atoms: O_2  and  C_23
REMARK    3  A    between atoms: O_9  and  C_30
REMARK    4  A    between atoms: O_9  and  C_41
REMARK    5  A    between atoms: O_10  and  C_32
REMARK    6  A    between atoms: O_16  and  C_53
REMARK    7  A    between atoms: C_20  and  C_29
REMARK    8  A    between atoms: C_22  and  C_28
REMARK    9  A    between atoms: C_27  and  C_30
REMARK   10  A    between atoms: C_39  and  C_42
REMARK   11  A    between atoms: C_41  and  C_43
REMARK   12  A    between atoms: C_46  and  C_50
REMARK                            x       y       z     vdW  Elec       q    Type
REMARK                         _______ _______ _______ _____ _____    ______ ____
ROOT
ATOM      1  O   UNL     1     113.191 125.856 137.385  0.00  0.00    +0.000 OA
ATOM      2  O   UNL     1     111.195 124.630 138.182  0.00  0.00    +0.000 OA
ATOM      3  O   UNL     1     112.091 124.026 136.935  0.00  0.00    +0.000 OA
ATOM      4  C   UNL     1     112.078 125.750 138.274  0.00  0.00    +0.000 C 
ATOM      5  C   UNL     1     111.860 125.038 137.916  0.00  0.00    +0.000 C 
ATOM      6  C   UNL     1     112.743 126.158 138.008  0.00  0.00    +0.000 C 
ATOM      7  C   UNL     1     112.309 124.736 137.293  0.00  0.00    +0.000 C 
ATOM      8  C   UNL     1     112.974 125.146 137.028  0.00  0.00    +0.000 C 
ENDROOT
BRANCH   6  12
ATOM      9  O   UNL     1     113.452 126.148 139.498  0.00  0.00    +0.000 OA
ATOM     10  O   UNL     1     113.616 129.038 139.445  0.00  0.00    +0.000 OA
ATOM     11  O   UNL     1     114.033 126.836 140.625  0.00  0.00    +0.000 OA
ATOM     12  C   UNL     1     112.960 126.869 138.367  0.00  0.00    +0.000 A 
ATOM     13  C   UNL     1     113.315 126.864 139.112  0.00  0.00    +0.000 A 
ATOM     14  C   UNL     1     112.823 127.584 137.980  0.00  0.00    +0.000 A 
ATOM     15  C   UNL     1     113.531 127.575 139.469  0.00  0.00    +0.000 A 
ATOM     16  C   UNL     1     113.040 128.295 138.338  0.00  0.00    +0.000 A 
ATOM     17  C   UNL     1     113.394 128.290 139.083  0.00  0.00    +0.000 A 
ATOM     18  C   UNL     1     113.900 127.556 140.246  0.00  0.00    +0.000 A 
ATOM     19  C   UNL     1     114.129 128.293 140.625  0.00  0.00    +0.000 A 
ATOM     20  C   UNL     1     113.986 129.039 140.221  0.00  0.00    +0.000 A 
BRANCH  20  22
ATOM     21  O   UNL     1     114.850 131.889 141.643  0.00  0.00    +0.000 OA
ATOM     22  C   UNL     1     114.201 129.751 140.577  0.00  0.00    +0.000 A 
ATOM     23  C   UNL     1     113.695 130.112 141.119  0.00  0.00    +0.000 A 
ATOM     24  C   UNL     1     114.924 130.104 140.389  0.00  0.00    +0.000 A 
ATOM     25  C   UNL     1     113.912 130.824 141.474  0.00  0.00    +0.000 A 
ATOM     26  C   UNL     1     115.140 130.815 140.744  0.00  0.00    +0.000 A 
ATOM     27  C   UNL     1     114.634 131.176 141.287  0.00  0.00    +0.000 A 
ENDBRANCH  20  22
BRANCH  14  28
ATOM     28  O   UNL     1     112.469 127.589 137.235  0.00  0.00    +0.000 OA
ATOM     29  C   UNL     1     112.535 128.254 136.751  0.00  0.00    +0.000 C 
ENDBRANCH  14  28
ENDBRANCH   6  12
BRANCH   8  30
ATOM     30  C   UNL     1     113.423 124.844 136.403  0.00  0.00    +0.000 C 
ATOM     31  C   UNL     1     114.239 124.762 136.485  0.00  0.00    +0.000 C 
ENDBRANCH   8  30
BRANCH   4  32
ATOM     32  O   UNL     1     111.630 126.051 138.897  0.00  0.00    +0.000 OA
BRANCH  32  37
ATOM     33  O   UNL     1     110.450 126.247 138.115  0.00  0.00    +0.000 OA
ATOM     34  O   UNL     1     110.700 125.760 140.228  0.00  0.00    +0.000 OA
ATOM     35  O   UNL     1     109.054 125.810 140.114  0.00  0.00    +0.000 OA
ATOM     36  O   UNL     1     108.339 126.152 138.666  0.00  0.00    +0.000 OA
ATOM     37  C   UNL     1     110.807 126.076 138.839  0.00  0.00    +0.000 C 
ATOM     38  C   UNL     1     110.342 125.931 139.505  0.00  0.00    +0.000 C 
ATOM     39  C   UNL     1     109.520 125.956 139.447  0.00  0.00    +0.000 C 
ATOM     40  C   UNL     1     109.161 126.126 138.724  0.00  0.00    +0.000 C 
ATOM     41  C   UNL     1     109.626 126.272 138.058  0.00  0.00    +0.000 C 
BRANCH  41  42
ATOM     42  C   UNL     1     109.269 126.442 137.334  0.00  0.00    +0.000 C 
BRANCH  42  43
ATOM     43  O   UNL     1     109.332 127.200 137.012  0.00  0.00    +0.000 OA
BRANCH  43  45
ATOM     44  O   UNL     1     108.608 126.778 135.855  0.00  0.00    +0.000 OA
ATOM     45  C   UNL     1     109.055 127.348 136.249  0.00  0.00    +0.000 C 
BRANCH  45  46
ATOM     46  C   UNL     1     109.226 128.067 135.881  0.00  0.00    +0.000 C 
ATOM     47  C   UNL     1     108.808 128.746 136.090  0.00  0.00    +0.000 C 
BRANCH  47  49
ATOM     48  O   UNL     1     109.491 131.619 134.616  0.00  0.00    +0.000 OA
ATOM     49  C   UNL     1     108.979 129.465 135.721  0.00  0.00    +0.000 A 
ATOM     50  C   UNL     1     108.534 130.137 135.900  0.00  0.00    +0.000 A 
ATOM     51  C   UNL     1     109.594 129.511 135.174  0.00  0.00    +0.000 A 
ATOM     52  C   UNL     1     108.705 130.854 135.532  0.00  0.00    +0.000 A 
ATOM     53  C   UNL     1     109.765 130.229 134.806  0.00  0.00    +0.000 A 
ATOM     54  C   UNL     1     109.320 130.901 134.985  0.00  0.00    +0.000 A 
BRANCH  52  55
ATOM     55  O   UNL     1     108.260 131.526 135.711  0.00  0.00    +0.000 OA
ATOM     56  C   UNL     1     107.509 131.447 136.043  0.00  0.00    +0.000 C 
ENDBRANCH  52  55
ENDBRANCH  47  49
ENDBRANCH  45  46
ENDBRANCH  43  45
ENDBRANCH  42  43
ENDBRANCH  41  42
ENDBRANCH  32  37
ENDBRANCH   4  32
TORSDOF 12
ENDMDL
MODEL 5
REMARK VINA RESULT:      -9.8      3.125      6.834
REMARK  Name = 44258336
REMARK  12 active torsions:
REMARK  status: ('A' for Active; 'I' for Inactive)
REMARK    1  A    between atoms: O_2  and  C_18
REMARK    2  A    between atoms: O_2  and  C_23
REMARK    3  A    between atoms: O_9  and  C_30
REMARK    4  A    between atoms: O_9  and  C_41
REMARK    5  A    between atoms: O_10  and  C_32
REMARK    6  A    between atoms: O_16  and  C_53
REMARK    7  A    between atoms: C_20  and  C_29
REMARK    8  A    between atoms: C_22  and  C_28
REMARK    9  A    between atoms: C_27  and  C_30
REMARK   10  A    between atoms: C_39  and  C_42
REMARK   11  A    between atoms: C_41  and  C_43
REMARK   12  A    between atoms: C_46  and  C_50
REMARK                            x       y       z     vdW  Elec       q    Type
REMARK                         _______ _______ _______ _____ _____    ______ ____
ROOT
ATOM      1  O   UNL     1     110.380 130.687 141.899  0.00  0.00    +0.000 OA
ATOM      2  O   UNL     1     112.156 130.618 140.177  0.00  0.00    +0.000 OA
ATOM      3  O   UNL     1     110.581 130.372 139.749  0.00  0.00    +0.000 OA
ATOM      4  C   UNL     1     111.760 130.787 141.539  0.00  0.00    +0.000 C 
ATOM      5  C   UNL     1     111.564 130.641 140.750  0.00  0.00    +0.000 C 
ATOM      6  C   UNL     1     111.167 130.810 142.113  0.00  0.00    +0.000 C 
ATOM      7  C   UNL     1     110.776 130.518 140.537  0.00  0.00    +0.000 C 
ATOM      8  C   UNL     1     110.185 130.541 141.111  0.00  0.00    +0.000 C 
ENDROOT
BRANCH   6  12
ATOM      9  O   UNL     1     111.522 132.345 142.604  0.00  0.00    +0.000 OA
ATOM     10  O   UNL     1     111.957 131.388 145.301  0.00  0.00    +0.000 OA
ATOM     11  O   UNL     1     111.898 133.289 143.627  0.00  0.00    +0.000 OA
ATOM     12  C   UNL     1     111.363 130.956 142.901  0.00  0.00    +0.000 A 
ATOM     13  C   UNL     1     111.540 131.724 143.146  0.00  0.00    +0.000 A 
ATOM     14  C   UNL     1     111.381 130.336 143.443  0.00  0.00    +0.000 A 
ATOM     15  C   UNL     1     111.736 131.869 143.934  0.00  0.00    +0.000 A 
ATOM     16  C   UNL     1     111.577 130.482 144.231  0.00  0.00    +0.000 A 
ATOM     17  C   UNL     1     111.754 131.249 144.476  0.00  0.00    +0.000 A 
ATOM     18  C   UNL     1     111.919 132.674 144.177  0.00  0.00    +0.000 A 
ATOM     19  C   UNL     1     112.124 132.833 144.997  0.00  0.00    +0.000 A 
ATOM     20  C   UNL     1     112.142 132.186 145.563  0.00  0.00    +0.000 A 
BRANCH  20  22
ATOM     21  O   UNL     1     112.924 132.757 148.717  0.00  0.00    +0.000 OA
ATOM     22  C   UNL     1     112.338 132.328 146.351  0.00  0.00    +0.000 A 
ATOM     23  C   UNL     1     111.800 132.711 146.846  0.00  0.00    +0.000 A 
ATOM     24  C   UNL     1     113.071 132.088 146.644  0.00  0.00    +0.000 A 
ATOM     25  C   UNL     1     111.996 132.854 147.635  0.00  0.00    +0.000 A 
ATOM     26  C   UNL     1     113.266 132.231 147.432  0.00  0.00    +0.000 A 
ATOM     27  C   UNL     1     112.729 132.614 147.928  0.00  0.00    +0.000 A 
ENDBRANCH  20  22
BRANCH  14  28
ATOM     28  O   UNL     1     111.204 129.568 143.198  0.00  0.00    +0.000 OA
ATOM     29  C   UNL     1     111.037 128.984 143.757  0.00  0.00    +0.000 C 
ENDBRANCH  14  28
ENDBRANCH   6  12
BRANCH   8  30
ATOM     30  C   UNL     1     109.397 130.419 140.897  0.00  0.00    +0.000 C 
ATOM     31  C   UNL     1     108.792 130.772 141.332  0.00  0.00    +0.000 C 
ENDBRANCH   8  30
BRANCH   4  32
ATOM     32  O   UNL     1     112.546 130.910 141.753  0.00  0.00    +0.000 OA
BRANCH  32  37
ATOM     33  O   UNL     1     112.988 129.622 141.317  0.00  0.00    +0.000 OA
ATOM     34  O   UNL     1     114.027 131.541 141.392  0.00  0.00    +0.000 OA
ATOM     35  O   UNL     1     115.211 130.569 140.777  0.00  0.00    +0.000 OA
ATOM     36  O   UNL     1     114.912 128.966 140.522  0.00  0.00    +0.000 OA
ATOM     37  C   UNL     1     113.138 130.423 141.445  0.00  0.00    +0.000 C 
ATOM     38  C   UNL     1     113.879 130.739 141.265  0.00  0.00    +0.000 C 
ATOM     39  C   UNL     1     114.470 130.253 140.957  0.00  0.00    +0.000 C 
ATOM     40  C   UNL     1     114.321 129.452 140.830  0.00  0.00    +0.000 C 
ATOM     41  C   UNL     1     113.580 129.136 141.010  0.00  0.00    +0.000 C 
BRANCH  41  42
ATOM     42  C   UNL     1     113.431 128.335 140.882  0.00  0.00    +0.000 C 
BRANCH  42  43
ATOM     43  O   UNL     1     112.851 127.949 141.326  0.00  0.00    +0.000 OA
BRANCH  43  45
ATOM     44  O   UNL     1     113.094 126.541 141.315  0.00  0.00    +0.000 OA
ATOM     45  C   UNL     1     112.617 127.185 141.121  0.00  0.00    +0.000 C 
BRANCH  45  46
ATOM     46  C   UNL     1     111.905 127.065 140.721  0.00  0.00    +0.000 C 
ATOM     47  C   UNL     1     111.290 126.656 141.089  0.00  0.00    +0.000 C 
BRANCH  47  49
ATOM     48  O   UNL     1     108.443 126.177 139.490  0.00  0.00    +0.000 OA
ATOM     49  C   UNL     1     110.578 126.536 140.689  0.00  0.00    +0.000 A 
ATOM     50  C   UNL     1     109.871 126.812 141.013  0.00  0.00    +0.000 A 
ATOM     51  C   UNL     1     110.573 126.141 139.965  0.00  0.00    +0.000 A 
ATOM     52  C   UNL     1     109.160 126.692 140.614  0.00  0.00    +0.000 A 
ATOM     53  C   UNL     1     109.862 126.021 139.566  0.00  0.00    +0.000 A 
ATOM     54  C   UNL     1     109.155 126.297 139.890  0.00  0.00    +0.000 A 
BRANCH  52  55
ATOM     55  O   UNL     1     108.452 126.968 140.938  0.00  0.00    +0.000 OA
ATOM     56  C   UNL     1     108.364 127.011 141.757  0.00  0.00    +0.000 C 
ENDBRANCH  52  55
ENDBRANCH  47  49
ENDBRANCH  45  46
ENDBRANCH  43  45
ENDBRANCH  42  43
ENDBRANCH  41  42
ENDBRANCH  32  37
ENDBRANCH   4  32
TORSDOF 12
ENDMDL
MODEL 6
REMARK VINA RESULT:      -9.7      2.701      6.897
REMARK  Name = 44258336
REMARK  12 active torsions:
REMARK  status: ('A' for Active; 'I' for Inactive)
REMARK    1  A    between atoms: O_2  and  C_18
REMARK    2  A    between atoms: O_2  and  C_23
REMARK    3  A    between atoms: O_9  and  C_30
REMARK    4  A    between atoms: O_9  and  C_41
REMARK    5  A    between atoms: O_10  and  C_32
REMARK    6  A    between atoms: O_16  and  C_53
REMARK    7  A    between atoms: C_20  and  C_29
REMARK    8  A    between atoms: C_22  and  C_28
REMARK    9  A    between atoms: C_27  and  C_30
REMARK   10  A    between atoms: C_39  and  C_42
REMARK   11  A    between atoms: C_41  and  C_43
REMARK   12  A    between atoms: C_46  and  C_50
REMARK                            x       y       z     vdW  Elec       q    Type
REMARK                         _______ _______ _______ _____ _____    ______ ____
ROOT
ATOM      1  O   UNL     1     110.593 130.438 141.453  0.00  0.00    +0.000 OA
ATOM      2  O   UNL     1     112.446 130.482 139.813  0.00  0.00    +0.000 OA
ATOM      3  O   UNL     1     110.913 130.123 139.318  0.00  0.00    +0.000 OA
ATOM      4  C   UNL     1     111.977 130.632 141.154  0.00  0.00    +0.000 C 
ATOM      5  C   UNL     1     111.828 130.467 140.359  0.00  0.00    +0.000 C 
ATOM      6  C   UNL     1     111.359 130.618 141.701  0.00  0.00    +0.000 C 
ATOM      7  C   UNL     1     111.062 130.287 140.112  0.00  0.00    +0.000 C 
ATOM      8  C   UNL     1     110.445 130.273 140.659  0.00  0.00    +0.000 C 
ENDROOT
BRANCH   6  12
ATOM      9  O   UNL     1     111.605 132.175 142.188  0.00  0.00    +0.000 OA
ATOM     10  O   UNL     1     111.961 131.272 144.915  0.00  0.00    +0.000 OA
ATOM     11  O   UNL     1     111.879 133.149 143.215  0.00  0.00    +0.000 OA
ATOM     12  C   UNL     1     111.508 130.783 142.496  0.00  0.00    +0.000 A 
ATOM     13  C   UNL     1     111.631 131.562 142.739  0.00  0.00    +0.000 A 
ATOM     14  C   UNL     1     111.534 130.170 143.046  0.00  0.00    +0.000 A 
ATOM     15  C   UNL     1     111.780 131.726 143.533  0.00  0.00    +0.000 A 
ATOM     16  C   UNL     1     111.683 130.335 143.841  0.00  0.00    +0.000 A 
ATOM     17  C   UNL     1     111.806 131.113 144.083  0.00  0.00    +0.000 A 
ATOM     18  C   UNL     1     111.907 132.542 143.774  0.00  0.00    +0.000 A 
ATOM     19  C   UNL     1     112.062 132.721 144.600  0.00  0.00    +0.000 A 
ATOM     20  C   UNL     1     112.090 132.082 145.175  0.00  0.00    +0.000 A 
BRANCH  20  22
ATOM     21  O   UNL     1     112.684 132.729 148.355  0.00  0.00    +0.000 OA
ATOM     22  C   UNL     1     112.238 132.243 145.969  0.00  0.00    +0.000 A 
ATOM     23  C   UNL     1     112.958 132.024 146.307  0.00  0.00    +0.000 A 
ATOM     24  C   UNL     1     111.667 132.626 146.427  0.00  0.00    +0.000 A 
ATOM     25  C   UNL     1     113.106 132.186 147.103  0.00  0.00    +0.000 A 
ATOM     26  C   UNL     1     111.815 132.787 147.221  0.00  0.00    +0.000 A 
ATOM     27  C   UNL     1     112.535 132.568 147.559  0.00  0.00    +0.000 A 
ENDBRANCH  20  22
BRANCH  14  28
ATOM     28  O   UNL     1     111.411 129.391 142.803  0.00  0.00    +0.000 OA
ATOM     29  C   UNL     1     111.278 128.800 143.363  0.00  0.00    +0.000 C 
ENDBRANCH  14  28
ENDBRANCH   6  12
BRANCH   8  30
ATOM     30  C   UNL     1     109.677 130.093 140.412  0.00  0.00    +0.000 C 
ATOM     31  C   UNL     1     109.055 130.602 140.596  0.00  0.00    +0.000 C 
ENDBRANCH   8  30
BRANCH   4  32
ATOM     32  O   UNL     1     112.742 130.812 141.402  0.00  0.00    +0.000 OA
BRANCH  32  37
ATOM     33  O   UNL     1     113.263 129.510 141.124  0.00  0.00    +0.000 OA
ATOM     34  O   UNL     1     114.218 131.473 141.072  0.00  0.00    +0.000 OA
ATOM     35  O   UNL     1     115.477 130.502 140.629  0.00  0.00    +0.000 OA
ATOM     36  O   UNL     1     115.260 128.870 140.517  0.00  0.00    +0.000 OA
ATOM     37  C   UNL     1     113.372 130.326 141.180  0.00  0.00    +0.000 C 
ATOM     38  C   UNL     1     114.110 130.657 141.015  0.00  0.00    +0.000 C 
ATOM     39  C   UNL     1     114.739 130.171 140.794  0.00  0.00    +0.000 C 
ATOM     40  C   UNL     1     114.631 129.355 140.738  0.00  0.00    +0.000 C 
ATOM     41  C   UNL     1     113.893 129.025 140.903  0.00  0.00    +0.000 C 
BRANCH  41  42
ATOM     42  C   UNL     1     113.785 128.209 140.847  0.00  0.00    +0.000 C 
BRANCH  42  43
ATOM     43  O   UNL     1     113.445 127.884 140.168  0.00  0.00    +0.000 OA
BRANCH  43  45
ATOM     44  O   UNL     1     112.710 126.816 140.767  0.00  0.00    +0.000 OA
ATOM     45  C   UNL     1     113.200 127.097 140.166  0.00  0.00    +0.000 C 
BRANCH  45  46
ATOM     46  C   UNL     1     113.446 126.589 139.563  0.00  0.00    +0.000 C 
ATOM     47  C   UNL     1     112.937 126.417 138.937  0.00  0.00    +0.000 C 
BRANCH  47  49
ATOM     48  O   UNL     1     113.922 124.391 136.526  0.00  0.00    +0.000 OA
ATOM     49  C   UNL     1     113.184 125.910 138.334  0.00  0.00    +0.000 A 
ATOM     50  C   UNL     1     112.626 125.483 137.900  0.00  0.00    +0.000 A 
ATOM     51  C   UNL     1     113.987 125.831 138.165  0.00  0.00    +0.000 A 
ATOM     52  C   UNL     1     112.873 124.977 137.298  0.00  0.00    +0.000 A 
ATOM     53  C   UNL     1     114.233 125.324 137.562  0.00  0.00    +0.000 A 
ATOM     54  C   UNL     1     113.675 124.897 137.129  0.00  0.00    +0.000 A 
BRANCH  52  55
ATOM     55  O   UNL     1     112.315 124.550 136.864  0.00  0.00    +0.000 OA
ATOM     56  C   UNL     1     111.559 124.429 137.170  0.00  0.00    +0.000 C 
ENDBRANCH  52  55
ENDBRANCH  47  49
ENDBRANCH  45  46
ENDBRANCH  43  45
ENDBRANCH  42  43
ENDBRANCH  41  42
ENDBRANCH  32  37
ENDBRANCH   4  32
TORSDOF 12
ENDMDL
MODEL 7
REMARK VINA RESULT:      -9.7      5.538      8.482
REMARK  Name = 44258336
REMARK  12 active torsions:
REMARK  status: ('A' for Active; 'I' for Inactive)
REMARK    1  A    between atoms: O_2  and  C_18
REMARK    2  A    between atoms: O_2  and  C_23
REMARK    3  A    between atoms: O_9  and  C_30
REMARK    4  A    between atoms: O_9  and  C_41
REMARK    5  A    between atoms: O_10  and  C_32
REMARK    6  A    between atoms: O_16  and  C_53
REMARK    7  A    between atoms: C_20  and  C_29
REMARK    8  A    between atoms: C_22  and  C_28
REMARK    9  A    between atoms: C_27  and  C_30
REMARK   10  A    between atoms: C_39  and  C_42
REMARK   11  A    between atoms: C_41  and  C_43
REMARK   12  A    between atoms: C_46  and  C_50
REMARK                            x       y       z     vdW  Elec       q    Type
REMARK                         _______ _______ _______ _____ _____    ______ ____
ROOT
ATOM      1  O   UNL     1     105.221 128.190 143.139  0.00  0.00    +0.000 OA
ATOM      2  O   UNL     1     107.109 129.057 141.794  0.00  0.00    +0.000 OA
ATOM      3  O   UNL     1     105.560 129.233 141.253  0.00  0.00    +0.000 OA
ATOM      4  C   UNL     1     106.625 128.391 142.962  0.00  0.00    +0.000 C 
ATOM      5  C   UNL     1     106.480 128.768 142.242  0.00  0.00    +0.000 C 
ATOM      6  C   UNL     1     105.996 128.102 143.410  0.00  0.00    +0.000 C 
ATOM      7  C   UNL     1     105.705 128.856 141.971  0.00  0.00    +0.000 C 
ATOM      8  C   UNL     1     105.076 128.567 142.421  0.00  0.00    +0.000 C 
ENDROOT
BRANCH   6  12
ATOM      9  O   UNL     1     105.986 126.455 143.494  0.00  0.00    +0.000 OA
ATOM     10  O   UNL     1     106.585 126.590 146.323  0.00  0.00    +0.000 OA
ATOM     11  O   UNL     1     106.123 125.227 144.239  0.00  0.00    +0.000 OA
ATOM     12  C   UNL     1     106.142 127.725 144.130  0.00  0.00    +0.000 A 
ATOM     13  C   UNL     1     106.136 126.901 144.171  0.00  0.00    +0.000 A 
ATOM     14  C   UNL     1     106.292 128.171 144.806  0.00  0.00    +0.000 A 
ATOM     15  C   UNL     1     106.282 126.525 144.891  0.00  0.00    +0.000 A 
ATOM     16  C   UNL     1     106.437 127.795 145.525  0.00  0.00    +0.000 A 
ATOM     17  C   UNL     1     106.432 126.971 145.567  0.00  0.00    +0.000 A 
ATOM     18  C   UNL     1     106.274 125.665 144.921  0.00  0.00    +0.000 A 
ATOM     19  C   UNL     1     106.425 125.266 145.668  0.00  0.00    +0.000 A 
ATOM     20  C   UNL     1     106.582 125.732 146.374  0.00  0.00    +0.000 A 
BRANCH  20  22
ATOM     21  O   UNL     1     107.165 124.236 149.256  0.00  0.00    +0.000 OA
ATOM     22  C   UNL     1     106.727 125.358 147.093  0.00  0.00    +0.000 A 
ATOM     23  C   UNL     1     107.497 125.313 147.387  0.00  0.00    +0.000 A 
ATOM     24  C   UNL     1     106.103 125.029 147.522  0.00  0.00    +0.000 A 
ATOM     25  C   UNL     1     107.643 124.939 148.108  0.00  0.00    +0.000 A 
ATOM     26  C   UNL     1     106.248 124.655 148.242  0.00  0.00    +0.000 A 
ATOM     27  C   UNL     1     107.018 124.610 148.535  0.00  0.00    +0.000 A 
ENDBRANCH  20  22
BRANCH  14  28
ATOM     28  O   UNL     1     106.297 128.996 144.764  0.00  0.00    +0.000 OA
ATOM     29  C   UNL     1     106.264 129.445 145.456  0.00  0.00    +0.000 C 
ENDBRANCH  14  28
ENDBRANCH   6  12
BRANCH   8  30
ATOM     30  C   UNL     1     104.301 128.655 142.150  0.00  0.00    +0.000 C 
ATOM     31  C   UNL     1     103.818 129.242 142.468  0.00  0.00    +0.000 C 
ENDBRANCH   8  30
BRANCH   4  32
ATOM     32  O   UNL     1     107.399 128.303 143.232  0.00  0.00    +0.000 OA
BRANCH  32  37
ATOM     33  O   UNL     1     107.837 127.359 142.253  0.00  0.00    +0.000 OA
ATOM     34  O   UNL     1     108.863 129.061 143.156  0.00  0.00    +0.000 OA
ATOM     35  O   UNL     1     110.033 128.496 142.139  0.00  0.00    +0.000 OA
ATOM     36  O   UNL     1     109.739 127.172 141.199  0.00  0.00    +0.000 OA
ATOM     37  C   UNL     1     107.984 128.020 142.723  0.00  0.00    +0.000 C 
ATOM     38  C   UNL     1     108.716 128.399 142.685  0.00  0.00    +0.000 C 
ATOM     39  C   UNL     1     109.301 128.116 142.177  0.00  0.00    +0.000 C 
ATOM     40  C   UNL     1     109.154 127.455 141.707  0.00  0.00    +0.000 C 
ATOM     41  C   UNL     1     108.422 127.076 141.745  0.00  0.00    +0.000 C 
BRANCH  41  42
ATOM     42  C   UNL     1     108.275 126.414 141.275  0.00  0.00    +0.000 C 
BRANCH  42  43
ATOM     43  O   UNL     1     107.526 126.301 140.945  0.00  0.00    +0.000 OA
BRANCH  43  45
ATOM     44  O   UNL     1     107.889 125.457 139.852  0.00  0.00    +0.000 OA
ATOM     45  C   UNL     1     107.379 125.641 140.472  0.00  0.00    +0.000 C 
BRANCH  45  46
ATOM     46  C   UNL     1     106.721 125.166 140.622  0.00  0.00    +0.000 C 
ATOM     47  C   UNL     1     106.440 124.657 140.036  0.00  0.00    +0.000 C 
BRANCH  47  49
ATOM     48  O   UNL     1     103.810 122.755 140.633  0.00  0.00    +0.000 OA
ATOM     49  C   UNL     1     105.782 124.181 140.186  0.00  0.00    +0.000 A 
ATOM     50  C   UNL     1     105.178 124.126 139.627  0.00  0.00    +0.000 A 
ATOM     51  C   UNL     1     105.729 123.761 140.894  0.00  0.00    +0.000 A 
ATOM     52  C   UNL     1     104.521 123.651 139.776  0.00  0.00    +0.000 A 
ATOM     53  C   UNL     1     105.072 123.286 141.042  0.00  0.00    +0.000 A 
ATOM     54  C   UNL     1     104.467 123.231 140.483  0.00  0.00    +0.000 A 
BRANCH  52  55
ATOM     55  O   UNL     1     103.916 123.595 139.217  0.00  0.00    +0.000 OA
ATOM     56  C   UNL     1     104.090 123.656 138.413  0.00  0.00    +0.000 C 
ENDBRANCH  52  55
ENDBRANCH  47  49
ENDBRANCH  45  46
ENDBRANCH  43  45
ENDBRANCH  42  43
ENDBRANCH  41  42
ENDBRANCH  32  37
ENDBRANCH   4  32
TORSDOF 12
ENDMDL
MODEL 8
REMARK VINA RESULT:      -9.6      5.182      9.210
REMARK  Name = 44258336
REMARK  12 active torsions:
REMARK  status: ('A' for Active; 'I' for Inactive)
REMARK    1  A    between atoms: O_2  and  C_18
REMARK    2  A    between atoms: O_2  and  C_23
REMARK    3  A    between atoms: O_9  and  C_30
REMARK    4  A    between atoms: O_9  and  C_41
REMARK    5  A    between atoms: O_10  and  C_32
REMARK    6  A    between atoms: O_16  and  C_53
REMARK    7  A    between atoms: C_20  and  C_29
REMARK    8  A    between atoms: C_22  and  C_28
REMARK    9  A    between atoms: C_27  and  C_30
REMARK   10  A    between atoms: C_39  and  C_42
REMARK   11  A    between atoms: C_41  and  C_43
REMARK   12  A    between atoms: C_46  and  C_50
REMARK                            x       y       z     vdW  Elec       q    Type
REMARK                         _______ _______ _______ _____ _____    ______ ____
ROOT
ATOM      1  O   UNL     1     105.443 129.413 142.744  0.00  0.00    +0.000 OA
ATOM      2  O   UNL     1     105.302 127.293 141.475  0.00  0.00    +0.000 OA
ATOM      3  O   UNL     1     103.942 128.189 141.741  0.00  0.00    +0.000 OA
ATOM      4  C   UNL     1     106.077 128.259 142.188  0.00  0.00    +0.000 C 
ATOM      5  C   UNL     1     105.349 128.000 141.898  0.00  0.00    +0.000 C 
ATOM      6  C   UNL     1     106.123 128.966 142.612  0.00  0.00    +0.000 C 
ATOM      7  C   UNL     1     104.668 128.448 142.031  0.00  0.00    +0.000 C 
ATOM      8  C   UNL     1     104.716 129.154 142.454  0.00  0.00    +0.000 C 
ENDROOT
BRANCH   6  12
ATOM      9  O   UNL     1     106.512 128.724 144.197  0.00  0.00    +0.000 OA
ATOM     10  O   UNL     1     109.067 130.016 143.773  0.00  0.00    +0.000 OA
ATOM     11  O   UNL     1     107.424 128.850 145.307  0.00  0.00    +0.000 OA
ATOM     12  C   UNL     1     106.852 129.225 142.902  0.00  0.00    +0.000 A 
ATOM     13  C   UNL     1     107.045 129.103 143.695  0.00  0.00    +0.000 A 
ATOM     14  C   UNL     1     107.384 129.604 142.400  0.00  0.00    +0.000 A 
ATOM     15  C   UNL     1     107.773 129.362 143.984  0.00  0.00    +0.000 A 
ATOM     16  C   UNL     1     108.112 129.863 142.690  0.00  0.00    +0.000 A 
ATOM     17  C   UNL     1     108.305 129.742 143.483  0.00  0.00    +0.000 A 
ATOM     18  C   UNL     1     107.963 129.230 144.813  0.00  0.00    +0.000 A 
ATOM     19  C   UNL     1     108.720 129.498 145.122  0.00  0.00    +0.000 A 
ATOM     20  C   UNL     1     109.276 129.893 144.598  0.00  0.00    +0.000 A 
BRANCH  20  22
ATOM     21  O   UNL     1     112.189 130.934 145.747  0.00  0.00    +0.000 OA
ATOM     22  C   UNL     1     110.003 130.153 144.885  0.00  0.00    +0.000 A 
ATOM     23  C   UNL     1     110.640 129.631 144.928  0.00  0.00    +0.000 A 
ATOM     24  C   UNL     1     110.095 130.937 145.130  0.00  0.00    +0.000 A 
ATOM     25  C   UNL     1     111.369 129.891 145.216  0.00  0.00    +0.000 A 
ATOM     26  C   UNL     1     110.823 131.196 145.417  0.00  0.00    +0.000 A 
ATOM     27  C   UNL     1     111.460 130.674 145.460  0.00  0.00    +0.000 A 
ENDBRANCH  20  22
BRANCH  14  28
ATOM     28  O   UNL     1     107.190 129.725 141.607  0.00  0.00    +0.000 OA
ATOM     29  C   UNL     1     107.629 130.253 141.151  0.00  0.00    +0.000 C 
ENDBRANCH  14  28
ENDBRANCH   6  12
BRANCH   8  30
ATOM     30  C   UNL     1     104.035 129.602 142.587  0.00  0.00    +0.000 C 
ATOM     31  C   UNL     1     103.994 130.379 142.315  0.00  0.00    +0.000 C 
ENDBRANCH   8  30
BRANCH   4  32
ATOM     32  O   UNL     1     106.756 127.812 142.056  0.00  0.00    +0.000 OA
BRANCH  32  37
ATOM     33  O   UNL     1     106.390 126.703 142.879  0.00  0.00    +0.000 OA
ATOM     34  O   UNL     1     107.462 126.780 140.978  0.00  0.00    +0.000 OA
ATOM     35  O   UNL     1     107.449 125.154 141.262  0.00  0.00    +0.000 OA
ATOM     36  O   UNL     1     106.730 124.561 142.624  0.00  0.00    +0.000 OA
ATOM     37  C   UNL     1     106.750 126.999 142.198  0.00  0.00    +0.000 C 
ATOM     38  C   UNL     1     107.102 126.483 141.659  0.00  0.00    +0.000 C 
ATOM     39  C   UNL     1     107.096 125.671 141.801  0.00  0.00    +0.000 C 
ATOM     40  C   UNL     1     106.737 125.373 142.482  0.00  0.00    +0.000 C 
ATOM     41  C   UNL     1     106.384 125.889 143.021  0.00  0.00    +0.000 C 
BRANCH  41  42
ATOM     42  C   UNL     1     106.024 125.593 143.702  0.00  0.00    +0.000 C 
BRANCH  42  43
ATOM     43  O   UNL     1     106.346 125.761 144.443  0.00  0.00    +0.000 OA
BRANCH  43  45
ATOM     44  O   UNL     1     105.111 125.661 145.154  0.00  0.00    +0.000 OA
ATOM     45  C   UNL     1     105.929 125.563 145.127  0.00  0.00    +0.000 C 
BRANCH  45  46
ATOM     46  C   UNL     1     106.331 125.267 145.784  0.00  0.00    +0.000 C 
ATOM     47  C   UNL     1     106.305 125.675 146.501  0.00  0.00    +0.000 C 
BRANCH  47  49
ATOM     48  O   UNL     1     107.915 124.494 149.128  0.00  0.00    +0.000 OA
ATOM     49  C   UNL     1     106.708 125.380 147.158  0.00  0.00    +0.000 A 
ATOM     50  C   UNL     1     106.287 125.047 147.785  0.00  0.00    +0.000 A 
ATOM     51  C   UNL     1     107.531 125.417 147.188  0.00  0.00    +0.000 A 
ATOM     52  C   UNL     1     106.689 124.752 148.441  0.00  0.00    +0.000 A 
ATOM     53  C   UNL     1     107.933 125.122 147.845  0.00  0.00    +0.000 A 
ATOM     54  C   UNL     1     107.512 124.789 148.472  0.00  0.00    +0.000 A 
BRANCH  52  55
ATOM     55  O   UNL     1     106.267 124.419 149.069  0.00  0.00    +0.000 OA
ATOM     56  C   UNL     1     105.496 124.665 149.223  0.00  0.00    +0.000 C 
ENDBRANCH  52  55
ENDBRANCH  47  49
ENDBRANCH  45  46
ENDBRANCH  43  45
ENDBRANCH  42  43
ENDBRANCH  41  42
ENDBRANCH  32  37
ENDBRANCH   4  32
TORSDOF 12
ENDMDL
MODEL 9
REMARK VINA RESULT:      -9.6      1.866      5.914
REMARK  Name = 44258336
REMARK  12 active torsions:
REMARK  status: ('A' for Active; 'I' for Inactive)
REMARK    1  A    between atoms: O_2  and  C_18
REMARK    2  A    between atoms: O_2  and  C_23
REMARK    3  A    between atoms: O_9  and  C_30
REMARK    4  A    between atoms: O_9  and  C_41
REMARK    5  A    between atoms: O_10  and  C_32
REMARK    6  A    between atoms: O_16  and  C_53
REMARK    7  A    between atoms: C_20  and  C_29
REMARK    8  A    between atoms: C_22  and  C_28
REMARK    9  A    between atoms: C_27  and  C_30
REMARK   10  A    between atoms: C_39  and  C_42
REMARK   11  A    between atoms: C_41  and  C_43
REMARK   12  A    between atoms: C_46  and  C_50
REMARK                            x       y       z     vdW  Elec       q    Type
REMARK                         _______ _______ _______ _____ _____    ______ ____
ROOT
ATOM      1  O   UNL     1     111.784 126.165 136.502  0.00  0.00    +0.000 OA
ATOM      2  O   UNL     1     110.957 124.939 138.487  0.00  0.00    +0.000 OA
ATOM      3  O   UNL     1     112.351 124.462 137.744  0.00  0.00    +0.000 OA
ATOM      4  C   UNL     1     110.811 125.995 137.535  0.00  0.00    +0.000 C 
ATOM      5  C   UNL     1     111.233 125.348 137.825  0.00  0.00    +0.000 C 
ATOM      6  C   UNL     1     111.087 126.403 136.874  0.00  0.00    +0.000 C 
ATOM      7  C   UNL     1     111.930 125.109 137.454  0.00  0.00    +0.000 C 
ATOM      8  C   UNL     1     112.205 125.518 136.792  0.00  0.00    +0.000 C 
ENDROOT
BRANCH   6  12
ATOM      9  O   UNL     1     111.526 127.934 137.305  0.00  0.00    +0.000 OA
ATOM     10  O   UNL     1     109.375 129.011 135.696  0.00  0.00    +0.000 OA
ATOM     11  O   UNL     1     111.345 129.364 137.248  0.00  0.00    +0.000 OA
ATOM     12  C   UNL     1     110.665 127.051 136.584  0.00  0.00    +0.000 A 
ATOM     13  C   UNL     1     110.885 127.816 136.800  0.00  0.00    +0.000 A 
ATOM     14  C   UNL     1     110.024 126.933 136.079  0.00  0.00    +0.000 A 
ATOM     15  C   UNL     1     110.463 128.463 136.510  0.00  0.00    +0.000 A 
ATOM     16  C   UNL     1     109.602 127.580 135.789  0.00  0.00    +0.000 A 
ATOM     17  C   UNL     1     109.822 128.345 136.005  0.00  0.00    +0.000 A 
ATOM     18  C   UNL     1     110.702 129.256 136.742  0.00  0.00    +0.000 A 
ATOM     19  C   UNL     1     110.267 129.935 136.444  0.00  0.00    +0.000 A 
ATOM     20  C   UNL     1     109.599 129.811 135.917  0.00  0.00    +0.000 A 
BRANCH  20  22
ATOM     21  O   UNL     1     107.904 132.392 134.752  0.00  0.00    +0.000 OA
ATOM     22  C   UNL     1     109.175 130.456 135.626  0.00  0.00    +0.000 A 
ATOM     23  C   UNL     1     109.384 130.794 134.903  0.00  0.00    +0.000 A 
ATOM     24  C   UNL     1     108.542 130.763 136.058  0.00  0.00    +0.000 A 
ATOM     25  C   UNL     1     108.960 131.439 134.612  0.00  0.00    +0.000 A 
ATOM     26  C   UNL     1     108.119 131.408 135.767  0.00  0.00    +0.000 A 
ATOM     27  C   UNL     1     108.327 131.746 135.044  0.00  0.00    +0.000 A 
ENDBRANCH  20  22
BRANCH  14  28
ATOM     28  O   UNL     1     109.804 126.167 135.863  0.00  0.00    +0.000 OA
ATOM     29  C   UNL     1     109.328 126.046 135.201  0.00  0.00    +0.000 C 
ENDBRANCH  14  28
ENDBRANCH   6  12
BRANCH   8  30
ATOM     30  C   UNL     1     112.902 125.280 136.420  0.00  0.00    +0.000 C 
ATOM     31  C   UNL     1     113.583 125.741 136.485  0.00  0.00    +0.000 C 
ENDBRANCH   8  30
BRANCH   4  32
ATOM     32  O   UNL     1     110.115 126.233 137.907  0.00  0.00    +0.000 OA
BRANCH  32  37
ATOM     33  O   UNL     1     110.792 126.545 139.126  0.00  0.00    +0.000 OA
ATOM     34  O   UNL     1     108.702 126.045 138.738  0.00  0.00    +0.000 OA
ATOM     35  O   UNL     1     108.672 126.263 140.374  0.00  0.00    +0.000 OA
ATOM     36  O   UNL     1     110.055 126.668 141.177  0.00  0.00    +0.000 OA
ATOM     37  C   UNL     1     110.100 126.342 138.725  0.00  0.00    +0.000 C 
ATOM     38  C   UNL     1     109.394 126.248 139.141  0.00  0.00    +0.000 C 
ATOM     39  C   UNL     1     109.379 126.357 139.958  0.00  0.00    +0.000 C 
ATOM     40  C   UNL     1     110.070 126.560 140.360  0.00  0.00    +0.000 C 
ATOM     41  C   UNL     1     110.776 126.654 139.945  0.00  0.00    +0.000 C 
BRANCH  41  42
ATOM     42  C   UNL     1     111.468 126.857 140.346  0.00  0.00    +0.000 C 
BRANCH  42  43
ATOM     43  O   UNL     1     111.924 127.494 140.085  0.00  0.00    +0.000 OA
BRANCH  43  45
ATOM     44  O   UNL     1     113.106 126.972 140.693  0.00  0.00    +0.000 OA
ATOM     45  C   UNL     1     112.682 127.609 140.389  0.00  0.00    +0.000 C 
BRANCH  45  46
ATOM     46  C   UNL     1     113.015 128.365 140.389  0.00  0.00    +0.000 C 
ATOM     47  C   UNL     1     113.544 128.582 140.984  0.00  0.00    +0.000 C 
BRANCH  47  49
ATOM     48  O   UNL     1     114.876 131.601 140.984  0.00  0.00    +0.000 OA
ATOM     49  C   UNL     1     113.877 129.337 140.984  0.00  0.00    +0.000 A 
ATOM     50  C   UNL     1     113.497 129.956 141.376  0.00  0.00    +0.000 A 
ATOM     51  C   UNL     1     114.590 129.472 140.592  0.00  0.00    +0.000 A 
ATOM     52  C   UNL     1     113.830 130.710 141.375  0.00  0.00    +0.000 A 
ATOM     53  C   UNL     1     114.923 130.227 140.593  0.00  0.00    +0.000 A 
ATOM     54  C   UNL     1     114.542 130.846 140.984  0.00  0.00    +0.000 A 
BRANCH  52  55
ATOM     55  O   UNL     1     113.449 131.329 141.767  0.00  0.00    +0.000 OA
ATOM     56  C   UNL     1     112.828 131.169 142.285  0.00  0.00    +0.000 C 
ENDBRANCH  52  55
ENDBRANCH  47  49
ENDBRANCH  45  46
ENDBRANCH  43  45
ENDBRANCH  42  43
ENDBRANCH  41  42
ENDBRANCH  32  37
ENDBRANCH   4  32
TORSDOF 12
ENDMDL
MODEL 10
REMARK VINA RESULT:      -9.6      2.273      4.860
REMARK  Name = 44258336
REMARK  12 active torsions:
REMARK  status: ('A' for Active; 'I' for Inactive)
REMARK    1  A    between atoms: O_2  and  C_18
REMARK    2  A    between atoms: O_2  and  C_23
REMARK    3  A    between atoms: O_9  and  C_30
REMARK    4  A    between atoms: O_9  and  C_41
REMARK    5  A    between atoms: O_10  and  C_32
REMARK    6  A    between atoms: O_16  and  C_53
REMARK    7  A    between atoms: C_20  and  C_29
REMARK    8  A    between atoms: C_22  and  C_28
REMARK    9  A    between atoms: C_27  and  C_30
REMARK   10  A    between atoms: C_39  and  C_42
REMARK   11  A    between atoms: C_41  and  C_43
REMARK   12  A    between atoms: C_46  and  C_50
REMARK                            x       y       z     vdW  Elec       q    Type
REMARK                         _______ _______ _______ _____ _____    ______ ____
ROOT
ATOM      1  O   UNL     1     113.161 127.579 141.000  0.00  0.00    +0.000 OA
ATOM      2  O   UNL     1     113.279 129.850 140.022  0.00  0.00    +0.000 OA
ATOM      3  O   UNL     1     114.667 129.037 140.392  0.00  0.00    +0.000 OA
ATOM      4  C   UNL     1     112.506 128.742 140.488  0.00  0.00    +0.000 C 
ATOM      5  C   UNL     1     113.240 129.093 140.348  0.00  0.00    +0.000 C 
ATOM      6  C   UNL     1     112.467 127.985 140.814  0.00  0.00    +0.000 C 
ATOM      7  C   UNL     1     113.934 128.687 140.533  0.00  0.00    +0.000 C 
ATOM      8  C   UNL     1     113.894 127.930 140.859  0.00  0.00    +0.000 C 
ENDROOT
BRANCH   6  12
ATOM      9  O   UNL     1     111.856 126.892 139.740  0.00  0.00    +0.000 OA
ATOM     10  O   UNL     1     109.502 126.575 141.394  0.00  0.00    +0.000 OA
ATOM     11  O   UNL     1     110.823 125.980 139.316  0.00  0.00    +0.000 OA
ATOM     12  C   UNL     1     111.733 127.634 140.955  0.00  0.00    +0.000 A 
ATOM     13  C   UNL     1     111.428 127.088 140.418  0.00  0.00    +0.000 A 
ATOM     14  C   UNL     1     111.306 127.830 141.632  0.00  0.00    +0.000 A 
ATOM     15  C   UNL     1     110.695 126.738 140.559  0.00  0.00    +0.000 A 
ATOM     16  C   UNL     1     110.573 127.480 141.773  0.00  0.00    +0.000 A 
ATOM     17  C   UNL     1     110.268 126.933 141.236  0.00  0.00    +0.000 A 
ATOM     18  C   UNL     1     110.388 126.169 139.991  0.00  0.00    +0.000 A 
ATOM     19  C   UNL     1     109.624 125.800 140.132  0.00  0.00    +0.000 A 
ATOM     20  C   UNL     1     109.178 126.004 140.838  0.00  0.00    +0.000 A 
BRANCH  20  22
ATOM     21  O   UNL     1     106.243 124.609 141.411  0.00  0.00    +0.000 OA
ATOM     22  C   UNL     1     108.445 125.656 140.981  0.00  0.00    +0.000 A 
ATOM     23  C   UNL     1     108.382 124.835 141.039  0.00  0.00    +0.000 A 
ATOM     24  C   UNL     1     107.773 126.128 141.067  0.00  0.00    +0.000 A 
ATOM     25  C   UNL     1     107.648 124.487 141.182  0.00  0.00    +0.000 A 
ATOM     26  C   UNL     1     107.040 125.779 141.211  0.00  0.00    +0.000 A 
ATOM     27  C   UNL     1     106.977 124.959 141.268  0.00  0.00    +0.000 A 
ENDBRANCH  20  22
BRANCH  14  28
ATOM     28  O   UNL     1     111.611 128.377 142.170  0.00  0.00    +0.000 OA
ATOM     29  C   UNL     1     111.271 128.455 142.917  0.00  0.00    +0.000 C 
ENDBRANCH  14  28
ENDBRANCH   6  12
BRANCH   8  30
ATOM     30  C   UNL     1     114.588 127.523 141.045  0.00  0.00    +0.000 C 
ATOM     31  C   UNL     1     114.749 126.798 140.688  0.00  0.00    +0.000 C 
ENDBRANCH   8  30
BRANCH   4  32
ATOM     32  O   UNL     1     111.813 129.147 140.303  0.00  0.00    +0.000 OA
BRANCH  32  37
ATOM     33  O   UNL     1     112.048 129.201 138.895  0.00  0.00    +0.000 OA
ATOM     34  O   UNL     1     111.079 130.624 140.237  0.00  0.00    +0.000 OA
ATOM     35  O   UNL     1     110.946 131.416 138.796  0.00  0.00    +0.000 OA
ATOM     36  O   UNL     1     111.548 130.731 137.420  0.00  0.00    +0.000 OA
ATOM     37  C   UNL     1     111.747 129.544 139.582  0.00  0.00    +0.000 C 
ATOM     38  C   UNL     1     111.380 130.282 139.549  0.00  0.00    +0.000 C 
ATOM     39  C   UNL     1     111.313 130.677 138.829  0.00  0.00    +0.000 C 
ATOM     40  C   UNL     1     111.614 130.336 138.140  0.00  0.00    +0.000 C 
ATOM     41  C   UNL     1     111.981 129.597 138.173  0.00  0.00    +0.000 C 
BRANCH  41  42
ATOM     42  C   UNL     1     112.282 129.255 137.486  0.00  0.00    +0.000 C 
BRANCH  42  43
ATOM     43  O   UNL     1     112.111 128.467 137.310  0.00  0.00    +0.000 OA
BRANCH  43  45
ATOM     44  O   UNL     1     112.617 128.341 135.980  0.00  0.00    +0.000 OA
ATOM     45  C   UNL     1     112.566 128.061 136.753  0.00  0.00    +0.000 C 
BRANCH  45  46
ATOM     46  C   UNL     1     112.970 127.375 136.972  0.00  0.00    +0.000 C 
ATOM     47  C   UNL     1     112.905 126.695 136.510  0.00  0.00    +0.000 C 
BRANCH  47  49
ATOM     48  O   UNL     1     114.521 123.953 137.383  0.00  0.00    +0.000 OA
ATOM     49  C   UNL     1     113.309 126.009 136.728  0.00  0.00    +0.000 A 
ATOM     50  C   UNL     1     112.940 125.274 136.663  0.00  0.00    +0.000 A 
ATOM     51  C   UNL     1     114.082 126.059 137.012  0.00  0.00    +0.000 A 
ATOM     52  C   UNL     1     113.344 124.589 136.881  0.00  0.00    +0.000 A 
ATOM     53  C   UNL     1     114.486 125.373 137.230  0.00  0.00    +0.000 A 
ATOM     54  C   UNL     1     114.116 124.638 137.165  0.00  0.00    +0.000 A 
BRANCH  52  55
ATOM     55  O   UNL     1     112.974 123.853 136.816  0.00  0.00    +0.000 OA
ATOM     56  C   UNL     1     112.160 123.811 136.694  0.00  0.00    +0.000 C 
ENDBRANCH  52  55
ENDBRANCH  47  49
ENDBRANCH  45  46
ENDBRANCH  43  45
ENDBRANCH  42  43
ENDBRANCH  41  42
ENDBRANCH  32  37
ENDBRANCH   4  32
TORSDOF 12
ENDMDL
