MODEL 1
REMARK VINA RESULT:      -8.1      0.000      0.000
REMARK  Name = 13845909
REMARK  5 active torsions:
REMARK  status: ('A' for Active; 'I' for Inactive)
REMARK    1  A    between atoms: S_1  and  O_3
REMARK    2  A    between atoms: O_3  and  C_20
REMARK    3  A    between atoms: O_4  and  C_19
REMARK    4  A    between atoms: O_7  and  C_24
REMARK    5  A    between atoms: C_14  and  C_18
REMARK                            x       y       z     vdW  Elec       q    Type
REMARK                         _______ _______ _______ _____ _____    ______ ____
ROOT
ATOM      1  O   UNL     1     113.746 127.703 136.295  0.00  0.00    +0.000 OA
ATOM      2  O   UNL     1     111.190 126.365 136.066  0.00  0.00    +0.000 OA
ATOM      3  O   UNL     1     111.319 127.715 135.575  0.00  0.00    +0.000 OA
ATOM      4  C   UNL     1     112.453 127.023 136.180  0.00  0.00    +0.000 A 
ATOM      5  C   UNL     1     113.244 127.016 136.416  0.00  0.00    +0.000 A 
ATOM      6  C   UNL     1     113.421 128.405 135.923  0.00  0.00    +0.000 A 
ATOM      7  C   UNL     1     111.980 126.358 136.302  0.00  0.00    +0.000 A 
ATOM      8  C   UNL     1     112.111 127.717 135.807  0.00  0.00    +0.000 A 
ATOM      9  C   UNL     1     113.561 126.344 136.773  0.00  0.00    +0.000 A 
ATOM     10  C   UNL     1     112.298 125.685 136.659  0.00  0.00    +0.000 A 
ATOM     11  C   UNL     1     113.089 125.678 136.895  0.00  0.00    +0.000 A 
ATOM     12  C   UNL     1     112.598 128.413 135.678  0.00  0.00    +0.000 A 
ENDROOT
BRANCH   6  14
ATOM     13  O   UNL     1     115.321 131.061 135.443  0.00  0.00    +0.000 OA
ATOM     14  C   UNL     1     113.896 129.069 135.803  0.00  0.00    +0.000 A 
ATOM     15  C   UNL     1     113.956 129.646 136.390  0.00  0.00    +0.000 A 
ATOM     16  C   UNL     1     114.312 129.156 135.096  0.00  0.00    +0.000 A 
ATOM     17  C   UNL     1     114.430 130.309 136.270  0.00  0.00    +0.000 A 
ATOM     18  C   UNL     1     114.787 129.821 134.976  0.00  0.00    +0.000 A 
ATOM     19  C   UNL     1     114.846 130.397 135.563  0.00  0.00    +0.000 A 
BRANCH  17  20
ATOM     20  O   UNL     1     114.490 130.886 136.857  0.00  0.00    +0.000 OA
ATOM     21  C   UNL     1     114.020 130.836 137.534  0.00  0.00    +0.000 C 
ENDBRANCH  17  20
ENDBRANCH   6  14
BRANCH  10  22
ATOM     22  O   UNL     1     111.825 125.021 136.780  0.00  0.00    +0.000 OA
ATOM     23  C   UNL     1     111.199 125.053 137.318  0.00  0.00    +0.000 C 
ENDBRANCH  10  22
BRANCH  11  24
ATOM     24  O   UNL     1     113.406 125.006 137.252  0.00  0.00    +0.000 OA
BRANCH  24  25
ATOM     25  S   UNL     1     114.224 124.905 137.286  0.00  0.00    +0.000 S 
ATOM     26  O   UNL     1     115.042 124.804 137.321  0.00  0.00    +0.000 OA
ATOM     27  O   UNL     1     114.212 124.552 136.541  0.00  0.00    +0.000 OA
ATOM     28  O   UNL     1     114.237 125.258 138.032  0.00  0.00    +0.000 OA
ENDBRANCH  24  25
ENDBRANCH  11  24
TORSDOF 5
ENDMDL
MODEL 2
REMARK VINA RESULT:      -8.1     13.132     15.064
REMARK  Name = 13845909
REMARK  5 active torsions:
REMARK  status: ('A' for Active; 'I' for Inactive)
REMARK    1  A    between atoms: S_1  and  O_3
REMARK    2  A    between atoms: O_3  and  C_20
REMARK    3  A    between atoms: O_4  and  C_19
REMARK    4  A    between atoms: O_7  and  C_24
REMARK    5  A    between atoms: C_14  and  C_18
REMARK                            x       y       z     vdW  Elec       q    Type
REMARK                         _______ _______ _______ _____ _____    ______ ____
ROOT
ATOM      1  O   UNL     1     104.684 124.625 147.699  0.00  0.00    +0.000 OA
ATOM      2  O   UNL     1     102.335 125.441 149.179  0.00  0.00    +0.000 OA
ATOM      3  O   UNL     1     103.628 125.924 149.598  0.00  0.00    +0.000 OA
ATOM      4  C   UNL     1     103.493 125.036 148.446  0.00  0.00    +0.000 A 
ATOM      5  C   UNL     1     103.834 124.612 147.827  0.00  0.00    +0.000 A 
ATOM      6  C   UNL     1     105.184 125.086 148.223  0.00  0.00    +0.000 A 
ATOM      7  C   UNL     1     102.676 125.016 148.560  0.00  0.00    +0.000 A 
ATOM      8  C   UNL     1     103.978 125.503 148.981  0.00  0.00    +0.000 A 
ATOM      9  C   UNL     1     103.358 124.167 147.321  0.00  0.00    +0.000 A 
ATOM     10  C   UNL     1     102.200 124.571 148.053  0.00  0.00    +0.000 A 
ATOM     11  C   UNL     1     102.541 124.147 147.433  0.00  0.00    +0.000 A 
ATOM     12  C   UNL     1     104.829 125.528 148.868  0.00  0.00    +0.000 A 
ENDROOT
BRANCH   6  14
ATOM     13  O   UNL     1     108.451 125.159 147.760  0.00  0.00    +0.000 OA
ATOM     14  C   UNL     1     106.001 125.104 148.107  0.00  0.00    +0.000 A 
ATOM     15  C   UNL     1     106.322 125.560 147.499  0.00  0.00    +0.000 A 
ATOM     16  C   UNL     1     106.497 124.666 148.600  0.00  0.00    +0.000 A 
ATOM     17  C   UNL     1     107.138 125.579 147.384  0.00  0.00    +0.000 A 
ATOM     18  C   UNL     1     107.314 124.685 148.484  0.00  0.00    +0.000 A 
ATOM     19  C   UNL     1     107.635 125.141 147.876  0.00  0.00    +0.000 A 
BRANCH  17  20
ATOM     20  O   UNL     1     107.459 126.035 146.776  0.00  0.00    +0.000 OA
ATOM     21  C   UNL     1     107.149 126.782 146.612  0.00  0.00    +0.000 C 
ENDBRANCH  17  20
ENDBRANCH   6  14
BRANCH  10  22
ATOM     22  O   UNL     1     101.383 124.552 148.166  0.00  0.00    +0.000 OA
ATOM     23  C   UNL     1     101.072 124.250 148.869  0.00  0.00    +0.000 C 
ENDBRANCH  10  22
BRANCH  11  24
ATOM     24  O   UNL     1     102.066 123.703 146.927  0.00  0.00    +0.000 OA
BRANCH  24  25
ATOM     25  S   UNL     1     102.365 123.439 146.205  0.00  0.00    +0.000 S 
ATOM     26  O   UNL     1     102.665 123.175 145.483  0.00  0.00    +0.000 OA
ATOM     27  O   UNL     1     102.614 122.739 146.564  0.00  0.00    +0.000 OA
ATOM     28  O   UNL     1     102.116 124.139 145.846  0.00  0.00    +0.000 OA
ENDBRANCH  24  25
ENDBRANCH  11  24
TORSDOF 5
ENDMDL
MODEL 3
REMARK VINA RESULT:      -8.1     11.669     13.365
REMARK  Name = 13845909
REMARK  5 active torsions:
REMARK  status: ('A' for Active; 'I' for Inactive)
REMARK    1  A    between atoms: S_1  and  O_3
REMARK    2  A    between atoms: O_3  and  C_20
REMARK    3  A    between atoms: O_4  and  C_19
REMARK    4  A    between atoms: O_7  and  C_24
REMARK    5  A    between atoms: C_14  and  C_18
REMARK                            x       y       z     vdW  Elec       q    Type
REMARK                         _______ _______ _______ _____ _____    ______ ____
ROOT
ATOM      1  O   UNL     1     103.055 131.867 141.190  0.00  0.00    +0.000 OA
ATOM      2  O   UNL     1     100.923 133.634 142.033  0.00  0.00    +0.000 OA
ATOM      3  O   UNL     1     100.772 132.214 142.230  0.00  0.00    +0.000 OA
ATOM      4  C   UNL     1     101.977 132.765 141.616  0.00  0.00    +0.000 A 
ATOM      5  C   UNL     1     102.721 132.655 141.276  0.00  0.00    +0.000 A 
ATOM      6  C   UNL     1     102.608 131.186 141.461  0.00  0.00    +0.000 A 
ATOM      7  C   UNL     1     101.667 133.525 141.693  0.00  0.00    +0.000 A 
ATOM      8  C   UNL     1     101.516 132.094 141.892  0.00  0.00    +0.000 A 
ATOM      9  C   UNL     1     103.154 133.306 141.015  0.00  0.00    +0.000 A 
ATOM     10  C   UNL     1     102.101 134.176 141.431  0.00  0.00    +0.000 A 
ATOM     11  C   UNL     1     102.845 134.067 141.092  0.00  0.00    +0.000 A 
ATOM     12  C   UNL     1     101.833 131.300 141.814  0.00  0.00    +0.000 A 
ENDROOT
BRANCH   6  14
ATOM     13  O   UNL     1     103.857 128.147 141.146  0.00  0.00    +0.000 OA
ATOM     14  C   UNL     1     102.920 130.426 141.382  0.00  0.00    +0.000 A 
ATOM     15  C   UNL     1     102.790 129.997 140.690  0.00  0.00    +0.000 A 
ATOM     16  C   UNL     1     103.363 130.097 141.996  0.00  0.00    +0.000 A 
ATOM     17  C   UNL     1     103.103 129.237 140.612  0.00  0.00    +0.000 A 
ATOM     18  C   UNL     1     103.675 129.337 141.917  0.00  0.00    +0.000 A 
ATOM     19  C   UNL     1     103.545 128.907 141.224  0.00  0.00    +0.000 A 
BRANCH  17  20
ATOM     20  O   UNL     1     102.973 128.807 139.920  0.00  0.00    +0.000 OA
ATOM     21  C   UNL     1     102.317 128.974 139.447  0.00  0.00    +0.000 C 
ENDBRANCH  17  20
ENDBRANCH   6  14
BRANCH  10  22
ATOM     22  O   UNL     1     101.790 134.936 141.509  0.00  0.00    +0.000 OA
ATOM     23  C   UNL     1     101.685 135.264 142.259  0.00  0.00    +0.000 C 
ENDBRANCH  10  22
BRANCH  11  24
ATOM     24  O   UNL     1     103.278 134.717 140.830  0.00  0.00    +0.000 OA
BRANCH  24  25
ATOM     25  S   UNL     1     103.933 134.607 140.340  0.00  0.00    +0.000 S 
ATOM     26  O   UNL     1     104.587 134.496 139.851  0.00  0.00    +0.000 OA
ATOM     27  O   UNL     1     103.440 134.615 139.679  0.00  0.00    +0.000 OA
ATOM     28  O   UNL     1     104.426 134.598 141.002  0.00  0.00    +0.000 OA
ENDBRANCH  24  25
ENDBRANCH  11  24
TORSDOF 5
ENDMDL
MODEL 4
REMARK VINA RESULT:      -8.0      1.327      2.528
REMARK  Name = 13845909
REMARK  5 active torsions:
REMARK  status: ('A' for Active; 'I' for Inactive)
REMARK    1  A    between atoms: S_1  and  O_3
REMARK    2  A    between atoms: O_3  and  C_20
REMARK    3  A    between atoms: O_4  and  C_19
REMARK    4  A    between atoms: O_7  and  C_24
REMARK    5  A    between atoms: C_14  and  C_18
REMARK                            x       y       z     vdW  Elec       q    Type
REMARK                         _______ _______ _______ _____ _____    ______ ____
ROOT
ATOM      1  O   UNL     1     112.571 127.368 136.108  0.00  0.00    +0.000 OA
ATOM      2  O   UNL     1     113.255 124.621 136.712  0.00  0.00    +0.000 OA
ATOM      3  O   UNL     1     114.254 125.645 136.890  0.00  0.00    +0.000 OA
ATOM      4  C   UNL     1     112.914 125.976 136.413  0.00  0.00    +0.000 A 
ATOM      5  C   UNL     1     112.363 126.535 136.157  0.00  0.00    +0.000 A 
ATOM      6  C   UNL     1     113.362 127.621 136.326  0.00  0.00    +0.000 A 
ATOM      7  C   UNL     1     112.704 125.179 136.457  0.00  0.00    +0.000 A 
ATOM      8  C   UNL     1     113.710 126.211 136.636  0.00  0.00    +0.000 A 
ATOM      9  C   UNL     1     111.603 126.297 135.946  0.00  0.00    +0.000 A 
ATOM     10  C   UNL     1     111.942 124.942 136.245  0.00  0.00    +0.000 A 
ATOM     11  C   UNL     1     111.392 125.500 135.990  0.00  0.00    +0.000 A 
ATOM     12  C   UNL     1     113.935 127.039 136.592  0.00  0.00    +0.000 A 
ENDROOT
BRANCH   6  14
ATOM     13  O   UNL     1     114.193 130.810 136.148  0.00  0.00    +0.000 OA
ATOM     14  C   UNL     1     113.570 128.418 136.282  0.00  0.00    +0.000 A 
ATOM     15  C   UNL     1     113.405 128.923 136.913  0.00  0.00    +0.000 A 
ATOM     16  C   UNL     1     113.943 128.710 135.606  0.00  0.00    +0.000 A 
ATOM     17  C   UNL     1     113.613 129.720 136.868  0.00  0.00    +0.000 A 
ATOM     18  C   UNL     1     114.150 129.508 135.562  0.00  0.00    +0.000 A 
ATOM     19  C   UNL     1     113.985 130.013 136.193  0.00  0.00    +0.000 A 
BRANCH  17  20
ATOM     20  O   UNL     1     113.447 130.226 137.499  0.00  0.00    +0.000 OA
ATOM     21  C   UNL     1     112.750 130.134 137.931  0.00  0.00    +0.000 C 
ENDBRANCH  17  20
ENDBRANCH   6  14
BRANCH  10  22
ATOM     22  O   UNL     1     111.732 124.145 136.289  0.00  0.00    +0.000 OA
ATOM     23  C   UNL     1     111.788 123.743 137.008  0.00  0.00    +0.000 C 
ENDBRANCH  10  22
BRANCH  11  24
ATOM     24  O   UNL     1     110.631 125.263 135.778  0.00  0.00    +0.000 OA
BRANCH  24  25
ATOM     25  S   UNL     1     110.130 125.786 135.384  0.00  0.00    +0.000 S 
ATOM     26  O   UNL     1     109.629 126.310 134.991  0.00  0.00    +0.000 OA
ATOM     27  O   UNL     1     109.818 126.032 136.108  0.00  0.00    +0.000 OA
ATOM     28  O   UNL     1     110.442 125.541 134.661  0.00  0.00    +0.000 OA
ENDBRANCH  24  25
ENDBRANCH  11  24
TORSDOF 5
ENDMDL
MODEL 5
REMARK VINA RESULT:      -7.9     13.348     14.979
REMARK  Name = 13845909
REMARK  5 active torsions:
REMARK  status: ('A' for Active; 'I' for Inactive)
REMARK    1  A    between atoms: S_1  and  O_3
REMARK    2  A    between atoms: O_3  and  C_20
REMARK    3  A    between atoms: O_4  and  C_19
REMARK    4  A    between atoms: O_7  and  C_24
REMARK    5  A    between atoms: C_14  and  C_18
REMARK                            x       y       z     vdW  Elec       q    Type
REMARK                         _______ _______ _______ _____ _____    ______ ____
ROOT
ATOM      1  O   UNL     1     104.028 124.419 147.265  0.00  0.00    +0.000 OA
ATOM      2  O   UNL     1     102.673 122.960 145.163  0.00  0.00    +0.000 OA
ATOM      3  O   UNL     1     103.997 123.476 144.915  0.00  0.00    +0.000 OA
ATOM      4  C   UNL     1     103.339 123.680 146.203  0.00  0.00    +0.000 A 
ATOM      5  C   UNL     1     103.347 123.986 146.969  0.00  0.00    +0.000 A 
ATOM      6  C   UNL     1     104.710 124.534 146.756  0.00  0.00    +0.000 A 
ATOM      7  C   UNL     1     102.680 123.266 145.930  0.00  0.00    +0.000 A 
ATOM      8  C   UNL     1     104.013 123.786 145.680  0.00  0.00    +0.000 A 
ATOM      9  C   UNL     1     102.695 123.878 147.462  0.00  0.00    +0.000 A 
ATOM     10  C   UNL     1     102.027 123.158 146.424  0.00  0.00    +0.000 A 
ATOM     11  C   UNL     1     102.035 123.464 147.190  0.00  0.00    +0.000 A 
ATOM     12  C   UNL     1     104.703 124.216 145.958  0.00  0.00    +0.000 A 
ENDROOT
BRANCH   6  14
ATOM     13  O   UNL     1     107.343 126.190 147.858  0.00  0.00    +0.000 OA
ATOM     14  C   UNL     1     105.368 124.948 147.031  0.00  0.00    +0.000 A 
ATOM     15  C   UNL     1     105.905 124.580 147.538  0.00  0.00    +0.000 A 
ATOM     16  C   UNL     1     105.490 125.731 146.800  0.00  0.00    +0.000 A 
ATOM     17  C   UNL     1     106.563 124.994 147.813  0.00  0.00    +0.000 A 
ATOM     18  C   UNL     1     106.148 126.145 147.076  0.00  0.00    +0.000 A 
ATOM     19  C   UNL     1     106.685 125.776 147.583  0.00  0.00    +0.000 A 
BRANCH  17  20
ATOM     20  O   UNL     1     107.100 124.626 148.320  0.00  0.00    +0.000 OA
ATOM     21  C   UNL     1     106.836 124.278 149.021  0.00  0.00    +0.000 C 
ENDBRANCH  17  20
ENDBRANCH   6  14
BRANCH  10  22
ATOM     22  O   UNL     1     101.368 122.744 146.150  0.00  0.00    +0.000 OA
ATOM     23  C   UNL     1     100.929 123.041 145.517  0.00  0.00    +0.000 C 
ENDBRANCH  10  22
BRANCH  11  24
ATOM     24  O   UNL     1     101.383 123.356 147.682  0.00  0.00    +0.000 OA
BRANCH  24  25
ATOM     25  S   UNL     1     101.445 123.515 148.490  0.00  0.00    +0.000 S 
ATOM     26  O   UNL     1     101.507 123.674 149.297  0.00  0.00    +0.000 OA
ATOM     27  O   UNL     1     101.730 122.751 148.618  0.00  0.00    +0.000 OA
ATOM     28  O   UNL     1     101.161 124.279 148.361  0.00  0.00    +0.000 OA
ENDBRANCH  24  25
ENDBRANCH  11  24
TORSDOF 5
ENDMDL
MODEL 6
REMARK VINA RESULT:      -7.9     11.536     14.072
REMARK  Name = 13845909
REMARK  5 active torsions:
REMARK  status: ('A' for Active; 'I' for Inactive)
REMARK    1  A    between atoms: S_1  and  O_3
REMARK    2  A    between atoms: O_3  and  C_20
REMARK    3  A    between atoms: O_4  and  C_19
REMARK    4  A    between atoms: O_7  and  C_24
REMARK    5  A    between atoms: C_14  and  C_18
REMARK                            x       y       z     vdW  Elec       q    Type
REMARK                         _______ _______ _______ _____ _____    ______ ____
ROOT
ATOM      1  O   UNL     1     104.386 124.655 145.817  0.00  0.00    +0.000 OA
ATOM      2  O   UNL     1     106.768 125.121 147.394  0.00  0.00    +0.000 OA
ATOM      3  O   UNL     1     105.726 124.281 147.932  0.00  0.00    +0.000 OA
ATOM      4  C   UNL     1     105.593 124.893 146.613  0.00  0.00    +0.000 A 
ATOM      5  C   UNL     1     105.159 125.017 145.922  0.00  0.00    +0.000 A 
ATOM      6  C   UNL     1     104.062 124.159 146.438  0.00  0.00    +0.000 A 
ATOM      7  C   UNL     1     106.334 125.245 146.704  0.00  0.00    +0.000 A 
ATOM      8  C   UNL     1     105.285 124.399 147.245  0.00  0.00    +0.000 A 
ATOM      9  C   UNL     1     105.465 125.493 145.323  0.00  0.00    +0.000 A 
ATOM     10  C   UNL     1     106.640 125.721 146.103  0.00  0.00    +0.000 A 
ATOM     11  C   UNL     1     106.206 125.845 145.413  0.00  0.00    +0.000 A 
ATOM     12  C   UNL     1     104.514 124.030 147.157  0.00  0.00    +0.000 A 
ENDROOT
BRANCH   6  14
ATOM     13  O   UNL     1     101.098 122.756 146.066  0.00  0.00    +0.000 OA
ATOM     14  C   UNL     1     103.321 123.808 146.345  0.00  0.00    +0.000 A 
ATOM     15  C   UNL     1     102.649 124.176 146.652  0.00  0.00    +0.000 A 
ATOM     16  C   UNL     1     103.252 123.089 145.945  0.00  0.00    +0.000 A 
ATOM     17  C   UNL     1     101.908 123.825 146.559  0.00  0.00    +0.000 A 
ATOM     18  C   UNL     1     102.510 122.739 145.853  0.00  0.00    +0.000 A 
ATOM     19  C   UNL     1     101.839 123.107 146.159  0.00  0.00    +0.000 A 
BRANCH  17  20
ATOM     20  O   UNL     1     101.236 124.193 146.865  0.00  0.00    +0.000 OA
ATOM     21  C   UNL     1     101.263 124.546 147.611  0.00  0.00    +0.000 C 
ENDBRANCH  17  20
ENDBRANCH   6  14
BRANCH  10  22
ATOM     22  O   UNL     1     107.381 126.073 146.194  0.00  0.00    +0.000 OA
ATOM     23  C   UNL     1     107.506 126.619 146.800  0.00  0.00    +0.000 C 
ENDBRANCH  10  22
BRANCH  11  24
ATOM     24  O   UNL     1     106.512 126.321 144.813  0.00  0.00    +0.000 OA
BRANCH  24  25
ATOM     25  S   UNL     1     106.143 126.343 144.075  0.00  0.00    +0.000 S 
ATOM     26  O   UNL     1     105.775 126.366 143.338  0.00  0.00    +0.000 OA
ATOM     27  O   UNL     1     105.681 126.978 144.326  0.00  0.00    +0.000 OA
ATOM     28  O   UNL     1     106.606 125.708 143.825  0.00  0.00    +0.000 OA
ENDBRANCH  24  25
ENDBRANCH  11  24
TORSDOF 5
ENDMDL
MODEL 7
REMARK VINA RESULT:      -7.9     10.758     12.758
REMARK  Name = 13845909
REMARK  5 active torsions:
REMARK  status: ('A' for Active; 'I' for Inactive)
REMARK    1  A    between atoms: S_1  and  O_3
REMARK    2  A    between atoms: O_3  and  C_20
REMARK    3  A    between atoms: O_4  and  C_19
REMARK    4  A    between atoms: O_7  and  C_24
REMARK    5  A    between atoms: C_14  and  C_18
REMARK                            x       y       z     vdW  Elec       q    Type
REMARK                         _______ _______ _______ _____ _____    ______ ____
ROOT
ATOM      1  O   UNL     1     106.588 125.569 146.321  0.00  0.00    +0.000 OA
ATOM      2  O   UNL     1     106.272 128.209 145.176  0.00  0.00    +0.000 OA
ATOM      3  O   UNL     1     106.723 128.088 146.541  0.00  0.00    +0.000 OA
ATOM      4  C   UNL     1     106.427 126.904 145.739  0.00  0.00    +0.000 A 
ATOM      5  C   UNL     1     106.382 126.084 145.664  0.00  0.00    +0.000 A 
ATOM      6  C   UNL     1     106.844 125.913 147.065  0.00  0.00    +0.000 A 
ATOM      7  C   UNL     1     106.227 127.388 145.102  0.00  0.00    +0.000 A 
ATOM      8  C   UNL     1     106.681 127.266 146.476  0.00  0.00    +0.000 A 
ATOM      9  C   UNL     1     106.138 125.748 144.952  0.00  0.00    +0.000 A 
ATOM     10  C   UNL     1     105.982 127.051 144.389  0.00  0.00    +0.000 A 
ATOM     11  C   UNL     1     105.937 126.231 144.314  0.00  0.00    +0.000 A 
ATOM     12  C   UNL     1     106.891 126.768 147.143  0.00  0.00    +0.000 A 
ENDROOT
BRANCH   6  14
ATOM     13  O   UNL     1     107.642 123.968 149.609  0.00  0.00    +0.000 OA
ATOM     14  C   UNL     1     107.044 125.427 147.701  0.00  0.00    +0.000 A 
ATOM     15  C   UNL     1     106.456 125.153 148.211  0.00  0.00    +0.000 A 
ATOM     16  C   UNL     1     107.831 125.215 147.827  0.00  0.00    +0.000 A 
ATOM     17  C   UNL     1     106.655 124.667 148.847  0.00  0.00    +0.000 A 
ATOM     18  C   UNL     1     108.030 124.728 148.463  0.00  0.00    +0.000 A 
ATOM     19  C   UNL     1     107.442 124.454 148.973  0.00  0.00    +0.000 A 
BRANCH  17  20
ATOM     20  O   UNL     1     106.068 124.393 149.357  0.00  0.00    +0.000 OA
ATOM     21  C   UNL     1     105.334 124.770 149.382  0.00  0.00    +0.000 C 
ENDBRANCH  17  20
ENDBRANCH   6  14
BRANCH  10  22
ATOM     22  O   UNL     1     105.782 127.536 143.752  0.00  0.00    +0.000 OA
ATOM     23  C   UNL     1     105.139 128.050 143.811  0.00  0.00    +0.000 C 
ENDBRANCH  10  22
BRANCH  11  24
ATOM     24  O   UNL     1     105.692 125.895 143.602  0.00  0.00    +0.000 OA
BRANCH  24  25
ATOM     25  S   UNL     1     105.892 125.114 143.424  0.00  0.00    +0.000 S 
ATOM     26  O   UNL     1     106.091 124.334 143.247  0.00  0.00    +0.000 OA
ATOM     27  O   UNL     1     106.610 125.370 143.108  0.00  0.00    +0.000 OA
ATOM     28  O   UNL     1     105.174 124.859 143.741  0.00  0.00    +0.000 OA
ENDBRANCH  24  25
ENDBRANCH  11  24
TORSDOF 5
ENDMDL
MODEL 8
REMARK VINA RESULT:      -7.8     10.089     11.944
REMARK  Name = 13845909
REMARK  5 active torsions:
REMARK  status: ('A' for Active; 'I' for Inactive)
REMARK    1  A    between atoms: S_1  and  O_3
REMARK    2  A    between atoms: O_3  and  C_20
REMARK    3  A    between atoms: O_4  and  C_19
REMARK    4  A    between atoms: O_7  and  C_24
REMARK    5  A    between atoms: C_14  and  C_18
REMARK                            x       y       z     vdW  Elec       q    Type
REMARK                         _______ _______ _______ _____ _____    ______ ____
ROOT
ATOM      1  O   UNL     1     105.263 126.052 144.452  0.00  0.00    +0.000 OA
ATOM      2  O   UNL     1     106.950 125.635 146.767  0.00  0.00    +0.000 OA
ATOM      3  O   UNL     1     107.293 126.677 145.830  0.00  0.00    +0.000 OA
ATOM      4  C   UNL     1     106.115 125.839 145.625  0.00  0.00    +0.000 A 
ATOM      5  C   UNL     1     105.453 125.633 145.178  0.00  0.00    +0.000 A 
ATOM      6  C   UNL     1     105.769 126.694 144.188  0.00  0.00    +0.000 A 
ATOM      7  C   UNL     1     106.287 125.430 146.320  0.00  0.00    +0.000 A 
ATOM      8  C   UNL     1     106.633 126.478 145.376  0.00  0.00    +0.000 A 
ATOM      9  C   UNL     1     104.963 125.018 145.426  0.00  0.00    +0.000 A 
ATOM     10  C   UNL     1     105.797 124.814 146.568  0.00  0.00    +0.000 A 
ATOM     11  C   UNL     1     105.134 124.608 146.121  0.00  0.00    +0.000 A 
ATOM     12  C   UNL     1     106.459 126.908 144.653  0.00  0.00    +0.000 A 
ENDROOT
BRANCH   6  14
ATOM     13  O   UNL     1     105.072 128.325 141.405  0.00  0.00    +0.000 OA
ATOM     14  C   UNL     1     105.595 127.101 143.492  0.00  0.00    +0.000 A 
ATOM     15  C   UNL     1     105.755 126.756 142.761  0.00  0.00    +0.000 A 
ATOM     16  C   UNL     1     105.260 127.855 143.529  0.00  0.00    +0.000 A 
ATOM     17  C   UNL     1     105.581 127.164 142.065  0.00  0.00    +0.000 A 
ATOM     18  C   UNL     1     105.086 128.262 142.832  0.00  0.00    +0.000 A 
ATOM     19  C   UNL     1     105.246 127.917 142.100  0.00  0.00    +0.000 A 
BRANCH  17  20
ATOM     20  O   UNL     1     105.741 126.819 141.333  0.00  0.00    +0.000 OA
ATOM     21  C   UNL     1     105.730 125.997 141.252  0.00  0.00    +0.000 C 
ENDBRANCH  17  20
ENDBRANCH   6  14
BRANCH  10  22
ATOM     22  O   UNL     1     105.969 124.405 147.263  0.00  0.00    +0.000 OA
ATOM     23  C   UNL     1     105.949 124.798 147.989  0.00  0.00    +0.000 C 
ENDBRANCH  10  22
BRANCH  11  24
ATOM     24  O   UNL     1     104.645 123.993 146.370  0.00  0.00    +0.000 OA
BRANCH  24  25
ATOM     25  S   UNL     1     104.050 123.712 145.871  0.00  0.00    +0.000 S 
ATOM     26  O   UNL     1     103.456 123.432 145.373  0.00  0.00    +0.000 OA
ATOM     27  O   UNL     1     103.525 124.266 146.186  0.00  0.00    +0.000 OA
ATOM     28  O   UNL     1     104.575 123.159 145.557  0.00  0.00    +0.000 OA
ENDBRANCH  24  25
ENDBRANCH  11  24
TORSDOF 5
ENDMDL
MODEL 9
REMARK VINA RESULT:      -7.7      3.146      4.882
REMARK  Name = 13845909
REMARK  5 active torsions:
REMARK  status: ('A' for Active; 'I' for Inactive)
REMARK    1  A    between atoms: S_1  and  O_3
REMARK    2  A    between atoms: O_3  and  C_20
REMARK    3  A    between atoms: O_4  and  C_19
REMARK    4  A    between atoms: O_7  and  C_24
REMARK    5  A    between atoms: C_14  and  C_18
REMARK                            x       y       z     vdW  Elec       q    Type
REMARK                         _______ _______ _______ _____ _____    ______ ____
ROOT
ATOM      1  O   UNL     1     111.063 126.153 136.939  0.00  0.00    +0.000 OA
ATOM      2  O   UNL     1     108.858 126.985 135.259  0.00  0.00    +0.000 OA
ATOM      3  O   UNL     1     109.628 125.825 134.879  0.00  0.00    +0.000 OA
ATOM      4  C   UNL     1     109.946 126.577 136.091  0.00  0.00    +0.000 A 
ATOM      5  C   UNL     1     110.412 126.686 136.763  0.00  0.00    +0.000 A 
ATOM      6  C   UNL     1     111.230 125.498 136.409  0.00  0.00    +0.000 A 
ATOM      7  C   UNL     1     109.324 127.094 135.931  0.00  0.00    +0.000 A 
ATOM      8  C   UNL     1     110.099 125.927 135.549  0.00  0.00    +0.000 A 
ATOM      9  C   UNL     1     110.256 127.313 137.275  0.00  0.00    +0.000 A 
ATOM     10  C   UNL     1     109.168 127.722 136.444  0.00  0.00    +0.000 A 
ATOM     11  C   UNL     1     109.634 127.831 137.116  0.00  0.00    +0.000 A 
ATOM     12  C   UNL     1     110.745 125.384 135.710  0.00  0.00    +0.000 A 
ENDROOT
BRANCH   6  14
ATOM     13  O   UNL     1     113.722 123.432 137.056  0.00  0.00    +0.000 OA
ATOM     14  C   UNL     1     111.853 124.981 136.571  0.00  0.00    +0.000 A 
ATOM     15  C   UNL     1     112.629 125.204 136.399  0.00  0.00    +0.000 A 
ATOM     16  C   UNL     1     111.700 124.242 136.905  0.00  0.00    +0.000 A 
ATOM     17  C   UNL     1     113.251 124.687 136.561  0.00  0.00    +0.000 A 
ATOM     18  C   UNL     1     112.323 123.726 137.066  0.00  0.00    +0.000 A 
ATOM     19  C   UNL     1     113.099 123.949 136.894  0.00  0.00    +0.000 A 
BRANCH  17  20
ATOM     20  O   UNL     1     114.027 124.910 136.389  0.00  0.00    +0.000 OA
ATOM     21  C   UNL     1     114.283 125.677 136.553  0.00  0.00    +0.000 C 
ENDBRANCH  17  20
ENDBRANCH   6  14
BRANCH  10  22
ATOM     22  O   UNL     1     108.546 128.239 136.284  0.00  0.00    +0.000 OA
ATOM     23  C   UNL     1     108.613 128.787 135.670  0.00  0.00    +0.000 C 
ENDBRANCH  10  22
BRANCH  11  24
ATOM     24  O   UNL     1     109.478 128.458 137.628  0.00  0.00    +0.000 OA
BRANCH  24  25
ATOM     25  S   UNL     1     109.867 128.504 138.354  0.00  0.00    +0.000 S 
ATOM     26  O   UNL     1     110.256 128.549 139.080  0.00  0.00    +0.000 OA
ATOM     27  O   UNL     1     110.454 128.970 138.010  0.00  0.00    +0.000 OA
ATOM     28  O   UNL     1     109.280 128.037 138.698  0.00  0.00    +0.000 OA
ENDBRANCH  24  25
ENDBRANCH  11  24
TORSDOF 5
ENDMDL
MODEL 10
REMARK VINA RESULT:      -7.7      2.048      2.424
REMARK  Name = 13845909
REMARK  5 active torsions:
REMARK  status: ('A' for Active; 'I' for Inactive)
REMARK    1  A    between atoms: S_1  and  O_3
REMARK    2  A    between atoms: O_3  and  C_20
REMARK    3  A    between atoms: O_4  and  C_19
REMARK    4  A    between atoms: O_7  and  C_24
REMARK    5  A    between atoms: C_14  and  C_18
REMARK                            x       y       z     vdW  Elec       q    Type
REMARK                         _______ _______ _______ _____ _____    ______ ____
ROOT
ATOM      1  O   UNL     1     112.254 126.769 136.319  0.00  0.00    +0.000 OA
ATOM      2  O   UNL     1     111.272 124.071 135.953  0.00  0.00    +0.000 OA
ATOM      3  O   UNL     1     110.485 125.174 135.459  0.00  0.00    +0.000 OA
ATOM      4  C   UNL     1     111.760 125.402 136.135  0.00  0.00    +0.000 A 
ATOM      5  C   UNL     1     112.338 125.919 136.416  0.00  0.00    +0.000 A 
ATOM      6  C   UNL     1     111.560 127.084 135.923  0.00  0.00    +0.000 A 
ATOM      7  C   UNL     1     111.850 124.588 136.234  0.00  0.00    +0.000 A 
ATOM      8  C   UNL     1     111.058 125.699 135.737  0.00  0.00    +0.000 A 
ATOM      9  C   UNL     1     113.006 125.622 136.797  0.00  0.00    +0.000 A 
ATOM     10  C   UNL     1     112.520 124.291 136.615  0.00  0.00    +0.000 A 
ATOM     11  C   UNL     1     113.098 124.808 136.896  0.00  0.00    +0.000 A 
ATOM     12  C   UNL     1     110.958 126.545 135.631  0.00  0.00    +0.000 A 
ENDROOT
BRANCH   6  14
ATOM     13  O   UNL     1     111.205 130.342 135.532  0.00  0.00    +0.000 OA
ATOM     14  C   UNL     1     111.471 127.898 135.826  0.00  0.00    +0.000 A 
ATOM     15  C   UNL     1     111.132 128.351 136.426  0.00  0.00    +0.000 A 
ATOM     16  C   UNL     1     111.722 128.259 135.127  0.00  0.00    +0.000 A 
ATOM     17  C   UNL     1     111.044 129.166 136.328  0.00  0.00    +0.000 A 
ATOM     18  C   UNL     1     111.633 129.074 135.030  0.00  0.00    +0.000 A 
ATOM     19  C   UNL     1     111.294 129.527 135.630  0.00  0.00    +0.000 A 
BRANCH  17  20
ATOM     20  O   UNL     1     110.704 129.619 136.928  0.00  0.00    +0.000 OA
ATOM     21  C   UNL     1     110.864 129.443 137.719  0.00  0.00    +0.000 C 
ENDBRANCH  17  20
ENDBRANCH   6  14
BRANCH  10  22
ATOM     22  O   UNL     1     112.610 123.477 136.714  0.00  0.00    +0.000 OA
ATOM     23  C   UNL     1     112.087 123.060 137.197  0.00  0.00    +0.000 C 
ENDBRANCH  10  22
BRANCH  11  24
ATOM     24  O   UNL     1     113.766 124.511 137.276  0.00  0.00    +0.000 OA
BRANCH  24  25
ATOM     25  S   UNL     1     114.425 124.994 137.389  0.00  0.00    +0.000 S 
ATOM     26  O   UNL     1     115.084 125.478 137.502  0.00  0.00    +0.000 OA
ATOM     27  O   UNL     1     114.134 125.220 138.127  0.00  0.00    +0.000 OA
ATOM     28  O   UNL     1     114.717 124.769 136.651  0.00  0.00    +0.000 OA
ENDBRANCH  24  25
ENDBRANCH  11  24
TORSDOF 5
ENDMDL
