MODEL 1
REMARK VINA RESULT:     -10.3      0.000      0.000
REMARK  Name = 42607856
REMARK  3 active torsions:
REMARK  status: ('A' for Active; 'I' for Inactive)
REMARK    1  A    between atoms: O_2  and  C_13
REMARK    2  A    between atoms: O_2  and  C_15
REMARK    3  A    between atoms: C_16  and  C_24
REMARK                            x       y       z     vdW  Elec       q    Type
REMARK                         _______ _______ _______ _____ _____    ______ ____
ROOT
ATOM      1  O   UNL     1     103.320 124.180 147.424  0.00  0.00    +0.000 OA
ATOM      2  O   UNL     1     104.786 123.805 144.963  0.00  0.00    +0.000 OA
ATOM      3  O   UNL     1     103.531 123.131 145.193  0.00  0.00    +0.000 OA
ATOM      4  C   UNL     1     105.264 125.059 146.757  0.00  0.00    +0.000 A 
ATOM      5  C   UNL     1     102.735 123.665 147.153  0.00  0.00    +0.000 C 
ATOM      6  C   UNL     1     102.806 123.316 146.409  0.00  0.00    +0.000 C 
ATOM      7  C   UNL     1     103.976 124.345 146.952  0.00  0.00    +0.000 A 
ATOM      8  C   UNL     1     104.046 123.996 146.208  0.00  0.00    +0.000 A 
ATOM      9  C   UNL     1     104.578 124.883 147.245  0.00  0.00    +0.000 A 
ATOM     10  C   UNL     1     103.461 123.481 145.937  0.00  0.00    +0.000 C 
ATOM     11  C   UNL     1     105.337 124.694 145.982  0.00  0.00    +0.000 A 
ATOM     12  C   UNL     1     104.725 124.159 145.705  0.00  0.00    +0.000 A 
ENDROOT
BRANCH   5  13
ATOM     13  C   UNL     1     102.079 123.500 147.626  0.00  0.00    +0.000 A 
ATOM     14  C   UNL     1     101.381 123.930 147.529  0.00  0.00    +0.000 A 
ATOM     15  C   UNL     1     102.121 122.905 148.196  0.00  0.00    +0.000 A 
ATOM     16  C   UNL     1     100.726 123.764 148.001  0.00  0.00    +0.000 A 
ATOM     17  C   UNL     1     101.466 122.740 148.669  0.00  0.00    +0.000 A 
ATOM     18  C   UNL     1     100.768 123.170 148.572  0.00  0.00    +0.000 A 
ENDBRANCH   5  13
BRANCH   4  19
ATOM     19  O   UNL     1     105.847 125.574 147.031  0.00  0.00    +0.000 OA
BRANCH  19  28
ATOM     20  O   UNL     1     106.268 124.911 148.225  0.00  0.00    +0.000 OA
ATOM     21  O   UNL     1     108.632 125.205 147.556  0.00  0.00    +0.000 OA
ATOM     22  O   UNL     1     108.265 124.444 148.973  0.00  0.00    +0.000 OA
ATOM     23  O   UNL     1     107.424 125.769 146.585  0.00  0.00    +0.000 OA
ATOM     24  C   UNL     1     107.844 125.107 147.779  0.00  0.00    +0.000 C 
ATOM     25  C   UNL     1     107.660 124.727 148.487  0.00  0.00    +0.000 C 
ATOM     26  C   UNL     1     107.239 125.389 147.294  0.00  0.00    +0.000 C 
ATOM     27  C   UNL     1     106.872 124.629 148.711  0.00  0.00    +0.000 C 
ATOM     28  C   UNL     1     106.451 125.291 147.517  0.00  0.00    +0.000 C 
ATOM     29  C   UNL     1     106.688 124.248 149.420  0.00  0.00    +0.000 C 
ENDBRANCH  19  28
ENDBRANCH   4  19
TORSDOF 3
ENDMDL
MODEL 2
REMARK VINA RESULT:     -10.3     12.203     13.852
REMARK  Name = 42607856
REMARK  3 active torsions:
REMARK  status: ('A' for Active; 'I' for Inactive)
REMARK    1  A    between atoms: O_2  and  C_13
REMARK    2  A    between atoms: O_2  and  C_15
REMARK    3  A    between atoms: C_16  and  C_24
REMARK                            x       y       z     vdW  Elec       q    Type
REMARK                         _______ _______ _______ _____ _____    ______ ____
ROOT
ATOM      1  O   UNL     1     112.431 126.415 136.297  0.00  0.00    +0.000 OA
ATOM      2  O   UNL     1     109.911 125.527 135.200  0.00  0.00    +0.000 OA
ATOM      3  O   UNL     1     110.865 124.585 135.731  0.00  0.00    +0.000 OA
ATOM      4  C   UNL     1     110.754 127.593 135.408  0.00  0.00    +0.000 A 
ATOM      5  C   UNL     1     112.635 125.633 136.463  0.00  0.00    +0.000 C 
ATOM      6  C   UNL     1     112.113 125.023 136.274  0.00  0.00    +0.000 C 
ATOM      7  C   UNL     1     111.707 126.588 135.943  0.00  0.00    +0.000 A 
ATOM      8  C   UNL     1     111.185 125.978 135.754  0.00  0.00    +0.000 A 
ATOM      9  C   UNL     1     111.507 127.406 135.776  0.00  0.00    +0.000 A 
ATOM     10  C   UNL     1     111.388 125.196 135.920  0.00  0.00    +0.000 C 
ATOM     11  C   UNL     1     110.209 126.957 135.211  0.00  0.00    +0.000 A 
ATOM     12  C   UNL     1     110.426 126.144 135.385  0.00  0.00    +0.000 A 
ENDROOT
BRANCH   5  13
ATOM     13  C   UNL     1     113.360 125.460 136.817  0.00  0.00    +0.000 A 
ATOM     14  C   UNL     1     113.987 125.183 136.358  0.00  0.00    +0.000 A 
ATOM     15  C   UNL     1     113.457 125.566 137.630  0.00  0.00    +0.000 A 
ATOM     16  C   UNL     1     114.712 125.011 136.713  0.00  0.00    +0.000 A 
ATOM     17  C   UNL     1     114.182 125.393 137.984  0.00  0.00    +0.000 A 
ATOM     18  C   UNL     1     114.809 125.116 137.525  0.00  0.00    +0.000 A 
ENDBRANCH   5  13
BRANCH   4  19
ATOM     19  O   UNL     1     110.553 128.376 135.244  0.00  0.00    +0.000 OA
BRANCH  19  28
ATOM     20  O   UNL     1     110.152 128.754 136.562  0.00  0.00    +0.000 OA
ATOM     21  O   UNL     1     108.282 130.071 135.615  0.00  0.00    +0.000 OA
ATOM     22  O   UNL     1     108.504 130.009 137.249  0.00  0.00    +0.000 OA
ATOM     23  O   UNL     1     109.307 129.254 134.612  0.00  0.00    +0.000 OA
ATOM     24  C   UNL     1     108.905 129.632 135.931  0.00  0.00    +0.000 C 
ATOM     25  C   UNL     1     109.017 129.601 136.747  0.00  0.00    +0.000 C 
ATOM     26  C   UNL     1     109.418 129.223 135.430  0.00  0.00    +0.000 C 
ATOM     27  C   UNL     1     109.640 129.162 137.063  0.00  0.00    +0.000 C 
ATOM     28  C   UNL     1     110.041 128.784 135.746  0.00  0.00    +0.000 C 
ATOM     29  C   UNL     1     109.750 129.131 137.880  0.00  0.00    +0.000 C 
ENDBRANCH  19  28
ENDBRANCH   4  19
TORSDOF 3
ENDMDL
MODEL 3
REMARK VINA RESULT:     -10.0     11.018     13.179
REMARK  Name = 42607856
REMARK  3 active torsions:
REMARK  status: ('A' for Active; 'I' for Inactive)
REMARK    1  A    between atoms: O_2  and  C_13
REMARK    2  A    between atoms: O_2  and  C_15
REMARK    3  A    between atoms: C_16  and  C_24
REMARK                            x       y       z     vdW  Elec       q    Type
REMARK                         _______ _______ _______ _____ _____    ______ ____
ROOT
ATOM      1  O   UNL     1     111.837 125.923 136.943  0.00  0.00    +0.000 OA
ATOM      2  O   UNL     1     109.469 126.098 138.589  0.00  0.00    +0.000 OA
ATOM      3  O   UNL     1     110.650 125.412 139.054  0.00  0.00    +0.000 OA
ATOM      4  C   UNL     1     109.867 126.896 136.533  0.00  0.00    +0.000 A 
ATOM      5  C   UNL     1     112.218 125.495 137.537  0.00  0.00    +0.000 C 
ATOM      6  C   UNL     1     111.822 125.325 138.240  0.00  0.00    +0.000 C 
ATOM      7  C   UNL     1     111.061 126.180 137.052  0.00  0.00    +0.000 A 
ATOM      8  C   UNL     1     110.665 126.010 137.755  0.00  0.00    +0.000 A 
ATOM      9  C   UNL     1     110.675 126.625 136.426  0.00  0.00    +0.000 A 
ATOM     10  C   UNL     1     111.045 125.583 138.349  0.00  0.00    +0.000 C 
ATOM     11  C   UNL     1     109.455 126.719 137.267  0.00  0.00    +0.000 A 
ATOM     12  C   UNL     1     109.856 126.273 137.882  0.00  0.00    +0.000 A 
ENDROOT
BRANCH   5  13
ATOM     13  C   UNL     1     112.994 125.237 137.428  0.00  0.00    +0.000 A 
ATOM     14  C   UNL     1     113.619 125.658 137.764  0.00  0.00    +0.000 A 
ATOM     15  C   UNL     1     113.144 124.559 136.982  0.00  0.00    +0.000 A 
ATOM     16  C   UNL     1     114.395 125.399 137.654  0.00  0.00    +0.000 A 
ATOM     17  C   UNL     1     113.920 124.301 136.873  0.00  0.00    +0.000 A 
ATOM     18  C   UNL     1     114.545 124.722 137.209  0.00  0.00    +0.000 A 
ENDBRANCH   5  13
BRANCH   4  19
ATOM     19  O   UNL     1     109.489 127.323 135.937  0.00  0.00    +0.000 OA
BRANCH  19  28
ATOM     20  O   UNL     1     110.135 128.582 136.145  0.00  0.00    +0.000 OA
ATOM     21  O   UNL     1     107.982 129.746 135.778  0.00  0.00    +0.000 OA
ATOM     22  O   UNL     1     109.344 130.616 136.108  0.00  0.00    +0.000 OA
ATOM     23  O   UNL     1     108.054 128.100 135.693  0.00  0.00    +0.000 OA
ATOM     24  C   UNL     1     108.699 129.358 135.900  0.00  0.00    +0.000 C 
ATOM     25  C   UNL     1     109.381 129.792 136.065  0.00  0.00    +0.000 C 
ATOM     26  C   UNL     1     108.736 128.535 135.858  0.00  0.00    +0.000 C 
ATOM     27  C   UNL     1     110.099 129.404 136.187  0.00  0.00    +0.000 C 
ATOM     28  C   UNL     1     109.454 128.147 135.980  0.00  0.00    +0.000 C 
ATOM     29  C   UNL     1     110.780 129.840 136.352  0.00  0.00    +0.000 C 
ENDBRANCH  19  28
ENDBRANCH   4  19
TORSDOF 3
ENDMDL
MODEL 4
REMARK VINA RESULT:      -9.7     12.764     14.064
REMARK  Name = 42607856
REMARK  3 active torsions:
REMARK  status: ('A' for Active; 'I' for Inactive)
REMARK    1  A    between atoms: O_2  and  C_13
REMARK    2  A    between atoms: O_2  and  C_15
REMARK    3  A    between atoms: C_16  and  C_24
REMARK                            x       y       z     vdW  Elec       q    Type
REMARK                         _______ _______ _______ _____ _____    ______ ____
ROOT
ATOM      1  O   UNL     1     112.738 126.979 137.087  0.00  0.00    +0.000 OA
ATOM      2  O   UNL     1     113.108 129.546 135.814  0.00  0.00    +0.000 OA
ATOM      3  O   UNL     1     114.060 128.478 135.629  0.00  0.00    +0.000 OA
ATOM      4  C   UNL     1     111.472 128.819 137.163  0.00  0.00    +0.000 A 
ATOM      5  C   UNL     1     113.438 126.708 136.745  0.00  0.00    +0.000 C 
ATOM      6  C   UNL     1     113.878 127.208 136.258  0.00  0.00    +0.000 C 
ATOM      7  C   UNL     1     112.478 127.748 136.945  0.00  0.00    +0.000 A 
ATOM      8  C   UNL     1     112.919 128.248 136.459  0.00  0.00    +0.000 A 
ATOM      9  C   UNL     1     111.748 128.019 137.308  0.00  0.00    +0.000 A 
ATOM     10  C   UNL     1     113.619 127.978 136.116  0.00  0.00    +0.000 C 
ATOM     11  C   UNL     1     111.932 129.340 136.656  0.00  0.00    +0.000 A 
ATOM     12  C   UNL     1     112.660 129.053 136.302  0.00  0.00    +0.000 A 
ENDROOT
BRANCH   5  13
ATOM     13  C   UNL     1     113.697 125.938 136.887  0.00  0.00    +0.000 A 
ATOM     14  C   UNL     1     114.283 125.798 137.451  0.00  0.00    +0.000 A 
ATOM     15  C   UNL     1     113.370 125.308 136.466  0.00  0.00    +0.000 A 
ATOM     16  C   UNL     1     114.542 125.028 137.593  0.00  0.00    +0.000 A 
ATOM     17  C   UNL     1     113.629 124.538 136.609  0.00  0.00    +0.000 A 
ATOM     18  C   UNL     1     114.215 124.398 137.172  0.00  0.00    +0.000 A 
ENDBRANCH   5  13
BRANCH   4  19
ATOM     19  O   UNL     1     110.772 129.087 137.508  0.00  0.00    +0.000 OA
BRANCH  19  28
ATOM     20  O   UNL     1     109.870 128.457 136.596  0.00  0.00    +0.000 OA
ATOM     21  O   UNL     1     108.396 130.443 136.683  0.00  0.00    +0.000 OA
ATOM     22  O   UNL     1     107.985 129.152 135.742  0.00  0.00    +0.000 OA
ATOM     23  O   UNL     1     109.790 130.411 137.566  0.00  0.00    +0.000 OA
ATOM     24  C   UNL     1     108.887 129.781 136.654  0.00  0.00    +0.000 C 
ATOM     25  C   UNL     1     108.682 129.135 136.184  0.00  0.00    +0.000 C 
ATOM     26  C   UNL     1     109.584 129.764 137.095  0.00  0.00    +0.000 C 
ATOM     27  C   UNL     1     109.174 128.473 136.155  0.00  0.00    +0.000 C 
ATOM     28  C   UNL     1     110.075 129.102 137.066  0.00  0.00    +0.000 C 
ATOM     29  C   UNL     1     108.968 127.828 135.684  0.00  0.00    +0.000 C 
ENDBRANCH  19  28
ENDBRANCH   4  19
TORSDOF 3
ENDMDL
MODEL 5
REMARK VINA RESULT:      -9.5      6.638      7.702
REMARK  Name = 42607856
REMARK  3 active torsions:
REMARK  status: ('A' for Active; 'I' for Inactive)
REMARK    1  A    between atoms: O_2  and  C_13
REMARK    2  A    between atoms: O_2  and  C_15
REMARK    3  A    between atoms: C_16  and  C_24
REMARK                            x       y       z     vdW  Elec       q    Type
REMARK                         _______ _______ _______ _____ _____    ______ ____
ROOT
ATOM      1  O   UNL     1     103.129 130.249 142.147  0.00  0.00    +0.000 OA
ATOM      2  O   UNL     1     103.888 128.058 140.424  0.00  0.00    +0.000 OA
ATOM      3  O   UNL     1     103.032 129.118 139.949  0.00  0.00    +0.000 OA
ATOM      4  C   UNL     1     104.421 128.473 142.561  0.00  0.00    +0.000 A 
ATOM      5  C   UNL     1     102.688 130.579 141.533  0.00  0.00    +0.000 C 
ATOM      6  C   UNL     1     102.656 130.202 140.800  0.00  0.00    +0.000 C 
ATOM      7  C   UNL     1     103.537 129.543 142.030  0.00  0.00    +0.000 A 
ATOM      8  C   UNL     1     103.505 129.165 141.297  0.00  0.00    +0.000 A 
ATOM      9  C   UNL     1     103.993 129.209 142.677  0.00  0.00    +0.000 A 
ATOM     10  C   UNL     1     103.064 129.495 140.682  0.00  0.00    +0.000 C 
ATOM     11  C   UNL     1     104.387 128.080 141.797  0.00  0.00    +0.000 A 
ATOM     12  C   UNL     1     103.926 128.428 141.161  0.00  0.00    +0.000 A 
ENDROOT
BRANCH   5  13
ATOM     13  C   UNL     1     102.279 131.286 141.651  0.00  0.00    +0.000 A 
ATOM     14  C   UNL     1     102.653 132.008 141.509  0.00  0.00    +0.000 A 
ATOM     15  C   UNL     1     101.496 131.271 141.912  0.00  0.00    +0.000 A 
ATOM     16  C   UNL     1     102.244 132.714 141.627  0.00  0.00    +0.000 A 
ATOM     17  C   UNL     1     101.088 131.978 142.030  0.00  0.00    +0.000 A 
ATOM     18  C   UNL     1     101.462 132.699 141.888  0.00  0.00    +0.000 A 
ENDBRANCH   5  13
BRANCH   4  19
ATOM     19  O   UNL     1     104.861 128.146 143.177  0.00  0.00    +0.000 OA
BRANCH  19  28
ATOM     20  O   UNL     1     106.116 128.737 142.835  0.00  0.00    +0.000 OA
ATOM     21  O   UNL     1     107.276 126.651 143.489  0.00  0.00    +0.000 OA
ATOM     22  O   UNL     1     108.145 127.937 142.929  0.00  0.00    +0.000 OA
ATOM     23  O   UNL     1     105.634 126.756 143.614  0.00  0.00    +0.000 OA
ATOM     24  C   UNL     1     106.890 127.346 143.271  0.00  0.00    +0.000 C 
ATOM     25  C   UNL     1     107.323 127.989 142.991  0.00  0.00    +0.000 C 
ATOM     26  C   UNL     1     106.069 127.399 143.333  0.00  0.00    +0.000 C 
ATOM     27  C   UNL     1     106.937 128.685 142.773  0.00  0.00    +0.000 C 
ATOM     28  C   UNL     1     105.682 128.095 143.115  0.00  0.00    +0.000 C 
ATOM     29  C   UNL     1     107.372 129.328 142.492  0.00  0.00    +0.000 C 
ENDBRANCH  19  28
ENDBRANCH   4  19
TORSDOF 3
ENDMDL
MODEL 6
REMARK VINA RESULT:      -9.5      1.153      1.754
REMARK  Name = 42607856
REMARK  3 active torsions:
REMARK  status: ('A' for Active; 'I' for Inactive)
REMARK    1  A    between atoms: O_2  and  C_13
REMARK    2  A    between atoms: O_2  and  C_15
REMARK    3  A    between atoms: C_16  and  C_24
REMARK                            x       y       z     vdW  Elec       q    Type
REMARK                         _______ _______ _______ _____ _____    ______ ____
ROOT
ATOM      1  O   UNL     1     103.220 124.055 147.873  0.00  0.00    +0.000 OA
ATOM      2  O   UNL     1     104.120 124.006 145.128  0.00  0.00    +0.000 OA
ATOM      3  O   UNL     1     102.790 123.573 145.484  0.00  0.00    +0.000 OA
ATOM      4  C   UNL     1     105.186 124.646 146.992  0.00  0.00    +0.000 A 
ATOM      5  C   UNL     1     102.487 123.758 147.638  0.00  0.00    +0.000 C 
ATOM      6  C   UNL     1     102.344 123.597 146.842  0.00  0.00    +0.000 C 
ATOM      7  C   UNL     1     103.809 124.192 147.313  0.00  0.00    +0.000 A 
ATOM      8  C   UNL     1     103.666 124.031 146.517  0.00  0.00    +0.000 A 
ATOM      9  C   UNL     1     104.568 124.502 147.570  0.00  0.00    +0.000 A 
ATOM     10  C   UNL     1     102.934 123.734 146.281  0.00  0.00    +0.000 C 
ATOM     11  C   UNL     1     105.037 124.479 146.161  0.00  0.00    +0.000 A 
ATOM     12  C   UNL     1     104.272 124.169 145.923  0.00  0.00    +0.000 A 
ENDROOT
BRANCH   5  13
ATOM     13  C   UNL     1     101.898 123.621 148.199  0.00  0.00    +0.000 A 
ATOM     14  C   UNL     1     101.826 122.877 148.550  0.00  0.00    +0.000 A 
ATOM     15  C   UNL     1     101.380 124.229 148.409  0.00  0.00    +0.000 A 
ATOM     16  C   UNL     1     101.237 122.742 149.110  0.00  0.00    +0.000 A 
ATOM     17  C   UNL     1     100.790 124.092 148.970  0.00  0.00    +0.000 A 
ATOM     18  C   UNL     1     100.719 123.348 149.320  0.00  0.00    +0.000 A 
ENDBRANCH   5  13
BRANCH   4  19
ATOM     19  O   UNL     1     105.918 124.944 147.230  0.00  0.00    +0.000 OA
BRANCH  19  28
ATOM     20  O   UNL     1     105.513 126.310 147.342  0.00  0.00    +0.000 OA
ATOM     21  O   UNL     1     107.724 127.035 146.498  0.00  0.00    +0.000 OA
ATOM     22  O   UNL     1     106.581 128.159 146.891  0.00  0.00    +0.000 OA
ATOM     23  O   UNL     1     107.392 125.427 146.667  0.00  0.00    +0.000 OA
ATOM     24  C   UNL     1     106.987 126.793 146.779  0.00  0.00    +0.000 C 
ATOM     25  C   UNL     1     106.415 127.354 146.976  0.00  0.00    +0.000 C 
ATOM     26  C   UNL     1     106.820 125.990 146.864  0.00  0.00    +0.000 C 
ATOM     27  C   UNL     1     105.678 127.113 147.257  0.00  0.00    +0.000 C 
ATOM     28  C   UNL     1     106.083 125.748 147.146  0.00  0.00    +0.000 C 
ATOM     29  C   UNL     1     105.108 127.675 147.454  0.00  0.00    +0.000 C 
ENDBRANCH  19  28
ENDBRANCH   4  19
TORSDOF 3
ENDMDL
MODEL 7
REMARK VINA RESULT:      -9.5     12.752     14.957
REMARK  Name = 42607856
REMARK  3 active torsions:
REMARK  status: ('A' for Active; 'I' for Inactive)
REMARK    1  A    between atoms: O_2  and  C_13
REMARK    2  A    between atoms: O_2  and  C_15
REMARK    3  A    between atoms: C_16  and  C_24
REMARK                            x       y       z     vdW  Elec       q    Type
REMARK                         _______ _______ _______ _____ _____    ______ ____
ROOT
ATOM      1  O   UNL     1     113.696 128.777 136.064  0.00  0.00    +0.000 OA
ATOM      2  O   UNL     1     111.001 128.025 135.343  0.00  0.00    +0.000 OA
ATOM      3  O   UNL     1     111.701 129.064 134.627  0.00  0.00    +0.000 OA
ATOM      4  C   UNL     1     112.345 127.234 136.951  0.00  0.00    +0.000 A 
ATOM      5  C   UNL     1     113.699 129.341 135.462  0.00  0.00    +0.000 C 
ATOM      6  C   UNL     1     113.034 129.437 134.983  0.00  0.00    +0.000 C 
ATOM      7  C   UNL     1     113.029 128.309 136.187  0.00  0.00    +0.000 A 
ATOM      8  C   UNL     1     112.364 128.404 135.709  0.00  0.00    +0.000 A 
ATOM      9  C   UNL     1     113.037 127.725 136.817  0.00  0.00    +0.000 A 
ATOM     10  C   UNL     1     112.366 128.968 135.107  0.00  0.00    +0.000 C 
ATOM     11  C   UNL     1     111.652 127.333 136.452  0.00  0.00    +0.000 A 
ATOM     12  C   UNL     1     111.661 127.922 135.827  0.00  0.00    +0.000 A 
ENDROOT
BRANCH   5  13
ATOM     13  C   UNL     1     114.367 129.810 135.338  0.00  0.00    +0.000 A 
ATOM     14  C   UNL     1     114.898 129.621 134.735  0.00  0.00    +0.000 A 
ATOM     15  C   UNL     1     114.503 130.468 135.818  0.00  0.00    +0.000 A 
ATOM     16  C   UNL     1     115.565 130.090 134.613  0.00  0.00    +0.000 A 
ATOM     17  C   UNL     1     115.171 130.937 135.694  0.00  0.00    +0.000 A 
ATOM     18  C   UNL     1     115.702 130.748 135.092  0.00  0.00    +0.000 A 
ENDBRANCH   5  13
BRANCH   4  19
ATOM     19  O   UNL     1     112.346 126.670 137.554  0.00  0.00    +0.000 OA
BRANCH  19  28
ATOM     20  O   UNL     1     113.158 125.669 136.939  0.00  0.00    +0.000 OA
ATOM     21  O   UNL     1     111.597 123.918 137.727  0.00  0.00    +0.000 OA
ATOM     22  O   UNL     1     112.930 123.500 136.849  0.00  0.00    +0.000 OA
ATOM     23  O   UNL     1     111.305 125.503 138.080  0.00  0.00    +0.000 OA
ATOM     24  C   UNL     1     112.118 124.501 137.464  0.00  0.00    +0.000 C 
ATOM     25  C   UNL     1     112.784 124.293 137.025  0.00  0.00    +0.000 C 
ATOM     26  C   UNL     1     111.972 125.294 137.640  0.00  0.00    +0.000 C 
ATOM     27  C   UNL     1     113.305 124.877 136.762  0.00  0.00    +0.000 C 
ATOM     28  C   UNL     1     112.493 125.878 137.377  0.00  0.00    +0.000 C 
ATOM     29  C   UNL     1     113.971 124.668 136.323  0.00  0.00    +0.000 C 
ENDBRANCH  19  28
ENDBRANCH   4  19
TORSDOF 3
ENDMDL
MODEL 8
REMARK VINA RESULT:      -9.5     11.936     12.991
REMARK  Name = 42607856
REMARK  3 active torsions:
REMARK  status: ('A' for Active; 'I' for Inactive)
REMARK    1  A    between atoms: O_2  and  C_13
REMARK    2  A    between atoms: O_2  and  C_15
REMARK    3  A    between atoms: C_16  and  C_24
REMARK                            x       y       z     vdW  Elec       q    Type
REMARK                         _______ _______ _______ _____ _____    ______ ____
ROOT
ATOM      1  O   UNL     1     113.379 126.839 138.587  0.00  0.00    +0.000 OA
ATOM      2  O   UNL     1     112.026 129.292 137.881  0.00  0.00    +0.000 OA
ATOM      3  O   UNL     1     112.276 128.268 136.895  0.00  0.00    +0.000 OA
ATOM      4  C   UNL     1     112.842 128.602 139.850  0.00  0.00    +0.000 A 
ATOM      5  C   UNL     1     113.313 126.578 137.807  0.00  0.00    +0.000 C 
ATOM      6  C   UNL     1     112.945 127.055 137.243  0.00  0.00    +0.000 C 
ATOM      7  C   UNL     1     113.079 127.575 138.804  0.00  0.00    +0.000 A 
ATOM      8  C   UNL     1     112.711 128.052 138.240  0.00  0.00    +0.000 A 
ATOM      9  C   UNL     1     113.153 127.836 139.619  0.00  0.00    +0.000 A 
ATOM     10  C   UNL     1     112.644 127.792 137.460  0.00  0.00    +0.000 C 
ATOM     11  C   UNL     1     112.459 129.099 139.262  0.00  0.00    +0.000 A 
ATOM     12  C   UNL     1     112.393 128.822 138.452  0.00  0.00    +0.000 A 
ENDROOT
BRANCH   5  13
ATOM     13  C   UNL     1     113.614 125.841 137.591  0.00  0.00    +0.000 A 
ATOM     14  C   UNL     1     113.102 125.209 137.457  0.00  0.00    +0.000 A 
ATOM     15  C   UNL     1     114.429 125.737 137.509  0.00  0.00    +0.000 A 
ATOM     16  C   UNL     1     113.403 124.473 137.241  0.00  0.00    +0.000 A 
ATOM     17  C   UNL     1     114.730 125.000 137.293  0.00  0.00    +0.000 A 
ATOM     18  C   UNL     1     114.218 124.368 137.159  0.00  0.00    +0.000 A 
ENDBRANCH   5  13
BRANCH   4  19
ATOM     19  O   UNL     1     112.910 128.860 140.631  0.00  0.00    +0.000 OA
BRANCH  19  28
ATOM     20  O   UNL     1     114.145 129.563 140.482  0.00  0.00    +0.000 OA
ATOM     21  O   UNL     1     113.325 131.327 142.013  0.00  0.00    +0.000 OA
ATOM     22  O   UNL     1     114.834 131.442 141.354  0.00  0.00    +0.000 OA
ATOM     23  O   UNL     1     112.363 130.036 141.652  0.00  0.00    +0.000 OA
ATOM     24  C   UNL     1     113.599 130.739 141.503  0.00  0.00    +0.000 C 
ATOM     25  C   UNL     1     114.352 130.796 141.173  0.00  0.00    +0.000 C 
ATOM     26  C   UNL     1     113.118 130.093 141.322  0.00  0.00    +0.000 C 
ATOM     27  C   UNL     1     114.626 130.208 140.663  0.00  0.00    +0.000 C 
ATOM     28  C   UNL     1     113.391 129.505 140.812  0.00  0.00    +0.000 C 
ATOM     29  C   UNL     1     115.380 130.266 140.334  0.00  0.00    +0.000 C 
ENDBRANCH  19  28
ENDBRANCH   4  19
TORSDOF 3
ENDMDL
MODEL 9
REMARK VINA RESULT:      -9.5     10.365     12.278
REMARK  Name = 42607856
REMARK  3 active torsions:
REMARK  status: ('A' for Active; 'I' for Inactive)
REMARK    1  A    between atoms: O_2  and  C_13
REMARK    2  A    between atoms: O_2  and  C_15
REMARK    3  A    between atoms: C_16  and  C_24
REMARK                            x       y       z     vdW  Elec       q    Type
REMARK                         _______ _______ _______ _____ _____    ______ ____
ROOT
ATOM      1  O   UNL     1     113.523 126.279 138.798  0.00  0.00    +0.000 OA
ATOM      2  O   UNL     1     110.788 126.419 139.718  0.00  0.00    +0.000 OA
ATOM      3  O   UNL     1     111.122 125.784 138.466  0.00  0.00    +0.000 OA
ATOM      4  C   UNL     1     112.674 127.177 140.660  0.00  0.00    +0.000 A 
ATOM      5  C   UNL     1     113.275 125.880 138.121  0.00  0.00    +0.000 C 
ATOM      6  C   UNL     1     112.474 125.715 138.010  0.00  0.00    +0.000 C 
ATOM      7  C   UNL     1     112.973 126.514 139.365  0.00  0.00    +0.000 A 
ATOM      8  C   UNL     1     112.172 126.349 139.254  0.00  0.00    +0.000 A 
ATOM      9  C   UNL     1     113.243 126.930 140.066  0.00  0.00    +0.000 A 
ATOM     10  C   UNL     1     111.923 125.949 138.577  0.00  0.00    +0.000 C 
ATOM     11  C   UNL     1     111.840 127.005 140.545  0.00  0.00    +0.000 A 
ATOM     12  C   UNL     1     111.587 126.588 139.837  0.00  0.00    +0.000 A 
ENDROOT
BRANCH   5  13
ATOM     13  C   UNL     1     113.827 125.645 137.554  0.00  0.00    +0.000 A 
ATOM     14  C   UNL     1     114.250 124.944 137.656  0.00  0.00    +0.000 A 
ATOM     15  C   UNL     1     113.954 126.112 136.885  0.00  0.00    +0.000 A 
ATOM     16  C   UNL     1     114.801 124.710 137.088  0.00  0.00    +0.000 A 
ATOM     17  C   UNL     1     114.506 125.877 136.318  0.00  0.00    +0.000 A 
ATOM     18  C   UNL     1     114.929 125.176 136.420  0.00  0.00    +0.000 A 
ENDBRANCH   5  13
BRANCH   4  19
ATOM     19  O   UNL     1     112.926 127.576 141.337  0.00  0.00    +0.000 OA
BRANCH  19  28
ATOM     20  O   UNL     1     113.269 128.839 140.761  0.00  0.00    +0.000 OA
ATOM     21  O   UNL     1     112.128 129.999 142.626  0.00  0.00    +0.000 OA
ATOM     22  O   UNL     1     112.850 130.874 141.428  0.00  0.00    +0.000 OA
ATOM     23  O   UNL     1     112.166 128.350 142.580  0.00  0.00    +0.000 OA
ATOM     24  C   UNL     1     112.508 129.612 142.004  0.00  0.00    +0.000 C 
ATOM     25  C   UNL     1     112.869 130.049 141.405  0.00  0.00    +0.000 C 
ATOM     26  C   UNL     1     112.527 128.788 141.981  0.00  0.00    +0.000 C 
ATOM     27  C   UNL     1     113.250 129.662 140.783  0.00  0.00    +0.000 C 
ATOM     28  C   UNL     1     112.908 128.401 141.359  0.00  0.00    +0.000 C 
ATOM     29  C   UNL     1     113.611 130.101 140.185  0.00  0.00    +0.000 C 
ENDBRANCH  19  28
ENDBRANCH   4  19
TORSDOF 3
ENDMDL
MODEL 10
REMARK VINA RESULT:      -9.3     12.906     14.224
REMARK  Name = 42607856
REMARK  3 active torsions:
REMARK  status: ('A' for Active; 'I' for Inactive)
REMARK    1  A    between atoms: O_2  and  C_13
REMARK    2  A    between atoms: O_2  and  C_15
REMARK    3  A    between atoms: C_16  and  C_24
REMARK                            x       y       z     vdW  Elec       q    Type
REMARK                         _______ _______ _______ _____ _____    ______ ____
ROOT
ATOM      1  O   UNL     1     112.036 126.331 136.467  0.00  0.00    +0.000 OA
ATOM      2  O   UNL     1     110.326 127.741 134.613  0.00  0.00    +0.000 OA
ATOM      3  O   UNL     1     110.371 126.299 134.636  0.00  0.00    +0.000 OA
ATOM      4  C   UNL     1     111.732 128.525 136.172  0.00  0.00    +0.000 A 
ATOM      5  C   UNL     1     111.771 125.611 136.163  0.00  0.00    +0.000 C 
ATOM      6  C   UNL     1     111.216 125.601 135.553  0.00  0.00    +0.000 C 
ATOM      7  C   UNL     1     111.746 127.040 136.161  0.00  0.00    +0.000 A 
ATOM      8  C   UNL     1     111.191 127.030 135.551  0.00  0.00    +0.000 A 
ATOM      9  C   UNL     1     112.030 127.783 136.486  0.00  0.00    +0.000 A 
ATOM     10  C   UNL     1     110.926 126.310 135.247  0.00  0.00    +0.000 C 
ATOM     11  C   UNL     1     111.153 128.514 135.536  0.00  0.00    +0.000 A 
ATOM     12  C   UNL     1     110.881 127.762 135.223  0.00  0.00    +0.000 A 
ENDROOT
BRANCH   5  13
ATOM     13  C   UNL     1     112.061 124.901 136.469  0.00  0.00    +0.000 A 
ATOM     14  C   UNL     1     111.557 124.392 136.878  0.00  0.00    +0.000 A 
ATOM     15  C   UNL     1     112.855 124.702 136.364  0.00  0.00    +0.000 A 
ATOM     16  C   UNL     1     111.848 123.684 137.184  0.00  0.00    +0.000 A 
ATOM     17  C   UNL     1     113.145 123.992 136.670  0.00  0.00    +0.000 A 
ATOM     18  C   UNL     1     112.641 123.483 137.080  0.00  0.00    +0.000 A 
ENDBRANCH   5  13
BRANCH   4  19
ATOM     19  O   UNL     1     111.999 129.243 136.478  0.00  0.00    +0.000 OA
BRANCH  19  28
ATOM     20  O   UNL     1     113.102 129.362 135.577  0.00  0.00    +0.000 OA
ATOM     21  O   UNL     1     114.399 130.545 137.322  0.00  0.00    +0.000 OA
ATOM     22  O   UNL     1     115.070 130.269 135.839  0.00  0.00    +0.000 OA
ATOM     23  O   UNL     1     112.864 130.032 137.641  0.00  0.00    +0.000 OA
ATOM     24  C   UNL     1     113.967 130.150 136.740  0.00  0.00    +0.000 C 
ATOM     25  C   UNL     1     114.301 130.012 135.999  0.00  0.00    +0.000 C 
ATOM     26  C   UNL     1     113.199 129.894 136.899  0.00  0.00    +0.000 C 
ATOM     27  C   UNL     1     113.869 129.618 135.418  0.00  0.00    +0.000 C 
ATOM     28  C   UNL     1     112.767 129.499 136.318  0.00  0.00    +0.000 C 
ATOM     29  C   UNL     1     114.205 129.480 134.677  0.00  0.00    +0.000 C 
ENDBRANCH  19  28
ENDBRANCH   4  19
TORSDOF 3
ENDMDL
