MODEL 1
REMARK VINA RESULT:      -8.6      0.000      0.000
REMARK  Name = 44258710
REMARK  2 active torsions:
REMARK  status: ('A' for Active; 'I' for Inactive)
REMARK    1  A    between atoms: O_2  and  C_12
REMARK    2  A    between atoms: C_10  and  C_14
REMARK                            x       y       z     vdW  Elec       q    Type
REMARK                         _______ _______ _______ _____ _____    ______ ____
ROOT
ATOM      1  O   UNL     1     105.125 124.468 147.479  0.00  0.00    +0.000 OA
ATOM      2  O   UNL     1     107.542 125.457 146.243  0.00  0.00    +0.000 OA
ATOM      3  O   UNL     1     108.326 125.443 147.739  0.00  0.00    +0.000 OA
ATOM      4  O   UNL     1     106.352 125.216 145.464  0.00  0.00    +0.000 OA
ATOM      5  C   UNL     1     105.911 124.708 147.540  0.00  0.00    +0.000 A 
ATOM      6  C   UNL     1     106.320 124.958 146.868  0.00  0.00    +0.000 A 
ATOM      7  C   UNL     1     106.294 124.694 148.310  0.00  0.00    +0.000 A 
ATOM      8  C   UNL     1     104.747 124.478 146.745  0.00  0.00    +0.000 A 
ATOM      9  C   UNL     1     105.943 124.967 146.136  0.00  0.00    +0.000 A 
ATOM     10  C   UNL     1     105.156 124.727 146.073  0.00  0.00    +0.000 A 
ATOM     11  C   UNL     1     107.141 125.210 146.920  0.00  0.00    +0.000 A 
ATOM     12  C   UNL     1     107.113 124.943 148.380  0.00  0.00    +0.000 A 
ATOM     13  C   UNL     1     107.539 125.202 147.681  0.00  0.00    +0.000 A 
ATOM     14  C   UNL     1     105.877 124.443 148.976  0.00  0.00    +0.000 C 
ENDROOT
BRANCH   8  16
ATOM     15  O   UNL     1     101.598 123.520 146.502  0.00  0.00    +0.000 OA
ATOM     16  C   UNL     1     103.960 124.238 146.684  0.00  0.00    +0.000 A 
ATOM     17  C   UNL     1     103.352 124.770 146.857  0.00  0.00    +0.000 A 
ATOM     18  C   UNL     1     103.780 123.467 146.450  0.00  0.00    +0.000 A 
ATOM     19  C   UNL     1     102.565 124.530 146.796  0.00  0.00    +0.000 A 
ATOM     20  C   UNL     1     102.992 123.229 146.390  0.00  0.00    +0.000 A 
ATOM     21  C   UNL     1     102.385 123.759 146.562  0.00  0.00    +0.000 A 
ENDBRANCH   8  16
BRANCH  10  22
ATOM     22  O   UNL     1     104.778 124.736 145.341  0.00  0.00    +0.000 OA
ATOM     23  C   UNL     1     105.223 124.698 144.647  0.00  0.00    +0.000 C 
ENDBRANCH  10  22
TORSDOF 2
ENDMDL
MODEL 2
REMARK VINA RESULT:      -8.5      6.773      8.005
REMARK  Name = 44258710
REMARK  2 active torsions:
REMARK  status: ('A' for Active; 'I' for Inactive)
REMARK    1  A    between atoms: O_2  and  C_12
REMARK    2  A    between atoms: C_10  and  C_14
REMARK                            x       y       z     vdW  Elec       q    Type
REMARK                         _______ _______ _______ _____ _____    ______ ____
ROOT
ATOM      1  O   UNL     1     103.374 130.163 142.317  0.00  0.00    +0.000 OA
ATOM      2  O   UNL     1     104.280 127.793 140.935  0.00  0.00    +0.000 OA
ATOM      3  O   UNL     1     105.241 127.374 142.261  0.00  0.00    +0.000 OA
ATOM      4  O   UNL     1     103.346 128.703 140.318  0.00  0.00    +0.000 OA
ATOM      5  C   UNL     1     103.832 129.477 142.300  0.00  0.00    +0.000 A 
ATOM      6  C   UNL     1     103.822 128.991 141.634  0.00  0.00    +0.000 A 
ATOM      7  C   UNL     1     104.314 129.280 142.984  0.00  0.00    +0.000 A 
ATOM      8  C   UNL     1     102.906 130.363 141.666  0.00  0.00    +0.000 A 
ATOM      9  C   UNL     1     103.356 129.190 140.984  0.00  0.00    +0.000 A 
ATOM     10  C   UNL     1     102.897 129.876 141.000  0.00  0.00    +0.000 A 
ATOM     11  C   UNL     1     104.295 128.273 141.605  0.00  0.00    +0.000 A 
ATOM     12  C   UNL     1     104.793 128.567 142.973  0.00  0.00    +0.000 A 
ATOM     13  C   UNL     1     104.784 128.060 142.279  0.00  0.00    +0.000 A 
ATOM     14  C   UNL     1     104.317 129.773 143.645  0.00  0.00    +0.000 C 
ENDROOT
BRANCH   8  16
ATOM     15  O   UNL     1     101.077 133.109 141.731  0.00  0.00    +0.000 OA
ATOM     16  C   UNL     1     102.449 131.049 141.682  0.00  0.00    +0.000 A 
ATOM     17  C   UNL     1     102.767 131.763 141.416  0.00  0.00    +0.000 A 
ATOM     18  C   UNL     1     101.674 131.022 141.965  0.00  0.00    +0.000 A 
ATOM     19  C   UNL     1     102.309 132.449 141.432  0.00  0.00    +0.000 A 
ATOM     20  C   UNL     1     101.217 131.709 141.981  0.00  0.00    +0.000 A 
ATOM     21  C   UNL     1     101.534 132.422 141.715  0.00  0.00    +0.000 A 
ENDBRANCH   8  16
BRANCH  10  22
ATOM     22  O   UNL     1     102.430 130.075 140.350  0.00  0.00    +0.000 OA
ATOM     23  C   UNL     1     102.240 129.502 139.788  0.00  0.00    +0.000 C 
ENDBRANCH  10  22
TORSDOF 2
ENDMDL
MODEL 3
REMARK VINA RESULT:      -8.5     11.970     12.729
REMARK  Name = 44258710
REMARK  2 active torsions:
REMARK  status: ('A' for Active; 'I' for Inactive)
REMARK    1  A    between atoms: O_2  and  C_12
REMARK    2  A    between atoms: C_10  and  C_14
REMARK                            x       y       z     vdW  Elec       q    Type
REMARK                         _______ _______ _______ _____ _____    ______ ____
ROOT
ATOM      1  O   UNL     1     111.839 125.130 136.351  0.00  0.00    +0.000 OA
ATOM      2  O   UNL     1     114.513 126.083 136.890  0.00  0.00    +0.000 OA
ATOM      3  O   UNL     1     114.971 124.540 137.406  0.00  0.00    +0.000 OA
ATOM      4  O   UNL     1     113.497 126.968 136.376  0.00  0.00    +0.000 OA
ATOM      5  C   UNL     1     112.610 124.988 136.610  0.00  0.00    +0.000 A 
ATOM      6  C   UNL     1     113.162 125.600 136.618  0.00  0.00    +0.000 A 
ATOM      7  C   UNL     1     112.824 124.197 136.869  0.00  0.00    +0.000 A 
ATOM      8  C   UNL     1     111.621 125.886 136.101  0.00  0.00    +0.000 A 
ATOM      9  C   UNL     1     112.944 126.355 136.368  0.00  0.00    +0.000 A 
ATOM     10  C   UNL     1     112.174 126.498 136.109  0.00  0.00    +0.000 A 
ATOM     11  C   UNL     1     113.968 125.464 136.886  0.00  0.00    +0.000 A 
ATOM     12  C   UNL     1     113.625 124.042 137.139  0.00  0.00    +0.000 A 
ATOM     13  C   UNL     1     114.200 124.680 137.148  0.00  0.00    +0.000 A 
ATOM     14  C   UNL     1     112.265 123.590 136.857  0.00  0.00    +0.000 C 
ENDROOT
BRANCH   8  16
ATOM     15  O   UNL     1     108.539 126.455 135.068  0.00  0.00    +0.000 OA
ATOM     16  C   UNL     1     110.851 126.028 135.842  0.00  0.00    +0.000 A 
ATOM     17  C   UNL     1     110.280 126.296 136.375  0.00  0.00    +0.000 A 
ATOM     18  C   UNL     1     110.651 125.902 135.052  0.00  0.00    +0.000 A 
ATOM     19  C   UNL     1     109.510 126.438 136.116  0.00  0.00    +0.000 A 
ATOM     20  C   UNL     1     109.880 126.044 134.794  0.00  0.00    +0.000 A 
ATOM     21  C   UNL     1     109.310 126.312 135.326  0.00  0.00    +0.000 A 
ENDBRANCH   8  16
BRANCH  10  22
ATOM     22  O   UNL     1     111.956 127.253 135.859  0.00  0.00    +0.000 OA
ATOM     23  C   UNL     1     112.448 127.897 136.014  0.00  0.00    +0.000 C 
ENDBRANCH  10  22
TORSDOF 2
ENDMDL
MODEL 4
REMARK VINA RESULT:      -8.4     12.594     13.501
REMARK  Name = 44258710
REMARK  2 active torsions:
REMARK  status: ('A' for Active; 'I' for Inactive)
REMARK    1  A    between atoms: O_2  and  C_12
REMARK    2  A    between atoms: C_10  and  C_14
REMARK                            x       y       z     vdW  Elec       q    Type
REMARK                         _______ _______ _______ _____ _____    ______ ____
ROOT
ATOM      1  O   UNL     1     113.508 126.454 136.704  0.00  0.00    +0.000 OA
ATOM      2  O   UNL     1     111.385 124.558 136.208  0.00  0.00    +0.000 OA
ATOM      3  O   UNL     1     112.371 123.296 136.749  0.00  0.00    +0.000 OA
ATOM      4  O   UNL     1     111.206 125.964 135.940  0.00  0.00    +0.000 OA
ATOM      5  C   UNL     1     113.226 125.679 136.714  0.00  0.00    +0.000 A 
ATOM      6  C   UNL     1     112.458 125.516 136.459  0.00  0.00    +0.000 A 
ATOM      7  C   UNL     1     113.742 125.050 136.992  0.00  0.00    +0.000 A 
ATOM      8  C   UNL     1     113.022 127.067 136.439  0.00  0.00    +0.000 A 
ATOM      9  C   UNL     1     111.973 126.127 136.195  0.00  0.00    +0.000 A 
ATOM     10  C   UNL     1     112.254 126.903 136.184  0.00  0.00    +0.000 A 
ATOM     11  C   UNL     1     112.154 124.712 136.465  0.00  0.00    +0.000 A 
ATOM     12  C   UNL     1     113.454 124.241 137.005  0.00  0.00    +0.000 A 
ATOM     13  C   UNL     1     112.655 124.071 136.740  0.00  0.00    +0.000 A 
ATOM     14  C   UNL     1     114.508 125.223 137.245  0.00  0.00    +0.000 C 
ENDROOT
BRANCH   8  16
ATOM     15  O   UNL     1     114.152 130.167 136.397  0.00  0.00    +0.000 OA
ATOM     16  C   UNL     1     113.304 127.842 136.429  0.00  0.00    +0.000 A 
ATOM     17  C   UNL     1     113.730 128.117 135.777  0.00  0.00    +0.000 A 
ATOM     18  C   UNL     1     113.161 128.341 137.070  0.00  0.00    +0.000 A 
ATOM     19  C   UNL     1     114.012 128.892 135.767  0.00  0.00    +0.000 A 
ATOM     20  C   UNL     1     113.444 129.117 137.058  0.00  0.00    +0.000 A 
ATOM     21  C   UNL     1     113.869 129.392 136.408  0.00  0.00    +0.000 A 
ENDBRANCH   8  16
BRANCH  10  22
ATOM     22  O   UNL     1     111.769 127.515 135.920  0.00  0.00    +0.000 OA
ATOM     23  C   UNL     1     111.119 127.347 135.440  0.00  0.00    +0.000 C 
ENDBRANCH  10  22
TORSDOF 2
ENDMDL
MODEL 5
REMARK VINA RESULT:      -8.4     10.267     12.402
REMARK  Name = 44258710
REMARK  2 active torsions:
REMARK  status: ('A' for Active; 'I' for Inactive)
REMARK    1  A    between atoms: O_2  and  C_12
REMARK    2  A    between atoms: C_10  and  C_14
REMARK                            x       y       z     vdW  Elec       q    Type
REMARK                         _______ _______ _______ _____ _____    ______ ____
ROOT
ATOM      1  O   UNL     1     111.253 125.728 136.107  0.00  0.00    +0.000 OA
ATOM      2  O   UNL     1     108.904 126.751 137.443  0.00  0.00    +0.000 OA
ATOM      3  O   UNL     1     108.186 127.084 135.949  0.00  0.00    +0.000 OA
ATOM      4  O   UNL     1     110.027 126.246 138.194  0.00  0.00    +0.000 OA
ATOM      5  C   UNL     1     110.499 126.061 136.071  0.00  0.00    +0.000 A 
ATOM      6  C   UNL     1     110.091 126.234 136.767  0.00  0.00    +0.000 A 
ATOM      7  C   UNL     1     110.150 126.224 135.303  0.00  0.00    +0.000 A 
ATOM      8  C   UNL     1     111.598 125.567 136.839  0.00  0.00    +0.000 A 
ATOM      9  C   UNL     1     110.436 126.073 137.498  0.00  0.00    +0.000 A 
ATOM     10  C   UNL     1     111.190 125.740 137.535  0.00  0.00    +0.000 A 
ATOM     11  C   UNL     1     109.305 126.581 136.742  0.00  0.00    +0.000 A 
ATOM     12  C   UNL     1     109.366 126.571 135.258  0.00  0.00    +0.000 A 
ATOM     13  C   UNL     1     108.940 126.751 135.983  0.00  0.00    +0.000 A 
ATOM     14  C   UNL     1     110.566 126.048 134.612  0.00  0.00    +0.000 C 
ENDROOT
BRANCH   8  16
ATOM     15  O   UNL     1     114.613 124.231 136.982  0.00  0.00    +0.000 OA
ATOM     16  C   UNL     1     112.352 125.234 136.875  0.00  0.00    +0.000 A 
ATOM     17  C   UNL     1     112.439 124.413 136.905  0.00  0.00    +0.000 A 
ATOM     18  C   UNL     1     113.019 125.720 136.880  0.00  0.00    +0.000 A 
ATOM     19  C   UNL     1     113.192 124.080 136.941  0.00  0.00    +0.000 A 
ATOM     20  C   UNL     1     113.772 125.385 136.916  0.00  0.00    +0.000 A 
ATOM     21  C   UNL     1     113.859 124.566 136.946  0.00  0.00    +0.000 A 
ENDBRANCH   8  16
BRANCH  10  22
ATOM     22  O   UNL     1     111.535 125.579 138.266  0.00  0.00    +0.000 OA
ATOM     23  C   UNL     1     111.300 126.001 138.935  0.00  0.00    +0.000 C 
ENDBRANCH  10  22
TORSDOF 2
ENDMDL
MODEL 6
REMARK VINA RESULT:      -8.4      9.903     11.737
REMARK  Name = 44258710
REMARK  2 active torsions:
REMARK  status: ('A' for Active; 'I' for Inactive)
REMARK    1  A    between atoms: O_2  and  C_12
REMARK    2  A    between atoms: C_10  and  C_14
REMARK                            x       y       z     vdW  Elec       q    Type
REMARK                         _______ _______ _______ _____ _____    ______ ____
ROOT
ATOM      1  O   UNL     1     113.621 126.413 139.070  0.00  0.00    +0.000 OA
ATOM      2  O   UNL     1     111.043 126.389 140.376  0.00  0.00    +0.000 OA
ATOM      3  O   UNL     1     111.698 127.197 141.708  0.00  0.00    +0.000 OA
ATOM      4  O   UNL     1     111.221 125.805 139.069  0.00  0.00    +0.000 OA
ATOM      5  C   UNL     1     113.146 126.604 139.717  0.00  0.00    +0.000 A 
ATOM      6  C   UNL     1     112.346 126.401 139.717  0.00  0.00    +0.000 A 
ATOM      7  C   UNL     1     113.496 127.015 140.386  0.00  0.00    +0.000 A 
ATOM      8  C   UNL     1     113.295 126.018 138.422  0.00  0.00    +0.000 A 
ATOM      9  C   UNL     1     112.021 126.007 139.070  0.00  0.00    +0.000 A 
ATOM     10  C   UNL     1     112.495 125.815 138.422  0.00  0.00    +0.000 A 
ATOM     11  C   UNL     1     111.841 126.596 140.385  0.00  0.00    +0.000 A 
ATOM     12  C   UNL     1     113.007 127.217 141.062  0.00  0.00    +0.000 A 
ATOM     13  C   UNL     1     112.174 127.007 141.062  0.00  0.00    +0.000 A 
ATOM     14  C   UNL     1     114.297 127.214 140.377  0.00  0.00    +0.000 C 
ENDROOT
BRANCH   8  16
ATOM     15  O   UNL     1     115.196 125.249 135.837  0.00  0.00    +0.000 OA
ATOM     16  C   UNL     1     113.770 125.826 137.776  0.00  0.00    +0.000 A 
ATOM     17  C   UNL     1     114.220 125.134 137.786  0.00  0.00    +0.000 A 
ATOM     18  C   UNL     1     113.795 126.326 137.120  0.00  0.00    +0.000 A 
ATOM     19  C   UNL     1     114.695 124.942 137.139  0.00  0.00    +0.000 A 
ATOM     20  C   UNL     1     114.271 126.133 136.473  0.00  0.00    +0.000 A 
ATOM     21  C   UNL     1     114.720 125.442 136.483  0.00  0.00    +0.000 A 
ENDBRANCH   8  16
BRANCH  10  22
ATOM     22  O   UNL     1     112.170 125.421 137.775  0.00  0.00    +0.000 OA
ATOM     23  C   UNL     1     111.454 125.019 137.854  0.00  0.00    +0.000 C 
ENDBRANCH  10  22
TORSDOF 2
ENDMDL
MODEL 7
REMARK VINA RESULT:      -8.3      0.915      1.307
REMARK  Name = 44258710
REMARK  2 active torsions:
REMARK  status: ('A' for Active; 'I' for Inactive)
REMARK    1  A    between atoms: O_2  and  C_12
REMARK    2  A    between atoms: C_10  and  C_14
REMARK                            x       y       z     vdW  Elec       q    Type
REMARK                         _______ _______ _______ _____ _____    ______ ____
ROOT
ATOM      1  O   UNL     1     104.329 124.656 147.450  0.00  0.00    +0.000 OA
ATOM      2  O   UNL     1     106.452 124.592 145.491  0.00  0.00    +0.000 OA
ATOM      3  O   UNL     1     107.497 125.349 146.582  0.00  0.00    +0.000 OA
ATOM      4  O   UNL     1     105.147 124.054 145.193  0.00  0.00    +0.000 OA
ATOM      5  C   UNL     1     105.107 124.825 147.234  0.00  0.00    +0.000 A 
ATOM      6  C   UNL     1     105.380 124.625 146.481  0.00  0.00    +0.000 A 
ATOM      7  C   UNL     1     105.624 125.211 147.802  0.00  0.00    +0.000 A 
ATOM      8  C   UNL     1     103.823 124.286 146.912  0.00  0.00    +0.000 A 
ATOM      9  C   UNL     1     104.874 124.255 145.945  0.00  0.00    +0.000 A 
ATOM     10  C   UNL     1     104.096 124.085 146.160  0.00  0.00    +0.000 A 
ATOM     11  C   UNL     1     106.188 124.796 146.245  0.00  0.00    +0.000 A 
ATOM     12  C   UNL     1     106.435 125.390 147.583  0.00  0.00    +0.000 A 
ATOM     13  C   UNL     1     106.719 125.181 146.800  0.00  0.00    +0.000 A 
ATOM     14  C   UNL     1     105.342 125.408 148.552  0.00  0.00    +0.000 C 
ENDROOT
BRANCH   8  16
ATOM     15  O   UNL     1     100.710 123.612 147.775  0.00  0.00    +0.000 OA
ATOM     16  C   UNL     1     103.045 124.117 147.128  0.00  0.00    +0.000 A 
ATOM     17  C   UNL     1     102.444 124.656 146.958  0.00  0.00    +0.000 A 
ATOM     18  C   UNL     1     102.868 123.410 147.514  0.00  0.00    +0.000 A 
ATOM     19  C   UNL     1     101.666 124.487 147.174  0.00  0.00    +0.000 A 
ATOM     20  C   UNL     1     102.090 123.242 147.730  0.00  0.00    +0.000 A 
ATOM     21  C   UNL     1     101.489 123.780 147.560  0.00  0.00    +0.000 A 
ENDBRANCH   8  16
BRANCH  10  22
ATOM     22  O   UNL     1     103.591 123.716 145.624  0.00  0.00    +0.000 OA
ATOM     23  C   UNL     1     103.890 123.163 145.089  0.00  0.00    +0.000 C 
ENDBRANCH  10  22
TORSDOF 2
ENDMDL
MODEL 8
REMARK VINA RESULT:      -8.2      9.928     11.932
REMARK  Name = 44258710
REMARK  2 active torsions:
REMARK  status: ('A' for Active; 'I' for Inactive)
REMARK    1  A    between atoms: O_2  and  C_12
REMARK    2  A    between atoms: C_10  and  C_14
REMARK                            x       y       z     vdW  Elec       q    Type
REMARK                         _______ _______ _______ _____ _____    ______ ____
ROOT
ATOM      1  O   UNL     1     113.541 125.986 138.403  0.00  0.00    +0.000 OA
ATOM      2  O   UNL     1     111.300 124.524 137.312  0.00  0.00    +0.000 OA
ATOM      3  O   UNL     1     112.341 123.665 136.295  0.00  0.00    +0.000 OA
ATOM      4  O   UNL     1     111.110 125.525 138.333  0.00  0.00    +0.000 OA
ATOM      5  C   UNL     1     113.243 125.416 137.886  0.00  0.00    +0.000 A 
ATOM      6  C   UNL     1     112.433 125.262 137.863  0.00  0.00    +0.000 A 
ATOM      7  C   UNL     1     113.788 124.989 137.376  0.00  0.00    +0.000 A 
ATOM      8  C   UNL     1     113.027 126.402 138.898  0.00  0.00    +0.000 A 
ATOM      9  C   UNL     1     111.920 125.678 138.357  0.00  0.00    +0.000 A 
ATOM     10  C   UNL     1     112.217 126.248 138.874  0.00  0.00    +0.000 A 
ATOM     11  C   UNL     1     112.111 124.671 137.328  0.00  0.00    +0.000 A 
ATOM     12  C   UNL     1     113.484 124.395 136.836  0.00  0.00    +0.000 A 
ATOM     13  C   UNL     1     112.641 124.235 136.811  0.00  0.00    +0.000 A 
ATOM     14  C   UNL     1     114.597 125.149 137.407  0.00  0.00    +0.000 C 
ENDROOT
BRANCH   8  16
ATOM     15  O   UNL     1     114.219 128.679 140.968  0.00  0.00    +0.000 OA
ATOM     16  C   UNL     1     113.325 126.972 139.415  0.00  0.00    +0.000 A 
ATOM     17  C   UNL     1     113.632 126.743 140.146  0.00  0.00    +0.000 A 
ATOM     18  C   UNL     1     113.315 127.768 139.202  0.00  0.00    +0.000 A 
ATOM     19  C   UNL     1     113.930 127.313 140.663  0.00  0.00    +0.000 A 
ATOM     20  C   UNL     1     113.613 128.337 139.720  0.00  0.00    +0.000 A 
ATOM     21  C   UNL     1     113.921 128.110 140.450  0.00  0.00    +0.000 A 
ENDBRANCH   8  16
BRANCH  10  22
ATOM     22  O   UNL     1     111.704 126.664 139.368  0.00  0.00    +0.000 OA
ATOM     23  C   UNL     1     110.958 126.358 139.539  0.00  0.00    +0.000 C 
ENDBRANCH  10  22
TORSDOF 2
ENDMDL
MODEL 9
REMARK VINA RESULT:      -8.1     12.586     13.523
REMARK  Name = 44258710
REMARK  2 active torsions:
REMARK  status: ('A' for Active; 'I' for Inactive)
REMARK    1  A    between atoms: O_2  and  C_12
REMARK    2  A    between atoms: C_10  and  C_14
REMARK                            x       y       z     vdW  Elec       q    Type
REMARK                         _______ _______ _______ _____ _____    ______ ____
ROOT
ATOM      1  O   UNL     1     112.054 126.092 136.076  0.00  0.00    +0.000 OA
ATOM      2  O   UNL     1     111.007 128.648 135.228  0.00  0.00    +0.000 OA
ATOM      3  O   UNL     1     109.627 127.891 134.612  0.00  0.00    +0.000 OA
ATOM      4  O   UNL     1     112.282 128.550 135.895  0.00  0.00    +0.000 OA
ATOM      5  C   UNL     1     111.459 126.537 135.717  0.00  0.00    +0.000 A 
ATOM      6  C   UNL     1     111.535 127.356 135.657  0.00  0.00    +0.000 A 
ATOM      7  C   UNL     1     110.764 126.134 135.410  0.00  0.00    +0.000 A 
ATOM      8  C   UNL     1     112.725 126.468 136.375  0.00  0.00    +0.000 A 
ATOM      9  C   UNL     1     112.206 127.731 135.955  0.00  0.00    +0.000 A 
ATOM     10  C   UNL     1     112.802 127.287 136.315  0.00  0.00    +0.000 A 
ATOM     11  C   UNL     1     110.922 127.830 135.284  0.00  0.00    +0.000 A 
ATOM     12  C   UNL     1     110.141 126.592 135.034  0.00  0.00    +0.000 A 
ATOM     13  C   UNL     1     110.221 127.445 134.971  0.00  0.00    +0.000 A 
ATOM     14  C   UNL     1     110.697 125.315 135.475  0.00  0.00    +0.000 C 
ENDROOT
BRANCH   8  16
ATOM     15  O   UNL     1     115.106 124.688 137.810  0.00  0.00    +0.000 OA
ATOM     16  C   UNL     1     113.320 126.023 136.735  0.00  0.00    +0.000 A 
ATOM     17  C   UNL     1     113.941 125.723 136.281  0.00  0.00    +0.000 A 
ATOM     18  C   UNL     1     113.295 125.878 137.547  0.00  0.00    +0.000 A 
ATOM     19  C   UNL     1     114.536 125.278 136.640  0.00  0.00    +0.000 A 
ATOM     20  C   UNL     1     113.890 125.433 137.905  0.00  0.00    +0.000 A 
ATOM     21  C   UNL     1     114.510 125.133 137.452  0.00  0.00    +0.000 A 
ENDBRANCH   8  16
BRANCH  10  22
ATOM     22  O   UNL     1     113.472 127.661 136.614  0.00  0.00    +0.000 OA
ATOM     23  C   UNL     1     113.493 128.484 136.674  0.00  0.00    +0.000 C 
ENDBRANCH  10  22
TORSDOF 2
ENDMDL
MODEL 10
REMARK VINA RESULT:      -8.0     12.508     13.657
REMARK  Name = 44258710
REMARK  2 active torsions:
REMARK  status: ('A' for Active; 'I' for Inactive)
REMARK    1  A    between atoms: O_2  and  C_12
REMARK    2  A    between atoms: C_10  and  C_14
REMARK                            x       y       z     vdW  Elec       q    Type
REMARK                         _______ _______ _______ _____ _____    ______ ____
ROOT
ATOM      1  O   UNL     1     113.287 127.443 136.282  0.00  0.00    +0.000 OA
ATOM      2  O   UNL     1     110.658 128.091 135.273  0.00  0.00    +0.000 OA
ATOM      3  O   UNL     1     111.163 129.669 134.938  0.00  0.00    +0.000 OA
ATOM      4  O   UNL     1     110.959 126.773 135.774  0.00  0.00    +0.000 OA
ATOM      5  C   UNL     1     112.763 127.988 135.952  0.00  0.00    +0.000 A 
ATOM      6  C   UNL     1     111.987 127.764 135.783  0.00  0.00    +0.000 A 
ATOM      7  C   UNL     1     113.037 128.786 135.788  0.00  0.00    +0.000 A 
ATOM      8  C   UNL     1     113.034 126.673 136.443  0.00  0.00    +0.000 A 
ATOM      9  C   UNL     1     111.735 126.996 135.944  0.00  0.00    +0.000 A 
ATOM     10  C   UNL     1     112.258 126.450 136.274  0.00  0.00    +0.000 A 
ATOM     11  C   UNL     1     111.432 128.324 135.438  0.00  0.00    +0.000 A 
ATOM     12  C   UNL     1     112.497 129.358 135.444  0.00  0.00    +0.000 A 
ATOM     13  C   UNL     1     111.689 129.125 135.268  0.00  0.00    +0.000 A 
ATOM     14  C   UNL     1     113.815 129.000 135.961  0.00  0.00    +0.000 C 
ENDROOT
BRANCH   8  16
ATOM     15  O   UNL     1     115.129 124.494 137.767  0.00  0.00    +0.000 OA
ATOM     16  C   UNL     1     113.558 126.129 136.773  0.00  0.00    +0.000 A 
ATOM     17  C   UNL     1     113.596 126.039 137.593  0.00  0.00    +0.000 A 
ATOM     18  C   UNL     1     114.043 125.674 136.285  0.00  0.00    +0.000 A 
ATOM     19  C   UNL     1     114.120 125.494 137.924  0.00  0.00    +0.000 A 
ATOM     20  C   UNL     1     114.566 125.129 136.617  0.00  0.00    +0.000 A 
ATOM     21  C   UNL     1     114.605 125.039 137.435  0.00  0.00    +0.000 A 
ENDBRANCH   8  16
BRANCH  10  22
ATOM     22  O   UNL     1     112.006 125.682 136.435  0.00  0.00    +0.000 OA
ATOM     23  C   UNL     1     111.332 125.383 136.065  0.00  0.00    +0.000 C 
ENDBRANCH  10  22
TORSDOF 2
ENDMDL
