MODEL 1
REMARK VINA RESULT:      -9.9      0.000      0.000
REMARK  Name = 131834199
REMARK  9 active torsions:
REMARK  status: ('A' for Active; 'I' for Inactive)
REMARK    1  A    between atoms: O_3  and  C_25
REMARK    2  A    between atoms: O_3  and  C_35
REMARK    3  A    between atoms: O_5  and  C_26
REMARK    4  A    between atoms: O_5  and  C_36
REMARK    5  A    between atoms: O_18  and  C_46
REMARK    6  A    between atoms: C_27  and  C_40
REMARK    7  A    between atoms: C_28  and  C_41
REMARK    8  A    between atoms: C_29  and  C_33
REMARK    9  A    between atoms: C_42  and  C_46
REMARK                            x       y       z     vdW  Elec       q    Type
REMARK                         _______ _______ _______ _____ _____    ______ ____
ROOT
ATOM      1  O   UNL     1     112.600 128.768 137.175  0.00  0.00    +0.000 OA
ATOM      2  O   UNL     1     113.961 128.183 135.571  0.00  0.00    +0.000 OA
ATOM      3  O   UNL     1     113.891 131.127 136.120  0.00  0.00    +0.000 OA
ATOM      4  C   UNL     1     113.017 128.300 136.638  0.00  0.00    +0.000 C 
ATOM      5  C   UNL     1     113.544 128.650 136.109  0.00  0.00    +0.000 C 
ATOM      6  C   UNL     1     113.655 129.468 136.117  0.00  0.00    +0.000 C 
ATOM      7  C   UNL     1     113.238 129.935 136.654  0.00  0.00    +0.000 A 
ATOM      8  C   UNL     1     112.711 129.585 137.183  0.00  0.00    +0.000 A 
ATOM      9  C   UNL     1     112.382 130.913 137.760  0.00  0.00    +0.000 A 
ATOM     10  C   UNL     1     112.270 130.061 137.747  0.00  0.00    +0.000 A 
ATOM     11  C   UNL     1     113.362 130.785 136.652  0.00  0.00    +0.000 A 
ATOM     12  C   UNL     1     112.931 131.278 137.209  0.00  0.00    +0.000 A 
ENDROOT
BRANCH   4  13
ATOM     13  C   UNL     1     112.906 127.483 136.630  0.00  0.00    +0.000 A 
ATOM     14  C   UNL     1     112.137 126.341 136.246  0.00  0.00    +0.000 A 
ATOM     15  C   UNL     1     112.247 127.159 136.253  0.00  0.00    +0.000 A 
ATOM     16  C   UNL     1     112.685 125.848 136.616  0.00  0.00    +0.000 A 
ATOM     17  C   UNL     1     113.454 126.989 137.000  0.00  0.00    +0.000 A 
ATOM     18  C   UNL     1     113.343 126.172 136.993  0.00  0.00    +0.000 A 
BRANCH  14  19
ATOM     19  O   UNL     1     111.479 126.017 135.869  0.00  0.00    +0.000 OA
BRANCH  19  27
ATOM     20  O   UNL     1     110.471 126.427 136.795  0.00  0.00    +0.000 OA
ATOM     21  O   UNL     1     108.981 127.021 134.910  0.00  0.00    +0.000 OA
ATOM     22  O   UNL     1     110.486 126.413 134.612  0.00  0.00    +0.000 OA
ATOM     23  O   UNL     1     108.469 127.233 136.465  0.00  0.00    +0.000 OA
ATOM     24  C   UNL     1     109.477 126.823 135.538  0.00  0.00    +0.000 C 
ATOM     25  C   UNL     1     110.230 126.519 135.389  0.00  0.00    +0.000 C 
ATOM     26  C   UNL     1     109.222 126.929 136.316  0.00  0.00    +0.000 C 
ATOM     27  C   UNL     1     110.727 126.321 136.017  0.00  0.00    +0.000 C 
ATOM     28  C   UNL     1     109.719 126.731 136.944  0.00  0.00    +0.000 C 
BRANCH  28  31
ATOM     29  O   UNL     1     109.170 126.195 138.149  0.00  0.00    +0.000 OA
ATOM     30  O   UNL     1     109.498 127.584 138.069  0.00  0.00    +0.000 OA
ATOM     31  C   UNL     1     109.462 126.837 137.721  0.00  0.00    +0.000 C 
ENDBRANCH  28  31
ENDBRANCH  19  27
ENDBRANCH  14  19
BRANCH  16  32
ATOM     32  C   UNL     1     112.574 125.031 136.609  0.00  0.00    +0.000 C 
BRANCH  32  33
ATOM     33  O   UNL     1     113.174 124.530 136.874  0.00  0.00    +0.000 OA
ATOM     34  C   UNL     1     113.048 123.715 136.903  0.00  0.00    +0.000 C 
ENDBRANCH  32  33
ENDBRANCH  16  32
ENDBRANCH   4  13
BRANCH   9  35
ATOM     35  O   UNL     1     111.964 131.378 138.298  0.00  0.00    +0.000 OA
BRANCH  35  43
ATOM     36  O   UNL     1     111.016 131.913 137.372  0.00  0.00    +0.000 OA
ATOM     37  O   UNL     1     109.249 131.773 139.100  0.00  0.00    +0.000 OA
ATOM     38  O   UNL     1     110.786 131.285 139.450  0.00  0.00    +0.000 OA
ATOM     39  O   UNL     1     108.890 132.353 137.599  0.00  0.00    +0.000 OA
ATOM     40  C   UNL     1     109.838 131.820 138.524  0.00  0.00    +0.000 C 
ATOM     41  C   UNL     1     110.607 131.576 138.699  0.00  0.00    +0.000 C 
ATOM     42  C   UNL     1     109.659 132.110 137.773  0.00  0.00    +0.000 C 
ATOM     43  C   UNL     1     111.195 131.622 138.124  0.00  0.00    +0.000 C 
ATOM     44  C   UNL     1     110.247 132.156 137.198  0.00  0.00    +0.000 C 
BRANCH  44  47
ATOM     45  O   UNL     1     110.169 133.249 136.280  0.00  0.00    +0.000 OA
ATOM     46  O   UNL     1     109.788 131.936 135.863  0.00  0.00    +0.000 OA
ATOM     47  C   UNL     1     110.068 132.446 136.447  0.00  0.00    +0.000 C 
ENDBRANCH  44  47
ENDBRANCH  35  43
ENDBRANCH   9  35
TORSDOF 9
ENDMDL
MODEL 2
REMARK VINA RESULT:      -9.8      1.874      2.780
REMARK  Name = 131834199
REMARK  9 active torsions:
REMARK  status: ('A' for Active; 'I' for Inactive)
REMARK    1  A    between atoms: O_3  and  C_25
REMARK    2  A    between atoms: O_3  and  C_35
REMARK    3  A    between atoms: O_5  and  C_26
REMARK    4  A    between atoms: O_5  and  C_36
REMARK    5  A    between atoms: O_18  and  C_46
REMARK    6  A    between atoms: C_27  and  C_40
REMARK    7  A    between atoms: C_28  and  C_41
REMARK    8  A    between atoms: C_29  and  C_33
REMARK    9  A    between atoms: C_42  and  C_46
REMARK                            x       y       z     vdW  Elec       q    Type
REMARK                         _______ _______ _______ _____ _____    ______ ____
ROOT
ATOM      1  O   UNL     1     112.373 128.964 137.407  0.00  0.00    +0.000 OA
ATOM      2  O   UNL     1     113.917 128.211 136.060  0.00  0.00    +0.000 OA
ATOM      3  O   UNL     1     113.737 131.199 136.186  0.00  0.00    +0.000 OA
ATOM      4  C   UNL     1     112.856 128.441 136.989  0.00  0.00    +0.000 C 
ATOM      5  C   UNL     1     113.434 128.734 136.478  0.00  0.00    +0.000 C 
ATOM      6  C   UNL     1     113.530 129.548 136.386  0.00  0.00    +0.000 C 
ATOM      7  C   UNL     1     113.047 130.070 136.804  0.00  0.00    +0.000 A 
ATOM      8  C   UNL     1     112.469 129.778 137.314  0.00  0.00    +0.000 A 
ATOM      9  C   UNL     1     112.054 131.161 137.663  0.00  0.00    +0.000 A 
ATOM     10  C   UNL     1     111.959 130.312 137.756  0.00  0.00    +0.000 A 
ATOM     11  C   UNL     1     113.156 130.915 136.699  0.00  0.00    +0.000 A 
ATOM     12  C   UNL     1     112.656 131.465 137.132  0.00  0.00    +0.000 A 
ENDROOT
BRANCH   4  13
ATOM     13  C   UNL     1     112.760 127.628 137.082  0.00  0.00    +0.000 A 
ATOM     14  C   UNL     1     112.979 126.433 137.835  0.00  0.00    +0.000 A 
ATOM     15  C   UNL     1     113.076 127.247 137.742  0.00  0.00    +0.000 A 
ATOM     16  C   UNL     1     112.567 125.999 137.267  0.00  0.00    +0.000 A 
ATOM     17  C   UNL     1     112.348 127.194 136.514  0.00  0.00    +0.000 A 
ATOM     18  C   UNL     1     112.251 126.380 136.606  0.00  0.00    +0.000 A 
BRANCH  14  19
ATOM     19  O   UNL     1     113.295 126.052 138.495  0.00  0.00    +0.000 OA
BRANCH  19  27
ATOM     20  O   UNL     1     112.398 126.460 139.530  0.00  0.00    +0.000 OA
ATOM     21  O   UNL     1     114.324 127.088 140.952  0.00  0.00    +0.000 OA
ATOM     22  O   UNL     1     114.579 126.471 139.443  0.00  0.00    +0.000 OA
ATOM     23  O   UNL     1     112.785 127.286 141.513  0.00  0.00    +0.000 OA
ATOM     24  C   UNL     1     113.682 126.879 140.478  0.00  0.00    +0.000 C 
ATOM     25  C   UNL     1     113.810 126.570 139.723  0.00  0.00    +0.000 C 
ATOM     26  C   UNL     1     112.913 126.978 140.758  0.00  0.00    +0.000 C 
ATOM     27  C   UNL     1     113.168 126.361 139.249  0.00  0.00    +0.000 C 
ATOM     28  C   UNL     1     112.271 126.769 140.284  0.00  0.00    +0.000 C 
BRANCH  28  31
ATOM     29  O   UNL     1     111.116 126.242 140.939  0.00  0.00    +0.000 OA
ATOM     30  O   UNL     1     111.118 127.593 140.473  0.00  0.00    +0.000 OA
ATOM     31  C   UNL     1     111.502 126.868 140.565  0.00  0.00    +0.000 C 
ENDBRANCH  28  31
ENDBRANCH  19  27
ENDBRANCH  14  19
BRANCH  16  32
ATOM     32  C   UNL     1     112.471 125.186 137.360  0.00  0.00    +0.000 C 
BRANCH  32  33
ATOM     33  O   UNL     1     112.133 124.738 136.754  0.00  0.00    +0.000 OA
ATOM     34  C   UNL     1     112.035 123.924 136.849  0.00  0.00    +0.000 C 
ENDBRANCH  32  33
ENDBRANCH  16  32
ENDBRANCH   4  13
BRANCH   9  35
ATOM     35  O   UNL     1     111.570 131.681 138.082  0.00  0.00    +0.000 OA
BRANCH  35  43
ATOM     36  O   UNL     1     110.603 131.883 137.050  0.00  0.00    +0.000 OA
ATOM     37  O   UNL     1     108.805 131.958 138.748  0.00  0.00    +0.000 OA
ATOM     38  O   UNL     1     110.371 131.731 139.215  0.00  0.00    +0.000 OA
ATOM     39  O   UNL     1     108.438 132.135 137.150  0.00  0.00    +0.000 OA
ATOM     40  C   UNL     1     109.404 131.933 138.182  0.00  0.00    +0.000 C 
ATOM     41  C   UNL     1     110.188 131.819 138.415  0.00  0.00    +0.000 C 
ATOM     42  C   UNL     1     109.221 132.021 137.383  0.00  0.00    +0.000 C 
ATOM     43  C   UNL     1     110.787 131.794 137.850  0.00  0.00    +0.000 C 
ATOM     44  C   UNL     1     109.820 131.996 136.817  0.00  0.00    +0.000 C 
BRANCH  44  47
ATOM     45  O   UNL     1     109.646 132.835 135.673  0.00  0.00    +0.000 OA
ATOM     46  O   UNL     1     109.445 131.424 135.563  0.00  0.00    +0.000 OA
ATOM     47  C   UNL     1     109.637 132.084 136.018  0.00  0.00    +0.000 C 
ENDBRANCH  44  47
ENDBRANCH  35  43
ENDBRANCH   9  35
TORSDOF 9
ENDMDL
MODEL 3
REMARK VINA RESULT:      -9.7      1.863      3.464
REMARK  Name = 131834199
REMARK  9 active torsions:
REMARK  status: ('A' for Active; 'I' for Inactive)
REMARK    1  A    between atoms: O_3  and  C_25
REMARK    2  A    between atoms: O_3  and  C_35
REMARK    3  A    between atoms: O_5  and  C_26
REMARK    4  A    between atoms: O_5  and  C_36
REMARK    5  A    between atoms: O_18  and  C_46
REMARK    6  A    between atoms: C_27  and  C_40
REMARK    7  A    between atoms: C_28  and  C_41
REMARK    8  A    between atoms: C_29  and  C_33
REMARK    9  A    between atoms: C_42  and  C_46
REMARK                            x       y       z     vdW  Elec       q    Type
REMARK                         _______ _______ _______ _____ _____    ______ ____
ROOT
ATOM      1  O   UNL     1     110.340 128.132 136.376  0.00  0.00    +0.000 OA
ATOM      2  O   UNL     1     108.698 126.718 136.107  0.00  0.00    +0.000 OA
ATOM      3  O   UNL     1     107.937 129.585 135.696  0.00  0.00    +0.000 OA
ATOM      4  C   UNL     1     109.920 127.422 136.336  0.00  0.00    +0.000 C 
ATOM      5  C   UNL     1     109.117 127.427 136.147  0.00  0.00    +0.000 C 
ATOM      6  C   UNL     1     108.733 128.142 135.999  0.00  0.00    +0.000 C 
ATOM      7  C   UNL     1     109.152 128.852 136.039  0.00  0.00    +0.000 A 
ATOM      8  C   UNL     1     109.955 128.846 136.228  0.00  0.00    +0.000 A 
ATOM      9  C   UNL     1     110.007 130.327 136.119  0.00  0.00    +0.000 A 
ATOM     10  C   UNL     1     110.403 129.579 136.272  0.00  0.00    +0.000 A 
ATOM     11  C   UNL     1     108.740 129.589 135.883  0.00  0.00    +0.000 A 
ATOM     12  C   UNL     1     109.171 130.332 135.923  0.00  0.00    +0.000 A 
ENDROOT
BRANCH   4  13
ATOM     13  C   UNL     1     110.305 126.708 136.484  0.00  0.00    +0.000 A 
ATOM     14  C   UNL     1     110.775 125.722 137.406  0.00  0.00    +0.000 A 
ATOM     15  C   UNL     1     110.390 126.437 137.258  0.00  0.00    +0.000 A 
ATOM     16  C   UNL     1     111.075 125.278 136.778  0.00  0.00    +0.000 A 
ATOM     17  C   UNL     1     110.605 126.264 135.856  0.00  0.00    +0.000 A 
ATOM     18  C   UNL     1     110.990 125.549 136.004  0.00  0.00    +0.000 A 
BRANCH  14  19
ATOM     19  O   UNL     1     110.860 125.451 138.180  0.00  0.00    +0.000 OA
BRANCH  19  27
ATOM     20  O   UNL     1     111.855 126.371 138.631  0.00  0.00    +0.000 OA
ATOM     21  O   UNL     1     110.648 126.628 140.776  0.00  0.00    +0.000 OA
ATOM     22  O   UNL     1     110.054 125.622 139.610  0.00  0.00    +0.000 OA
ATOM     23  O   UNL     1     112.047 127.463 140.512  0.00  0.00    +0.000 OA
ATOM     24  C   UNL     1     111.050 126.543 140.061  0.00  0.00    +0.000 C 
ATOM     25  C   UNL     1     110.754 126.040 139.478  0.00  0.00    +0.000 C 
ATOM     26  C   UNL     1     111.750 126.960 139.929  0.00  0.00    +0.000 C 
ATOM     27  C   UNL     1     111.156 125.954 138.763  0.00  0.00    +0.000 C 
ATOM     28  C   UNL     1     112.152 126.874 139.214  0.00  0.00    +0.000 C 
BRANCH  28  31
ATOM     29  O   UNL     1     113.579 126.930 139.224  0.00  0.00    +0.000 OA
ATOM     30  O   UNL     1     112.823 128.070 138.810  0.00  0.00    +0.000 OA
ATOM     31  C   UNL     1     112.851 127.292 139.083  0.00  0.00    +0.000 C 
ENDBRANCH  28  31
ENDBRANCH  19  27
ENDBRANCH  14  19
BRANCH  16  32
ATOM     32  C   UNL     1     111.460 124.564 136.926  0.00  0.00    +0.000 C 
BRANCH  32  33
ATOM     33  O   UNL     1     111.714 124.094 136.298  0.00  0.00    +0.000 OA
ATOM     34  C   UNL     1     112.162 123.416 136.444  0.00  0.00    +0.000 C 
ENDBRANCH  32  33
ENDBRANCH  16  32
ENDBRANCH   4  13
BRANCH   9  35
ATOM     35  O   UNL     1     110.429 131.035 136.160  0.00  0.00    +0.000 OA
BRANCH  35  43
ATOM     36  O   UNL     1     110.404 131.159 137.583  0.00  0.00    +0.000 OA
ATOM     37  O   UNL     1     110.182 133.614 137.365  0.00  0.00    +0.000 OA
ATOM     38  O   UNL     1     110.281 132.672 136.015  0.00  0.00    +0.000 OA
ATOM     39  O   UNL     1     110.231 132.920 138.860  0.00  0.00    +0.000 OA
ATOM     40  C   UNL     1     110.256 132.796 137.438  0.00  0.00    +0.000 C 
ATOM     41  C   UNL     1     110.305 132.324 136.762  0.00  0.00    +0.000 C 
ATOM     42  C   UNL     1     110.281 132.448 138.185  0.00  0.00    +0.000 C 
ATOM     43  C   UNL     1     110.380 131.507 136.835  0.00  0.00    +0.000 C 
ATOM     44  C   UNL     1     110.355 131.631 138.258  0.00  0.00    +0.000 C 
BRANCH  44  47
ATOM     45  O   UNL     1     111.107 131.138 139.369  0.00  0.00    +0.000 OA
ATOM     46  O   UNL     1     109.679 131.081 139.391  0.00  0.00    +0.000 OA
ATOM     47  C   UNL     1     110.380 131.283 139.006  0.00  0.00    +0.000 C 
ENDBRANCH  44  47
ENDBRANCH  35  43
ENDBRANCH   9  35
TORSDOF 9
ENDMDL
MODEL 4
REMARK VINA RESULT:      -9.7      1.813      5.740
REMARK  Name = 131834199
REMARK  9 active torsions:
REMARK  status: ('A' for Active; 'I' for Inactive)
REMARK    1  A    between atoms: O_3  and  C_25
REMARK    2  A    between atoms: O_3  and  C_35
REMARK    3  A    between atoms: O_5  and  C_26
REMARK    4  A    between atoms: O_5  and  C_36
REMARK    5  A    between atoms: O_18  and  C_46
REMARK    6  A    between atoms: C_27  and  C_40
REMARK    7  A    between atoms: C_28  and  C_41
REMARK    8  A    between atoms: C_29  and  C_33
REMARK    9  A    between atoms: C_42  and  C_46
REMARK                            x       y       z     vdW  Elec       q    Type
REMARK                         _______ _______ _______ _____ _____    ______ ____
ROOT
ATOM      1  O   UNL     1     112.577 128.750 138.294  0.00  0.00    +0.000 OA
ATOM      2  O   UNL     1     113.802 130.543 138.519  0.00  0.00    +0.000 OA
ATOM      3  O   UNL     1     114.141 129.137 135.896  0.00  0.00    +0.000 OA
ATOM      4  C   UNL     1     112.913 129.430 138.622  0.00  0.00    +0.000 C 
ATOM      5  C   UNL     1     113.467 129.864 138.192  0.00  0.00    +0.000 C 
ATOM      6  C   UNL     1     113.686 129.620 137.435  0.00  0.00    +0.000 C 
ATOM      7  C   UNL     1     113.350 128.941 137.108  0.00  0.00    +0.000 A 
ATOM      8  C   UNL     1     112.796 128.506 137.538  0.00  0.00    +0.000 A 
ATOM      9  C   UNL     1     112.664 127.538 136.419  0.00  0.00    +0.000 A 
ATOM     10  C   UNL     1     112.439 127.797 137.207  0.00  0.00    +0.000 A 
ATOM     11  C   UNL     1     113.587 128.697 136.319  0.00  0.00    +0.000 A 
ATOM     12  C   UNL     1     113.241 127.990 135.972  0.00  0.00    +0.000 A 
ENDROOT
BRANCH   4  13
ATOM     13  C   UNL     1     112.693 129.674 139.378  0.00  0.00    +0.000 A 
ATOM     14  C   UNL     1     111.852 130.449 140.234  0.00  0.00    +0.000 A 
ATOM     15  C   UNL     1     112.071 130.206 139.477  0.00  0.00    +0.000 A 
ATOM     16  C   UNL     1     112.256 130.161 140.893  0.00  0.00    +0.000 A 
ATOM     17  C   UNL     1     113.097 129.385 140.037  0.00  0.00    +0.000 A 
ATOM     18  C   UNL     1     112.879 129.629 140.795  0.00  0.00    +0.000 A 
BRANCH  14  19
ATOM     19  O   UNL     1     111.229 130.982 140.333  0.00  0.00    +0.000 OA
BRANCH  19  27
ATOM     20  O   UNL     1     110.131 130.122 140.027  0.00  0.00    +0.000 OA
ATOM     21  O   UNL     1     109.108 131.913 138.658  0.00  0.00    +0.000 OA
ATOM     22  O   UNL     1     110.548 132.176 139.420  0.00  0.00    +0.000 OA
ATOM     23  O   UNL     1     108.350 130.455 138.809  0.00  0.00    +0.000 OA
ATOM     24  C   UNL     1     109.449 131.316 139.115  0.00  0.00    +0.000 C 
ATOM     25  C   UNL     1     110.169 131.447 139.496  0.00  0.00    +0.000 C 
ATOM     26  C   UNL     1     109.070 130.587 139.190  0.00  0.00    +0.000 C 
ATOM     27  C   UNL     1     110.510 130.851 139.952  0.00  0.00    +0.000 C 
ATOM     28  C   UNL     1     109.411 129.990 139.646  0.00  0.00    +0.000 C 
BRANCH  28  31
ATOM     29  O   UNL     1     108.524 129.125 140.358  0.00  0.00    +0.000 OA
ATOM     30  O   UNL     1     109.157 128.670 139.160  0.00  0.00    +0.000 OA
ATOM     31  C   UNL     1     109.031 129.261 139.721  0.00  0.00    +0.000 C 
ENDBRANCH  28  31
ENDBRANCH  19  27
ENDBRANCH  14  19
BRANCH  16  32
ATOM     32  C   UNL     1     112.037 130.404 141.650  0.00  0.00    +0.000 C 
BRANCH  32  33
ATOM     33  O   UNL     1     112.457 130.138 142.307  0.00  0.00    +0.000 OA
ATOM     34  C   UNL     1     112.202 130.333 143.068  0.00  0.00    +0.000 C 
ENDBRANCH  32  33
ENDBRANCH  16  32
ENDBRANCH   4  13
BRANCH   9  35
ATOM     35  O   UNL     1     112.327 126.858 136.094  0.00  0.00    +0.000 OA
BRANCH  35  43
ATOM     36  O   UNL     1     113.396 125.999 136.494  0.00  0.00    +0.000 OA
ATOM     37  O   UNL     1     111.809 124.108 136.674  0.00  0.00    +0.000 OA
ATOM     38  O   UNL     1     111.269 125.598 136.214  0.00  0.00    +0.000 OA
ATOM     39  O   UNL     1     113.407 123.879 137.014  0.00  0.00    +0.000 OA
ATOM     40  C   UNL     1     112.338 124.738 136.614  0.00  0.00    +0.000 C 
ATOM     41  C   UNL     1     112.068 125.484 136.384  0.00  0.00    +0.000 C 
ATOM     42  C   UNL     1     113.137 124.624 136.784  0.00  0.00    +0.000 C 
ATOM     43  C   UNL     1     112.596 126.113 136.324  0.00  0.00    +0.000 C 
ATOM     44  C   UNL     1     113.665 125.254 136.724  0.00  0.00    +0.000 C 
BRANCH  44  47
ATOM     45  O   UNL     1     115.001 125.005 136.281  0.00  0.00    +0.000 OA
ATOM     46  O   UNL     1     114.728 125.161 137.675  0.00  0.00    +0.000 OA
ATOM     47  C   UNL     1     114.465 125.140 136.894  0.00  0.00    +0.000 C 
ENDBRANCH  44  47
ENDBRANCH  35  43
ENDBRANCH   9  35
TORSDOF 9
ENDMDL
MODEL 5
REMARK VINA RESULT:      -9.7      1.920      2.905
REMARK  Name = 131834199
REMARK  9 active torsions:
REMARK  status: ('A' for Active; 'I' for Inactive)
REMARK    1  A    between atoms: O_3  and  C_25
REMARK    2  A    between atoms: O_3  and  C_35
REMARK    3  A    between atoms: O_5  and  C_26
REMARK    4  A    between atoms: O_5  and  C_36
REMARK    5  A    between atoms: O_18  and  C_46
REMARK    6  A    between atoms: C_27  and  C_40
REMARK    7  A    between atoms: C_28  and  C_41
REMARK    8  A    between atoms: C_29  and  C_33
REMARK    9  A    between atoms: C_42  and  C_46
REMARK                            x       y       z     vdW  Elec       q    Type
REMARK                         _______ _______ _______ _____ _____    ______ ____
ROOT
ATOM      1  O   UNL     1     111.242 128.395 136.760  0.00  0.00    +0.000 OA
ATOM      2  O   UNL     1     112.970 127.993 138.034  0.00  0.00    +0.000 OA
ATOM      3  O   UNL     1     112.613 130.878 137.310  0.00  0.00    +0.000 OA
ATOM      4  C   UNL     1     111.798 127.988 137.216  0.00  0.00    +0.000 C 
ATOM      5  C   UNL     1     112.414 128.400 137.579  0.00  0.00    +0.000 C 
ATOM      6  C   UNL     1     112.475 129.217 137.487  0.00  0.00    +0.000 C 
ATOM      7  C   UNL     1     111.920 129.624 137.032  0.00  0.00    +0.000 A 
ATOM      8  C   UNL     1     111.304 129.212 136.669  0.00  0.00    +0.000 A 
ATOM      9  C   UNL     1     110.777 130.476 136.093  0.00  0.00    +0.000 A 
ATOM     10  C   UNL     1     110.718 129.624 136.192  0.00  0.00    +0.000 A 
ATOM     11  C   UNL     1     111.994 130.475 136.943  0.00  0.00    +0.000 A 
ATOM     12  C   UNL     1     111.418 130.904 136.470  0.00  0.00    +0.000 A 
ENDROOT
BRANCH   4  13
ATOM     13  C   UNL     1     111.737 127.171 137.308  0.00  0.00    +0.000 A 
ATOM     14  C   UNL     1     111.081 126.034 137.873  0.00  0.00    +0.000 A 
ATOM     15  C   UNL     1     111.142 126.852 137.782  0.00  0.00    +0.000 A 
ATOM     16  C   UNL     1     111.615 125.536 137.490  0.00  0.00    +0.000 A 
ATOM     17  C   UNL     1     112.271 126.672 136.924  0.00  0.00    +0.000 A 
ATOM     18  C   UNL     1     112.210 125.855 137.016  0.00  0.00    +0.000 A 
BRANCH  14  19
ATOM     19  O   UNL     1     110.487 125.715 138.348  0.00  0.00    +0.000 OA
BRANCH  19  27
ATOM     20  O   UNL     1     110.926 126.138 139.639  0.00  0.00    +0.000 OA
ATOM     21  O   UNL     1     108.625 126.867 140.185  0.00  0.00    +0.000 OA
ATOM     22  O   UNL     1     108.952 126.201 138.711  0.00  0.00    +0.000 OA
ATOM     23  O   UNL     1     109.832 127.047 141.295  0.00  0.00    +0.000 OA
ATOM     24  C   UNL     1     109.392 126.624 140.003  0.00  0.00    +0.000 C 
ATOM     25  C   UNL     1     109.555 126.291 139.266  0.00  0.00    +0.000 C 
ATOM     26  C   UNL     1     109.996 126.714 140.558  0.00  0.00    +0.000 C 
ATOM     27  C   UNL     1     110.322 126.048 139.084  0.00  0.00    +0.000 C 
ATOM     28  C   UNL     1     110.763 126.471 140.376  0.00  0.00    +0.000 C 
BRANCH  28  31
ATOM     29  O   UNL     1     111.747 127.289 141.010  0.00  0.00    +0.000 OA
ATOM     30  O   UNL     1     111.588 125.926 141.409  0.00  0.00    +0.000 OA
ATOM     31  C   UNL     1     111.366 126.562 140.932  0.00  0.00    +0.000 C 
ENDBRANCH  28  31
ENDBRANCH  19  27
ENDBRANCH  14  19
BRANCH  16  32
ATOM     32  C   UNL     1     111.554 124.718 137.582  0.00  0.00    +0.000 C 
BRANCH  32  33
ATOM     33  O   UNL     1     112.002 124.215 137.107  0.00  0.00    +0.000 OA
ATOM     34  C   UNL     1     111.917 123.397 137.176  0.00  0.00    +0.000 C 
ENDBRANCH  32  33
ENDBRANCH  16  32
ENDBRANCH   4  13
BRANCH   9  35
ATOM     35  O   UNL     1     110.220 130.880 135.637  0.00  0.00    +0.000 OA
BRANCH  35  43
ATOM     36  O   UNL     1     109.442 131.313 136.754  0.00  0.00    +0.000 OA
ATOM     37  O   UNL     1     107.399 131.243 135.358  0.00  0.00    +0.000 OA
ATOM     38  O   UNL     1     108.859 130.833 134.706  0.00  0.00    +0.000 OA
ATOM     39  O   UNL     1     107.302 131.698 136.940  0.00  0.00    +0.000 OA
ATOM     40  C   UNL     1     108.080 131.266 135.824  0.00  0.00    +0.000 C 
ATOM     41  C   UNL     1     108.810 131.061 135.498  0.00  0.00    +0.000 C 
ATOM     42  C   UNL     1     108.032 131.494 136.615  0.00  0.00    +0.000 C 
ATOM     43  C   UNL     1     109.490 131.084 135.962  0.00  0.00    +0.000 C 
ATOM     44  C   UNL     1     108.712 131.517 137.080  0.00  0.00    +0.000 C 
BRANCH  44  47
ATOM     45  O   UNL     1     108.466 131.189 138.449  0.00  0.00    +0.000 OA
ATOM     46  O   UNL     1     108.813 132.528 138.085  0.00  0.00    +0.000 OA
ATOM     47  C   UNL     1     108.664 131.745 137.871  0.00  0.00    +0.000 C 
ENDBRANCH  44  47
ENDBRANCH  35  43
ENDBRANCH   9  35
TORSDOF 9
ENDMDL
MODEL 6
REMARK VINA RESULT:      -9.6      2.723      4.973
REMARK  Name = 131834199
REMARK  9 active torsions:
REMARK  status: ('A' for Active; 'I' for Inactive)
REMARK    1  A    between atoms: O_3  and  C_25
REMARK    2  A    between atoms: O_3  and  C_35
REMARK    3  A    between atoms: O_5  and  C_26
REMARK    4  A    between atoms: O_5  and  C_36
REMARK    5  A    between atoms: O_18  and  C_46
REMARK    6  A    between atoms: C_27  and  C_40
REMARK    7  A    between atoms: C_28  and  C_41
REMARK    8  A    between atoms: C_29  and  C_33
REMARK    9  A    between atoms: C_42  and  C_46
REMARK                            x       y       z     vdW  Elec       q    Type
REMARK                         _______ _______ _______ _____ _____    ______ ____
ROOT
ATOM      1  O   UNL     1     112.063 127.384 139.190  0.00  0.00    +0.000 OA
ATOM      2  O   UNL     1     113.641 128.891 139.260  0.00  0.00    +0.000 OA
ATOM      3  O   UNL     1     112.669 127.996 141.947  0.00  0.00    +0.000 OA
ATOM      4  C   UNL     1     112.635 127.927 138.944  0.00  0.00    +0.000 C 
ATOM      5  C   UNL     1     113.070 128.349 139.504  0.00  0.00    +0.000 C 
ATOM      6  C   UNL     1     112.933 128.228 140.309  0.00  0.00    +0.000 C 
ATOM      7  C   UNL     1     112.362 127.686 140.554  0.00  0.00    +0.000 A 
ATOM      8  C   UNL     1     111.927 127.264 139.994  0.00  0.00    +0.000 A 
ATOM      9  C   UNL     1     111.183 126.566 141.074  0.00  0.00    +0.000 A 
ATOM     10  C   UNL     1     111.329 126.696 140.237  0.00  0.00    +0.000 A 
ATOM     11  C   UNL     1     112.229 127.570 141.395  0.00  0.00    +0.000 A 
ATOM     12  C   UNL     1     111.635 127.005 141.656  0.00  0.00    +0.000 A 
ENDROOT
BRANCH   4  13
ATOM     13  C   UNL     1     112.771 128.047 138.140  0.00  0.00    +0.000 A 
ATOM     14  C   UNL     1     113.241 127.567 136.879  0.00  0.00    +0.000 A 
ATOM     15  C   UNL     1     113.105 127.447 137.683  0.00  0.00    +0.000 A 
ATOM     16  C   UNL     1     113.042 128.288 136.530  0.00  0.00    +0.000 A 
ATOM     17  C   UNL     1     112.572 128.768 137.792  0.00  0.00    +0.000 A 
ATOM     18  C   UNL     1     112.708 128.889 136.987  0.00  0.00    +0.000 A 
BRANCH  14  19
ATOM     19  O   UNL     1     113.575 126.967 136.422  0.00  0.00    +0.000 OA
BRANCH  19  27
ATOM     20  O   UNL     1     112.471 126.064 136.355  0.00  0.00    +0.000 OA
ATOM     21  O   UNL     1     113.992 124.168 136.823  0.00  0.00    +0.000 OA
ATOM     22  O   UNL     1     114.590 125.704 136.734  0.00  0.00    +0.000 OA
ATOM     23  O   UNL     1     112.380 123.897 136.599  0.00  0.00    +0.000 OA
ATOM     24  C   UNL     1     113.485 124.800 136.667  0.00  0.00    +0.000 C 
ATOM     25  C   UNL     1     113.784 125.568 136.622  0.00  0.00    +0.000 C 
ATOM     26  C   UNL     1     112.679 124.664 136.555  0.00  0.00    +0.000 C 
ATOM     27  C   UNL     1     113.277 126.200 136.466  0.00  0.00    +0.000 C 
ATOM     28  C   UNL     1     112.172 125.296 136.399  0.00  0.00    +0.000 C 
BRANCH  28  31
ATOM     29  O   UNL     1     111.065 125.075 135.524  0.00  0.00    +0.000 OA
ATOM     30  O   UNL     1     110.862 125.107 136.938  0.00  0.00    +0.000 OA
ATOM     31  C   UNL     1     111.366 125.159 136.287  0.00  0.00    +0.000 C 
ENDBRANCH  28  31
ENDBRANCH  19  27
ENDBRANCH  14  19
BRANCH  16  32
ATOM     32  C   UNL     1     113.178 128.408 135.726  0.00  0.00    +0.000 C 
BRANCH  32  33
ATOM     33  O   UNL     1     113.123 129.167 135.407  0.00  0.00    +0.000 OA
ATOM     34  C   UNL     1     113.307 129.295 134.612  0.00  0.00    +0.000 C 
ENDBRANCH  32  33
ENDBRANCH  16  32
ENDBRANCH   4  13
BRANCH   9  35
ATOM     35  O   UNL     1     110.611 126.023 141.316  0.00  0.00    +0.000 OA
BRANCH  35  43
ATOM     36  O   UNL     1     109.566 126.933 141.667  0.00  0.00    +0.000 OA
ATOM     37  O   UNL     1     107.912 125.461 140.560  0.00  0.00    +0.000 OA
ATOM     38  O   UNL     1     109.508 125.042 140.578  0.00  0.00    +0.000 OA
ATOM     39  O   UNL     1     107.420 126.861 141.281  0.00  0.00    +0.000 OA
ATOM     40  C   UNL     1     108.464 125.952 140.929  0.00  0.00    +0.000 C 
ATOM     41  C   UNL     1     109.262 125.742 140.938  0.00  0.00    +0.000 C 
ATOM     42  C   UNL     1     108.218 126.652 141.290  0.00  0.00    +0.000 C 
ATOM     43  C   UNL     1     109.813 126.232 141.306  0.00  0.00    +0.000 C 
ATOM     44  C   UNL     1     108.768 127.142 141.658  0.00  0.00    +0.000 C 
BRANCH  44  47
ATOM     45  O   UNL     1     108.362 127.854 142.828  0.00  0.00    +0.000 OA
ATOM     46  O   UNL     1     108.436 128.529 141.570  0.00  0.00    +0.000 OA
ATOM     47  C   UNL     1     108.522 127.842 142.019  0.00  0.00    +0.000 C 
ENDBRANCH  44  47
ENDBRANCH  35  43
ENDBRANCH   9  35
TORSDOF 9
ENDMDL
MODEL 7
REMARK VINA RESULT:      -9.6      1.771      2.638
REMARK  Name = 131834199
REMARK  9 active torsions:
REMARK  status: ('A' for Active; 'I' for Inactive)
REMARK    1  A    between atoms: O_3  and  C_25
REMARK    2  A    between atoms: O_3  and  C_35
REMARK    3  A    between atoms: O_5  and  C_26
REMARK    4  A    between atoms: O_5  and  C_36
REMARK    5  A    between atoms: O_18  and  C_46
REMARK    6  A    between atoms: C_27  and  C_40
REMARK    7  A    between atoms: C_28  and  C_41
REMARK    8  A    between atoms: C_29  and  C_33
REMARK    9  A    between atoms: C_42  and  C_46
REMARK                            x       y       z     vdW  Elec       q    Type
REMARK                         _______ _______ _______ _____ _____    ______ ____
ROOT
ATOM      1  O   UNL     1     112.787 128.103 137.383  0.00  0.00    +0.000 OA
ATOM      2  O   UNL     1     113.922 127.501 135.617  0.00  0.00    +0.000 OA
ATOM      3  O   UNL     1     114.291 130.368 136.403  0.00  0.00    +0.000 OA
ATOM      4  C   UNL     1     113.093 127.638 136.773  0.00  0.00    +0.000 C 
ATOM      5  C   UNL     1     113.617 127.966 136.226  0.00  0.00    +0.000 C 
ATOM      6  C   UNL     1     113.835 128.759 136.289  0.00  0.00    +0.000 C 
ATOM      7  C   UNL     1     113.530 129.224 136.899  0.00  0.00    +0.000 A 
ATOM      8  C   UNL     1     113.007 128.896 137.445  0.00  0.00    +0.000 A 
ATOM      9  C   UNL     1     112.907 130.197 138.155  0.00  0.00    +0.000 A 
ATOM     10  C   UNL     1     112.682 129.370 138.085  0.00  0.00    +0.000 A 
ATOM     11  C   UNL     1     113.766 130.048 136.954  0.00  0.00    +0.000 A 
ATOM     12  C   UNL     1     113.452 130.538 137.587  0.00  0.00    +0.000 A 
ENDROOT
BRANCH   4  13
ATOM     13  C   UNL     1     112.873 126.846 136.710  0.00  0.00    +0.000 A 
ATOM     14  C   UNL     1     111.954 125.847 136.265  0.00  0.00    +0.000 A 
ATOM     15  C   UNL     1     112.172 126.640 136.327  0.00  0.00    +0.000 A 
ATOM     16  C   UNL     1     112.436 125.259 136.586  0.00  0.00    +0.000 A 
ATOM     17  C   UNL     1     113.356 126.258 137.031  0.00  0.00    +0.000 A 
ATOM     18  C   UNL     1     113.137 125.465 136.969  0.00  0.00    +0.000 A 
BRANCH  14  19
ATOM     19  O   UNL     1     111.253 125.641 135.882  0.00  0.00    +0.000 OA
BRANCH  19  27
ATOM     20  O   UNL     1     110.320 126.204 136.805  0.00  0.00    +0.000 OA
ATOM     21  O   UNL     1     108.969 127.064 134.919  0.00  0.00    +0.000 OA
ATOM     22  O   UNL     1     110.352 126.214 134.623  0.00  0.00    +0.000 OA
ATOM     23  O   UNL     1     108.487 127.341 136.472  0.00  0.00    +0.000 OA
ATOM     24  C   UNL     1     109.419 126.777 135.548  0.00  0.00    +0.000 C 
ATOM     25  C   UNL     1     110.111 126.352 135.400  0.00  0.00    +0.000 C 
ATOM     26  C   UNL     1     109.178 126.916 136.324  0.00  0.00    +0.000 C 
ATOM     27  C   UNL     1     110.561 126.066 136.029  0.00  0.00    +0.000 C 
ATOM     28  C   UNL     1     109.629 126.629 136.953  0.00  0.00    +0.000 C 
BRANCH  28  31
ATOM     29  O   UNL     1     108.989 126.179 138.149  0.00  0.00    +0.000 OA
ATOM     30  O   UNL     1     109.543 127.495 138.088  0.00  0.00    +0.000 OA
ATOM     31  C   UNL     1     109.387 126.768 137.730  0.00  0.00    +0.000 C 
ENDBRANCH  28  31
ENDBRANCH  19  27
ENDBRANCH  14  19
BRANCH  16  32
ATOM     32  C   UNL     1     112.217 124.467 136.524  0.00  0.00    +0.000 C 
BRANCH  32  33
ATOM     33  O   UNL     1     112.625 123.891 136.950  0.00  0.00    +0.000 OA
ATOM     34  C   UNL     1     112.306 123.134 137.031  0.00  0.00    +0.000 C 
ENDBRANCH  32  33
ENDBRANCH  16  32
ENDBRANCH   4  13
BRANCH   9  35
ATOM     35  O   UNL     1     112.600 130.659 138.766  0.00  0.00    +0.000 OA
BRANCH  35  43
ATOM     36  O   UNL     1     113.696 130.686 139.683  0.00  0.00    +0.000 OA
ATOM     37  O   UNL     1     112.159 130.107 141.535  0.00  0.00    +0.000 OA
ATOM     38  O   UNL     1     111.576 130.274 140.001  0.00  0.00    +0.000 OA
ATOM     39  O   UNL     1     113.766 130.327 141.834  0.00  0.00    +0.000 OA
ATOM     40  C   UNL     1     112.671 130.300 140.918  0.00  0.00    +0.000 C 
ATOM     41  C   UNL     1     112.380 130.384 140.150  0.00  0.00    +0.000 C 
ATOM     42  C   UNL     1     113.475 130.410 141.067  0.00  0.00    +0.000 C 
ATOM     43  C   UNL     1     112.891 130.576 139.533  0.00  0.00    +0.000 C 
ATOM     44  C   UNL     1     113.987 130.603 140.450  0.00  0.00    +0.000 C 
BRANCH  44  47
ATOM     45  O   UNL     1     115.308 130.071 140.564  0.00  0.00    +0.000 OA
ATOM     46  O   UNL     1     115.077 131.464 140.783  0.00  0.00    +0.000 OA
ATOM     47  C   UNL     1     114.790 130.713 140.599  0.00  0.00    +0.000 C 
ENDBRANCH  44  47
ENDBRANCH  35  43
ENDBRANCH   9  35
TORSDOF 9
ENDMDL
MODEL 8
REMARK VINA RESULT:      -9.6      1.748      5.947
REMARK  Name = 131834199
REMARK  9 active torsions:
REMARK  status: ('A' for Active; 'I' for Inactive)
REMARK    1  A    between atoms: O_3  and  C_25
REMARK    2  A    between atoms: O_3  and  C_35
REMARK    3  A    between atoms: O_5  and  C_26
REMARK    4  A    between atoms: O_5  and  C_36
REMARK    5  A    between atoms: O_18  and  C_46
REMARK    6  A    between atoms: C_27  and  C_40
REMARK    7  A    between atoms: C_28  and  C_41
REMARK    8  A    between atoms: C_29  and  C_33
REMARK    9  A    between atoms: C_42  and  C_46
REMARK                            x       y       z     vdW  Elec       q    Type
REMARK                         _______ _______ _______ _____ _____    ______ ____
ROOT
ATOM      1  O   UNL     1     110.557 127.871 136.135  0.00  0.00    +0.000 OA
ATOM      2  O   UNL     1     108.458 127.285 135.993  0.00  0.00    +0.000 OA
ATOM      3  O   UNL     1     110.387 124.994 135.930  0.00  0.00    +0.000 OA
ATOM      4  C   UNL     1     109.734 127.921 136.099  0.00  0.00    +0.000 C 
ATOM      5  C   UNL     1     109.281 127.235 136.030  0.00  0.00    +0.000 C 
ATOM      6  C   UNL     1     109.651 126.498 135.998  0.00  0.00    +0.000 C 
ATOM      7  C   UNL     1     110.474 126.448 136.034  0.00  0.00    +0.000 A 
ATOM      8  C   UNL     1     110.926 127.134 136.103  0.00  0.00    +0.000 A 
ATOM      9  C   UNL     1     112.175 126.330 136.109  0.00  0.00    +0.000 A 
ATOM     10  C   UNL     1     111.785 127.095 136.142  0.00  0.00    +0.000 A 
ATOM     11  C   UNL     1     110.847 125.675 135.999  0.00  0.00    +0.000 A 
ATOM     12  C   UNL     1     111.704 125.616 136.037  0.00  0.00    +0.000 A 
ENDROOT
BRANCH   4  13
ATOM     13  C   UNL     1     109.365 128.658 136.131  0.00  0.00    +0.000 A 
ATOM     14  C   UNL     1     108.887 129.772 136.889  0.00  0.00    +0.000 A 
ATOM     15  C   UNL     1     109.257 129.035 136.857  0.00  0.00    +0.000 A 
ATOM     16  C   UNL     1     108.626 130.132 136.194  0.00  0.00    +0.000 A 
ATOM     17  C   UNL     1     109.103 129.018 135.437  0.00  0.00    +0.000 A 
ATOM     18  C   UNL     1     108.733 129.755 135.468  0.00  0.00    +0.000 A 
BRANCH  14  19
ATOM     19  O   UNL     1     108.780 130.148 137.615  0.00  0.00    +0.000 OA
BRANCH  19  27
ATOM     20  O   UNL     1     110.133 130.520 137.880  0.00  0.00    +0.000 OA
ATOM     21  O   UNL     1     109.860 129.829 140.241  0.00  0.00    +0.000 OA
ATOM     22  O   UNL     1     108.597 129.687 139.189  0.00  0.00    +0.000 OA
ATOM     23  O   UNL     1     111.305 130.431 139.720  0.00  0.00    +0.000 OA
ATOM     24  C   UNL     1     109.951 130.059 139.454  0.00  0.00    +0.000 C 
ATOM     25  C   UNL     1     109.320 129.988 138.928  0.00  0.00    +0.000 C 
ATOM     26  C   UNL     1     110.674 130.360 139.194  0.00  0.00    +0.000 C 
ATOM     27  C   UNL     1     109.410 130.219 138.141  0.00  0.00    +0.000 C 
ATOM     28  C   UNL     1     110.765 130.591 138.407  0.00  0.00    +0.000 C 
BRANCH  28  31
ATOM     29  O   UNL     1     112.101 130.376 137.951  0.00  0.00    +0.000 OA
ATOM     30  O   UNL     1     111.597 131.707 138.082  0.00  0.00    +0.000 OA
ATOM     31  C   UNL     1     111.487 130.891 138.147  0.00  0.00    +0.000 C 
ENDBRANCH  28  31
ENDBRANCH  19  27
ENDBRANCH  14  19
BRANCH  16  32
ATOM     32  C   UNL     1     108.257 130.869 136.227  0.00  0.00    +0.000 C 
BRANCH  32  33
ATOM     33  O   UNL     1     107.829 131.145 135.577  0.00  0.00    +0.000 OA
ATOM     34  C   UNL     1     107.518 131.910 135.584  0.00  0.00    +0.000 C 
ENDBRANCH  32  33
ENDBRANCH  16  32
ENDBRANCH   4  13
BRANCH   9  35
ATOM     35  O   UNL     1     112.998 126.283 136.146  0.00  0.00    +0.000 OA
BRANCH  35  43
ATOM     36  O   UNL     1     113.105 126.542 137.547  0.00  0.00    +0.000 OA
ATOM     37  O   UNL     1     115.027 124.990 137.688  0.00  0.00    +0.000 OA
ATOM     38  O   UNL     1     114.280 125.247 136.240  0.00  0.00    +0.000 OA
ATOM     39  O   UNL     1     114.494 125.767 139.041  0.00  0.00    +0.000 OA
ATOM     40  C   UNL     1     114.387 125.507 137.641  0.00  0.00    +0.000 C 
ATOM     41  C   UNL     1     114.012 125.636 136.916  0.00  0.00    +0.000 C 
ATOM     42  C   UNL     1     114.119 125.896 138.317  0.00  0.00    +0.000 C 
ATOM     43  C   UNL     1     113.372 126.153 136.869  0.00  0.00    +0.000 C 
ATOM     44  C   UNL     1     113.480 126.413 138.270  0.00  0.00    +0.000 C 
BRANCH  44  47
ATOM     45  O   UNL     1     113.473 127.568 139.112  0.00  0.00    +0.000 OA
ATOM     46  O   UNL     1     112.685 126.426 139.458  0.00  0.00    +0.000 OA
ATOM     47  C   UNL     1     113.212 126.802 138.947  0.00  0.00    +0.000 C 
ENDBRANCH  44  47
ENDBRANCH  35  43
ENDBRANCH   9  35
TORSDOF 9
ENDMDL
MODEL 9
REMARK VINA RESULT:      -9.5      1.914      6.041
REMARK  Name = 131834199
REMARK  9 active torsions:
REMARK  status: ('A' for Active; 'I' for Inactive)
REMARK    1  A    between atoms: O_3  and  C_25
REMARK    2  A    between atoms: O_3  and  C_35
REMARK    3  A    between atoms: O_5  and  C_26
REMARK    4  A    between atoms: O_5  and  C_36
REMARK    5  A    between atoms: O_18  and  C_46
REMARK    6  A    between atoms: C_27  and  C_40
REMARK    7  A    between atoms: C_28  and  C_41
REMARK    8  A    between atoms: C_29  and  C_33
REMARK    9  A    between atoms: C_42  and  C_46
REMARK                            x       y       z     vdW  Elec       q    Type
REMARK                         _______ _______ _______ _____ _____    ______ ____
ROOT
ATOM      1  O   UNL     1     111.989 128.582 138.713  0.00  0.00    +0.000 OA
ATOM      2  O   UNL     1     112.898 130.117 139.973  0.00  0.00    +0.000 OA
ATOM      3  O   UNL     1     113.321 127.314 140.941  0.00  0.00    +0.000 OA
ATOM      4  C   UNL     1     112.221 129.322 138.997  0.00  0.00    +0.000 C 
ATOM      5  C   UNL     1     112.666 129.378 139.689  0.00  0.00    +0.000 C 
ATOM      6  C   UNL     1     112.879 128.694 140.098  0.00  0.00    +0.000 C 
ATOM      7  C   UNL     1     112.648 127.954 139.814  0.00  0.00    +0.000 A 
ATOM      8  C   UNL     1     112.203 127.899 139.122  0.00  0.00    +0.000 A 
ATOM      9  C   UNL     1     112.175 126.418 139.238  0.00  0.00    +0.000 A 
ATOM     10  C   UNL     1     111.956 127.134 138.816  0.00  0.00    +0.000 A 
ATOM     11  C   UNL     1     112.877 127.250 140.249  0.00  0.00    +0.000 A 
ATOM     12  C   UNL     1     112.638 126.476 139.959  0.00  0.00    +0.000 A 
ENDROOT
BRANCH   4  13
ATOM     13  C   UNL     1     112.007 130.006 138.587  0.00  0.00    +0.000 A 
ATOM     14  C   UNL     1     112.264 130.965 137.560  0.00  0.00    +0.000 A 
ATOM     15  C   UNL     1     112.478 130.281 137.969  0.00  0.00    +0.000 A 
ATOM     16  C   UNL     1     111.578 131.373 137.770  0.00  0.00    +0.000 A 
ATOM     17  C   UNL     1     111.322 130.414 138.797  0.00  0.00    +0.000 A 
ATOM     18  C   UNL     1     111.107 131.098 138.388  0.00  0.00    +0.000 A 
BRANCH  14  19
ATOM     19  O   UNL     1     112.735 131.240 136.941  0.00  0.00    +0.000 OA
BRANCH  19  27
ATOM     20  O   UNL     1     112.648 130.107 136.076  0.00  0.00    +0.000 OA
ATOM     21  O   UNL     1     115.065 130.299 135.581  0.00  0.00    +0.000 OA
ATOM     22  O   UNL     1     114.347 131.369 136.611  0.00  0.00    +0.000 OA
ATOM     23  O   UNL     1     114.172 129.101 134.881  0.00  0.00    +0.000 OA
ATOM     24  C   UNL     1     114.259 130.235 135.746  0.00  0.00    +0.000 C 
ATOM     25  C   UNL     1     113.900 130.770 136.261  0.00  0.00    +0.000 C 
ATOM     26  C   UNL     1     113.813 129.636 135.396  0.00  0.00    +0.000 C 
ATOM     27  C   UNL     1     113.094 130.706 136.426  0.00  0.00    +0.000 C 
ATOM     28  C   UNL     1     113.007 129.572 135.561  0.00  0.00    +0.000 C 
BRANCH  28  31
ATOM     29  O   UNL     1     112.655 128.191 135.459  0.00  0.00    +0.000 OA
ATOM     30  O   UNL     1     112.023 129.154 134.612  0.00  0.00    +0.000 OA
ATOM     31  C   UNL     1     112.562 128.972 135.211  0.00  0.00    +0.000 C 
ENDBRANCH  28  31
ENDBRANCH  19  27
ENDBRANCH  14  19
BRANCH  16  32
ATOM     32  C   UNL     1     111.364 132.056 137.360  0.00  0.00    +0.000 C 
BRANCH  32  33
ATOM     33  O   UNL     1     110.758 132.537 137.647  0.00  0.00    +0.000 OA
ATOM     34  C   UNL     1     110.508 133.191 137.210  0.00  0.00    +0.000 C 
ENDBRANCH  32  33
ENDBRANCH  16  32
ENDBRANCH   4  13
BRANCH   9  35
ATOM     35  O   UNL     1     111.942 125.680 138.952  0.00  0.00    +0.000 OA
BRANCH  35  43
ATOM     36  O   UNL     1     113.084 125.434 138.129  0.00  0.00    +0.000 OA
ATOM     37  O   UNL     1     111.624 124.408 136.413  0.00  0.00    +0.000 OA
ATOM     38  O   UNL     1     110.969 124.996 137.809  0.00  0.00    +0.000 OA
ATOM     39  O   UNL     1     113.251 124.503 136.162  0.00  0.00    +0.000 OA
ATOM     40  C   UNL     1     112.111 124.750 136.985  0.00  0.00    +0.000 C 
ATOM     41  C   UNL     1     111.783 125.044 137.683  0.00  0.00    +0.000 C 
ATOM     42  C   UNL     1     112.925 124.798 136.860  0.00  0.00    +0.000 C 
ATOM     43  C   UNL     1     112.269 125.386 138.255  0.00  0.00    +0.000 C 
ATOM     44  C   UNL     1     113.411 125.139 137.431  0.00  0.00    +0.000 C 
BRANCH  44  47
ATOM     45  O   UNL     1     114.723 124.604 137.610  0.00  0.00    +0.000 OA
ATOM     46  O   UNL     1     114.540 125.818 136.877  0.00  0.00    +0.000 OA
ATOM     47  C   UNL     1     114.224 125.187 137.306  0.00  0.00    +0.000 C 
ENDBRANCH  44  47
ENDBRANCH  35  43
ENDBRANCH   9  35
TORSDOF 9
ENDMDL
MODEL 10
REMARK VINA RESULT:      -9.5      2.397      6.023
REMARK  Name = 131834199
REMARK  9 active torsions:
REMARK  status: ('A' for Active; 'I' for Inactive)
REMARK    1  A    between atoms: O_3  and  C_25
REMARK    2  A    between atoms: O_3  and  C_35
REMARK    3  A    between atoms: O_5  and  C_26
REMARK    4  A    between atoms: O_5  and  C_36
REMARK    5  A    between atoms: O_18  and  C_46
REMARK    6  A    between atoms: C_27  and  C_40
REMARK    7  A    between atoms: C_28  and  C_41
REMARK    8  A    between atoms: C_29  and  C_33
REMARK    9  A    between atoms: C_42  and  C_46
REMARK                            x       y       z     vdW  Elec       q    Type
REMARK                         _______ _______ _______ _____ _____    ______ ____
ROOT
ATOM      1  O   UNL     1     111.856 128.548 137.750  0.00  0.00    +0.000 OA
ATOM      2  O   UNL     1     112.637 130.580 137.575  0.00  0.00    +0.000 OA
ATOM      3  O   UNL     1     112.846 128.956 135.066  0.00  0.00    +0.000 OA
ATOM      4  C   UNL     1     112.071 129.321 137.945  0.00  0.00    +0.000 C 
ATOM      5  C   UNL     1     112.422 129.807 137.379  0.00  0.00    +0.000 C 
ATOM      6  C   UNL     1     112.560 129.521 136.618  0.00  0.00    +0.000 C 
ATOM      7  C   UNL     1     112.345 128.749 136.422  0.00  0.00    +0.000 A 
ATOM      8  C   UNL     1     111.994 128.263 136.988  0.00  0.00    +0.000 A 
ATOM      9  C   UNL     1     111.906 127.153 136.005  0.00  0.00    +0.000 A 
ATOM     10  C   UNL     1     111.766 127.456 136.797  0.00  0.00    +0.000 A 
ATOM     11  C   UNL     1     112.494 128.463 135.626  0.00  0.00    +0.000 A 
ATOM     12  C   UNL     1     112.273 127.659 135.416  0.00  0.00    +0.000 A 
ENDROOT
BRANCH   4  13
ATOM     13  C   UNL     1     111.933 129.606 138.707  0.00  0.00    +0.000 A 
ATOM     14  C   UNL     1     112.299 129.681 140.086  0.00  0.00    +0.000 A 
ATOM     15  C   UNL     1     112.438 129.396 139.325  0.00  0.00    +0.000 A 
ATOM     16  C   UNL     1     111.656 130.178 140.230  0.00  0.00    +0.000 A 
ATOM     17  C   UNL     1     111.290 130.103 138.851  0.00  0.00    +0.000 A 
ATOM     18  C   UNL     1     111.152 130.389 139.612  0.00  0.00    +0.000 A 
BRANCH  14  19
ATOM     19  O   UNL     1     112.804 129.470 140.704  0.00  0.00    +0.000 OA
BRANCH  19  27
ATOM     20  O   UNL     1     112.541 128.069 140.783  0.00  0.00    +0.000 OA
ATOM     21  O   UNL     1     114.971 127.620 140.925  0.00  0.00    +0.000 OA
ATOM     22  O   UNL     1     114.424 129.172 140.799  0.00  0.00    +0.000 OA
ATOM     23  O   UNL     1     113.897 126.368 140.957  0.00  0.00    +0.000 OA
ATOM     24  C   UNL     1     114.161 127.770 140.878  0.00  0.00    +0.000 C 
ATOM     25  C   UNL     1     113.887 128.546 140.815  0.00  0.00    +0.000 C 
ATOM     26  C   UNL     1     113.624 127.143 140.894  0.00  0.00    +0.000 C 
ATOM     27  C   UNL     1     113.078 128.695 140.767  0.00  0.00    +0.000 C 
ATOM     28  C   UNL     1     112.814 127.293 140.846  0.00  0.00    +0.000 C 
BRANCH  28  31
ATOM     29  O   UNL     1     111.896 126.469 141.566  0.00  0.00    +0.000 OA
ATOM     30  O   UNL     1     112.124 126.236 140.175  0.00  0.00    +0.000 OA
ATOM     31  C   UNL     1     112.278 126.666 140.862  0.00  0.00    +0.000 C 
ENDBRANCH  28  31
ENDBRANCH  19  27
ENDBRANCH  14  19
BRANCH  16  32
ATOM     32  C   UNL     1     111.519 130.463 140.991  0.00  0.00    +0.000 C 
BRANCH  32  33
ATOM     33  O   UNL     1     110.988 131.084 141.110  0.00  0.00    +0.000 OA
ATOM     34  C   UNL     1     110.783 131.311 141.877  0.00  0.00    +0.000 C 
ENDBRANCH  32  33
ENDBRANCH  16  32
ENDBRANCH   4  13
BRANCH   9  35
ATOM     35  O   UNL     1     111.691 126.380 135.813  0.00  0.00    +0.000 OA
BRANCH  35  43
ATOM     36  O   UNL     1     112.918 125.817 136.280  0.00  0.00    +0.000 OA
ATOM     37  O   UNL     1     111.755 123.688 136.770  0.00  0.00    +0.000 OA
ATOM     38  O   UNL     1     110.916 124.961 136.139  0.00  0.00    +0.000 OA
ATOM     39  O   UNL     1     113.370 123.836 137.074  0.00  0.00    +0.000 OA
ATOM     40  C   UNL     1     112.143 124.398 136.607  0.00  0.00    +0.000 C 
ATOM     41  C   UNL     1     111.723 125.035 136.291  0.00  0.00    +0.000 C 
ATOM     42  C   UNL     1     112.951 124.472 136.759  0.00  0.00    +0.000 C 
ATOM     43  C   UNL     1     112.110 125.744 136.128  0.00  0.00    +0.000 C 
ATOM     44  C   UNL     1     113.338 125.181 136.596  0.00  0.00    +0.000 C 
BRANCH  44  47
ATOM     45  O   UNL     1     114.692 125.128 136.142  0.00  0.00    +0.000 OA
ATOM     46  O   UNL     1     114.406 125.455 137.504  0.00  0.00    +0.000 OA
ATOM     47  C   UNL     1     114.145 125.255 136.747  0.00  0.00    +0.000 C 
ENDBRANCH  44  47
ENDBRANCH  35  43
ENDBRANCH   9  35
TORSDOF 9
ENDMDL
