MODEL 1
REMARK VINA RESULT:     -11.2      0.000      0.000
REMARK  Name = 13942388
REMARK  9 active torsions:
REMARK  status: ('A' for Active; 'I' for Inactive)
REMARK    1  A    between atoms: O_2  and  C_27
REMARK    2  A    between atoms: O_2  and  C_31
REMARK    3  A    between atoms: O_5  and  C_29
REMARK    4  A    between atoms: O_5  and  C_40
REMARK    5  A    between atoms: O_12  and  C_37
REMARK    6  A    between atoms: O_12  and  C_41
REMARK    7  A    between atoms: C_22  and  C_31
REMARK    8  A    between atoms: C_36  and  C_39
REMARK    9  A    between atoms: C_42  and  C_49
REMARK                            x       y       z     vdW  Elec       q    Type
REMARK                         _______ _______ _______ _____ _____    ______ ____
ROOT
ATOM      1  O   UNL     1     113.413 126.262 138.829  0.00  0.00    +0.000 OA
ATOM      2  O   UNL     1     111.007 125.814 138.459  0.00  0.00    +0.000 OA
ATOM      3  O   UNL     1     110.674 126.395 139.738  0.00  0.00    +0.000 OA
ATOM      4  C   UNL     1     112.362 125.748 138.009  0.00  0.00    +0.000 A 
ATOM      5  C   UNL     1     112.563 127.085 140.725  0.00  0.00    +0.000 A 
ATOM      6  C   UNL     1     113.164 125.898 138.132  0.00  0.00    +0.000 A 
ATOM      7  C   UNL     1     111.809 125.964 138.582  0.00  0.00    +0.000 A 
ATOM      8  C   UNL     1     112.059 126.329 139.280  0.00  0.00    +0.000 A 
ATOM      9  C   UNL     1     112.861 126.478 139.403  0.00  0.00    +0.000 A 
ATOM     10  C   UNL     1     113.133 126.857 140.123  0.00  0.00    +0.000 A 
ATOM     11  C   UNL     1     111.728 126.929 140.597  0.00  0.00    +0.000 A 
ATOM     12  C   UNL     1     111.474 126.548 139.869  0.00  0.00    +0.000 A 
ENDROOT
BRANCH   6  15
ATOM     13  O   UNL     1     114.894 126.609 135.972  0.00  0.00    +0.000 OA
ATOM     14  O   UNL     1     115.373 125.036 135.838  0.00  0.00    +0.000 OA
ATOM     15  C   UNL     1     113.716 125.682 137.559  0.00  0.00    +0.000 A 
ATOM     16  C   UNL     1     114.029 126.253 137.053  0.00  0.00    +0.000 A 
ATOM     17  C   UNL     1     113.956 124.895 137.492  0.00  0.00    +0.000 A 
ATOM     18  C   UNL     1     114.581 126.038 136.478  0.00  0.00    +0.000 A 
ATOM     19  C   UNL     1     114.508 124.680 136.919  0.00  0.00    +0.000 A 
ATOM     20  C   UNL     1     114.821 125.251 136.412  0.00  0.00    +0.000 A 
ENDBRANCH   6  15
BRANCH   4  21
ATOM     21  O   UNL     1     112.112 125.383 137.313  0.00  0.00    +0.000 OA
BRANCH  21  30
ATOM     22  O   UNL     1     111.546 126.598 136.818  0.00  0.00    +0.000 OA
ATOM     23  O   UNL     1     110.038 126.950 135.280  0.00  0.00    +0.000 OA
ATOM     24  O   UNL     1     110.132 125.303 135.254  0.00  0.00    +0.000 OA
ATOM     25  O   UNL     1     111.169 124.519 136.271  0.00  0.00    +0.000 OA
ATOM     26  C   UNL     1     111.028 126.989 136.310  0.00  0.00    +0.000 C 
ATOM     27  C   UNL     1     110.556 126.558 135.788  0.00  0.00    +0.000 C 
ATOM     28  C   UNL     1     110.603 125.734 135.775  0.00  0.00    +0.000 C 
ATOM     29  C   UNL     1     111.122 125.342 136.284  0.00  0.00    +0.000 C 
ATOM     30  C   UNL     1     111.593 125.775 136.805  0.00  0.00    +0.000 C 
BRANCH  26  31
ATOM     31  C   UNL     1     110.980 127.813 136.322  0.00  0.00    +0.000 C 
BRANCH  31  32
ATOM     32  O   UNL     1     111.667 128.267 136.271  0.00  0.00    +0.000 OA
BRANCH  32  38
ATOM     33  O   UNL     1     111.234 129.146 137.311  0.00  0.00    +0.000 OA
ATOM     34  O   UNL     1     112.695 129.431 135.715  0.00  0.00    +0.000 OA
ATOM     35  O   UNL     1     112.777 130.893 136.477  0.00  0.00    +0.000 OA
ATOM     36  O   UNL     1     111.830 131.189 137.796  0.00  0.00    +0.000 OA
ATOM     37  C   UNL     1     112.221 129.580 136.374  0.00  0.00    +0.000 C 
ATOM     38  C   UNL     1     111.707 128.998 136.652  0.00  0.00    +0.000 C 
ATOM     39  C   UNL     1     112.263 130.310 136.755  0.00  0.00    +0.000 C 
ATOM     40  C   UNL     1     111.789 130.459 137.415  0.00  0.00    +0.000 C 
ATOM     41  C   UNL     1     111.275 129.876 137.693  0.00  0.00    +0.000 C 
ATOM     42  C   UNL     1     110.802 130.025 138.352  0.00  0.00    +0.000 C 
ENDBRANCH  32  38
ENDBRANCH  31  32
ENDBRANCH  26  31
ENDBRANCH  21  30
ENDBRANCH   4  21
BRANCH   5  43
ATOM     43  O   UNL     1     112.815 127.449 141.421  0.00  0.00    +0.000 OA
BRANCH  43  52
ATOM     44  O   UNL     1     113.319 128.695 140.934  0.00  0.00    +0.000 OA
ATOM     45  O   UNL     1     112.015 129.895 142.662  0.00  0.00    +0.000 OA
ATOM     46  O   UNL     1     112.953 130.741 141.601  0.00  0.00    +0.000 OA
ATOM     47  O   UNL     1     111.946 128.249 142.573  0.00  0.00    +0.000 OA
ATOM     48  C   UNL     1     112.450 129.495 142.086  0.00  0.00    +0.000 C 
ATOM     49  C   UNL     1     112.918 129.918 141.555  0.00  0.00    +0.000 C 
ATOM     50  C   UNL     1     112.415 128.672 142.042  0.00  0.00    +0.000 C 
ATOM     51  C   UNL     1     113.353 129.518 140.979  0.00  0.00    +0.000 C 
ATOM     52  C   UNL     1     112.849 128.272 141.466  0.00  0.00    +0.000 C 
BRANCH  51  54
ATOM     53  O   UNL     1     114.619 129.749 140.360  0.00  0.00    +0.000 OA
ATOM     54  C   UNL     1     113.822 129.941 140.449  0.00  0.00    +0.000 C 
ENDBRANCH  51  54
ENDBRANCH  43  52
ENDBRANCH   5  43
TORSDOF 9
ENDMDL
MODEL 2
REMARK VINA RESULT:     -10.8      1.731      5.531
REMARK  Name = 13942388
REMARK  9 active torsions:
REMARK  status: ('A' for Active; 'I' for Inactive)
REMARK    1  A    between atoms: O_2  and  C_27
REMARK    2  A    between atoms: O_2  and  C_31
REMARK    3  A    between atoms: O_5  and  C_29
REMARK    4  A    between atoms: O_5  and  C_40
REMARK    5  A    between atoms: O_12  and  C_37
REMARK    6  A    between atoms: O_12  and  C_41
REMARK    7  A    between atoms: C_22  and  C_31
REMARK    8  A    between atoms: C_36  and  C_39
REMARK    9  A    between atoms: C_42  and  C_49
REMARK                            x       y       z     vdW  Elec       q    Type
REMARK                         _______ _______ _______ _____ _____    ______ ____
ROOT
ATOM      1  O   UNL     1     112.844 128.502 138.101  0.00  0.00    +0.000 OA
ATOM      2  O   UNL     1     113.834 128.447 140.369  0.00  0.00    +0.000 OA
ATOM      3  O   UNL     1     113.368 127.095 140.569  0.00  0.00    +0.000 OA
ATOM      4  C   UNL     1     113.574 129.143 139.148  0.00  0.00    +0.000 A 
ATOM      5  C   UNL     1     112.275 126.434 138.730  0.00  0.00    +0.000 A 
ATOM      6  C   UNL     1     113.244 129.161 138.392  0.00  0.00    +0.000 A 
ATOM      7  C   UNL     1     113.504 128.465 139.613  0.00  0.00    +0.000 A 
ATOM      8  C   UNL     1     113.102 127.805 139.321  0.00  0.00    +0.000 A 
ATOM      9  C   UNL     1     112.772 127.824 138.565  0.00  0.00    +0.000 A 
ATOM     10  C   UNL     1     112.353 127.144 138.251  0.00  0.00    +0.000 A 
ATOM     11  C   UNL     1     112.619 126.415 139.517  0.00  0.00    +0.000 A 
ATOM     12  C   UNL     1     113.035 127.105 139.815  0.00  0.00    +0.000 A 
ENDROOT
BRANCH   6  15
ATOM     13  O   UNL     1     112.080 131.500 137.233  0.00  0.00    +0.000 OA
ATOM     14  O   UNL     1     113.527 131.874 136.535  0.00  0.00    +0.000 OA
ATOM     15  C   UNL     1     113.315 129.839 137.928  0.00  0.00    +0.000 A 
ATOM     16  C   UNL     1     112.662 130.330 137.813  0.00  0.00    +0.000 A 
ATOM     17  C   UNL     1     114.039 130.027 137.579  0.00  0.00    +0.000 A 
ATOM     18  C   UNL     1     112.733 131.009 137.348  0.00  0.00    +0.000 A 
ATOM     19  C   UNL     1     114.110 130.705 137.115  0.00  0.00    +0.000 A 
ATOM     20  C   UNL     1     113.457 131.196 137.000  0.00  0.00    +0.000 A 
ENDBRANCH   6  15
BRANCH   4  21
ATOM     21  O   UNL     1     113.975 129.802 139.440  0.00  0.00    +0.000 OA
BRANCH  21  30
ATOM     22  O   UNL     1     112.905 130.169 140.313  0.00  0.00    +0.000 OA
ATOM     23  O   UNL     1     112.906 131.309 142.174  0.00  0.00    +0.000 OA
ATOM     24  O   UNL     1     114.511 131.329 141.795  0.00  0.00    +0.000 OA
ATOM     25  O   UNL     1     115.046 130.575 140.429  0.00  0.00    +0.000 OA
ATOM     26  C   UNL     1     112.638 130.546 140.996  0.00  0.00    +0.000 C 
ATOM     27  C   UNL     1     113.173 130.932 141.491  0.00  0.00    +0.000 C 
ATOM     28  C   UNL     1     113.977 130.942 141.301  0.00  0.00    +0.000 C 
ATOM     29  C   UNL     1     114.244 130.565 140.618  0.00  0.00    +0.000 C 
ATOM     30  C   UNL     1     113.708 130.179 140.124  0.00  0.00    +0.000 C 
BRANCH  26  31
ATOM     31  C   UNL     1     111.835 130.536 141.186  0.00  0.00    +0.000 C 
BRANCH  31  32
ATOM     32  O   UNL     1     111.289 130.905 140.690  0.00  0.00    +0.000 OA
BRANCH  32  38
ATOM     33  O   UNL     1     110.403 129.785 140.740  0.00  0.00    +0.000 OA
ATOM     34  O   UNL     1     110.036 131.876 140.233  0.00  0.00    +0.000 OA
ATOM     35  O   UNL     1     108.523 131.242 140.054  0.00  0.00    +0.000 OA
ATOM     36  O   UNL     1     108.264 129.637 140.333  0.00  0.00    +0.000 OA
ATOM     37  C   UNL     1     109.906 131.073 140.372  0.00  0.00    +0.000 C 
ATOM     38  C   UNL     1     110.533 130.587 140.601  0.00  0.00    +0.000 C 
ATOM     39  C   UNL     1     109.150 130.756 140.283  0.00  0.00    +0.000 C 
ATOM     40  C   UNL     1     109.020 129.953 140.422  0.00  0.00    +0.000 C 
ATOM     41  C   UNL     1     109.647 129.467 140.651  0.00  0.00    +0.000 C 
ATOM     42  C   UNL     1     109.517 128.665 140.790  0.00  0.00    +0.000 C 
ENDBRANCH  32  38
ENDBRANCH  31  32
ENDBRANCH  26  31
ENDBRANCH  21  30
ENDBRANCH   4  21
BRANCH   5  43
ATOM     43  O   UNL     1     111.874 125.776 138.436  0.00  0.00    +0.000 OA
BRANCH  43  52
ATOM     44  O   UNL     1     113.035 125.149 137.886  0.00  0.00    +0.000 OA
ATOM     45  O   UNL     1     111.655 124.197 136.065  0.00  0.00    +0.000 OA
ATOM     46  O   UNL     1     113.275 123.887 136.121  0.00  0.00    +0.000 OA
ATOM     47  O   UNL     1     110.954 125.141 137.222  0.00  0.00    +0.000 OA
ATOM     48  C   UNL     1     112.115 124.514 136.672  0.00  0.00    +0.000 C 
ATOM     49  C   UNL     1     112.925 124.360 136.700  0.00  0.00    +0.000 C 
ATOM     50  C   UNL     1     111.764 124.986 137.250  0.00  0.00    +0.000 C 
ATOM     51  C   UNL     1     113.385 124.677 137.307  0.00  0.00    +0.000 C 
ATOM     52  C   UNL     1     112.224 125.304 137.857  0.00  0.00    +0.000 C 
BRANCH  51  54
ATOM     53  O   UNL     1     114.734 125.143 137.272  0.00  0.00    +0.000 OA
ATOM     54  C   UNL     1     114.195 124.523 137.335  0.00  0.00    +0.000 C 
ENDBRANCH  51  54
ENDBRANCH  43  52
ENDBRANCH   5  43
TORSDOF 9
ENDMDL
MODEL 3
REMARK VINA RESULT:     -10.8      1.896      3.194
REMARK  Name = 13942388
REMARK  9 active torsions:
REMARK  status: ('A' for Active; 'I' for Inactive)
REMARK    1  A    between atoms: O_2  and  C_27
REMARK    2  A    between atoms: O_2  and  C_31
REMARK    3  A    between atoms: O_5  and  C_29
REMARK    4  A    between atoms: O_5  and  C_40
REMARK    5  A    between atoms: O_12  and  C_37
REMARK    6  A    between atoms: O_12  and  C_41
REMARK    7  A    between atoms: C_22  and  C_31
REMARK    8  A    between atoms: C_36  and  C_39
REMARK    9  A    between atoms: C_42  and  C_49
REMARK                            x       y       z     vdW  Elec       q    Type
REMARK                         _______ _______ _______ _____ _____    ______ ____
ROOT
ATOM      1  O   UNL     1     111.939 126.280 138.735  0.00  0.00    +0.000 OA
ATOM      2  O   UNL     1     113.341 128.236 138.154  0.00  0.00    +0.000 OA
ATOM      3  O   UNL     1     112.991 128.890 139.391  0.00  0.00    +0.000 OA
ATOM      4  C   UNL     1     112.821 126.945 137.829  0.00  0.00    +0.000 A 
ATOM      5  C   UNL     1     111.605 127.556 140.539  0.00  0.00    +0.000 A 
ATOM      6  C   UNL     1     112.353 126.293 138.022  0.00  0.00    +0.000 A 
ATOM      7  C   UNL     1     112.873 127.584 138.347  0.00  0.00    +0.000 A 
ATOM      8  C   UNL     1     112.458 127.571 139.061  0.00  0.00    +0.000 A 
ATOM      9  C   UNL     1     111.991 126.919 139.255  0.00  0.00    +0.000 A 
ATOM     10  C   UNL     1     111.555 126.893 139.994  0.00  0.00    +0.000 A 
ATOM     11  C   UNL     1     112.091 128.235 140.338  0.00  0.00    +0.000 A 
ATOM     12  C   UNL     1     112.521 128.242 139.593  0.00  0.00    +0.000 A 
ENDROOT
BRANCH   6  15
ATOM     13  O   UNL     1     110.892 124.807 136.067  0.00  0.00    +0.000 OA
ATOM     14  O   UNL     1     112.143 123.738 135.944  0.00  0.00    +0.000 OA
ATOM     15  C   UNL     1     112.301 125.655 137.503  0.00  0.00    +0.000 A 
ATOM     16  C   UNL     1     111.623 125.550 137.045  0.00  0.00    +0.000 A 
ATOM     17  C   UNL     1     112.927 125.120 137.441  0.00  0.00    +0.000 A 
ATOM     18  C   UNL     1     111.570 124.911 136.525  0.00  0.00    +0.000 A 
ATOM     19  C   UNL     1     112.874 124.481 136.922  0.00  0.00    +0.000 A 
ATOM     20  C   UNL     1     112.196 124.377 136.464  0.00  0.00    +0.000 A 
ENDBRANCH   6  15
BRANCH   4  21
ATOM     21  O   UNL     1     113.236 126.958 137.116  0.00  0.00    +0.000 OA
BRANCH  21  30
ATOM     22  O   UNL     1     112.382 127.938 136.522  0.00  0.00    +0.000 OA
ATOM     23  O   UNL     1     112.778 129.436 134.984  0.00  0.00    +0.000 OA
ATOM     24  O   UNL     1     114.257 128.714 135.106  0.00  0.00    +0.000 OA
ATOM     25  O   UNL     1     114.486 127.476 136.172  0.00  0.00    +0.000 OA
ATOM     26  C   UNL     1     112.268 128.557 135.989  0.00  0.00    +0.000 C 
ATOM     27  C   UNL     1     112.893 128.816 135.517  0.00  0.00    +0.000 C 
ATOM     28  C   UNL     1     113.633 128.455 135.578  0.00  0.00    +0.000 C 
ATOM     29  C   UNL     1     113.747 127.836 136.111  0.00  0.00    +0.000 C 
ATOM     30  C   UNL     1     113.121 127.577 136.583  0.00  0.00    +0.000 C 
BRANCH  26  31
ATOM     31  C   UNL     1     111.529 128.918 135.928  0.00  0.00    +0.000 C 
BRANCH  31  32
ATOM     32  O   UNL     1     110.848 128.457 135.866  0.00  0.00    +0.000 OA
BRANCH  32  38
ATOM     33  O   UNL     1     110.040 129.586 136.203  0.00  0.00    +0.000 OA
ATOM     34  O   UNL     1     109.490 127.597 135.490  0.00  0.00    +0.000 OA
ATOM     35  O   UNL     1     108.003 128.297 135.639  0.00  0.00    +0.000 OA
ATOM     36  O   UNL     1     107.874 129.856 136.164  0.00  0.00    +0.000 OA
ATOM     37  C   UNL     1     109.426 128.378 135.753  0.00  0.00    +0.000 C 
ATOM     38  C   UNL     1     110.104 128.807 135.941  0.00  0.00    +0.000 C 
ATOM     39  C   UNL     1     108.682 128.727 135.827  0.00  0.00    +0.000 C 
ATOM     40  C   UNL     1     108.617 129.507 136.090  0.00  0.00    +0.000 C 
ATOM     41  C   UNL     1     109.296 129.937 136.278  0.00  0.00    +0.000 C 
ATOM     42  C   UNL     1     109.232 130.715 136.540  0.00  0.00    +0.000 C 
ENDBRANCH  32  38
ENDBRANCH  31  32
ENDBRANCH  26  31
ENDBRANCH  21  30
ENDBRANCH   4  21
BRANCH   5  43
ATOM     43  O   UNL     1     111.189 127.541 141.252  0.00  0.00    +0.000 OA
BRANCH  43  52
ATOM     44  O   UNL     1     110.062 128.330 140.867  0.00  0.00    +0.000 OA
ATOM     45  O   UNL     1     108.560 126.759 142.052  0.00  0.00    +0.000 OA
ATOM     46  O   UNL     1     107.932 128.071 141.273  0.00  0.00    +0.000 OA
ATOM     47  O   UNL     1     110.188 126.493 142.041  0.00  0.00    +0.000 OA
ATOM     48  C   UNL     1     109.060 127.283 141.657  0.00  0.00    +0.000 C 
ATOM     49  C   UNL     1     108.747 127.939 141.267  0.00  0.00    +0.000 C 
ATOM     50  C   UNL     1     109.874 127.150 141.652  0.00  0.00    +0.000 C 
ATOM     51  C   UNL     1     109.247 128.462 140.872  0.00  0.00    +0.000 C 
ATOM     52  C   UNL     1     110.375 127.673 141.257  0.00  0.00    +0.000 C 
BRANCH  51  54
ATOM     53  O   UNL     1     108.952 129.156 139.659  0.00  0.00    +0.000 OA
ATOM     54  C   UNL     1     108.934 129.119 140.483  0.00  0.00    +0.000 C 
ENDBRANCH  51  54
ENDBRANCH  43  52
ENDBRANCH   5  43
TORSDOF 9
ENDMDL
MODEL 4
REMARK VINA RESULT:     -10.7      1.984      4.785
REMARK  Name = 13942388
REMARK  9 active torsions:
REMARK  status: ('A' for Active; 'I' for Inactive)
REMARK    1  A    between atoms: O_2  and  C_27
REMARK    2  A    between atoms: O_2  and  C_31
REMARK    3  A    between atoms: O_5  and  C_29
REMARK    4  A    between atoms: O_5  and  C_40
REMARK    5  A    between atoms: O_12  and  C_37
REMARK    6  A    between atoms: O_12  and  C_41
REMARK    7  A    between atoms: C_22  and  C_31
REMARK    8  A    between atoms: C_36  and  C_39
REMARK    9  A    between atoms: C_42  and  C_49
REMARK                            x       y       z     vdW  Elec       q    Type
REMARK                         _______ _______ _______ _____ _____    ______ ____
ROOT
ATOM      1  O   UNL     1     111.825 129.220 135.748  0.00  0.00    +0.000 OA
ATOM      2  O   UNL     1     111.634 126.927 136.661  0.00  0.00    +0.000 OA
ATOM      3  O   UNL     1     110.194 127.024 136.679  0.00  0.00    +0.000 OA
ATOM      4  C   UNL     1     112.441 128.014 136.201  0.00  0.00    +0.000 A 
ATOM      5  C   UNL     1     109.603 129.041 135.905  0.00  0.00    +0.000 A 
ATOM      6  C   UNL     1     112.505 128.778 135.897  0.00  0.00    +0.000 A 
ATOM      7  C   UNL     1     111.698 127.692 136.357  0.00  0.00    +0.000 A 
ATOM      8  C   UNL     1     111.017 128.135 136.208  0.00  0.00    +0.000 A 
ATOM      9  C   UNL     1     111.081 128.899 135.904  0.00  0.00    +0.000 A 
ATOM     10  C   UNL     1     110.380 129.370 135.745  0.00  0.00    +0.000 A 
ATOM     11  C   UNL     1     109.536 128.245 136.222  0.00  0.00    +0.000 A 
ATOM     12  C   UNL     1     110.249 127.789 136.375  0.00  0.00    +0.000 A 
ENDROOT
BRANCH   6  15
ATOM     13  O   UNL     1     114.615 130.579 136.581  0.00  0.00    +0.000 OA
ATOM     14  O   UNL     1     115.480 130.063 135.274  0.00  0.00    +0.000 OA
ATOM     15  C   UNL     1     113.248 129.099 135.741  0.00  0.00    +0.000 A 
ATOM     16  C   UNL     1     113.559 129.678 136.239  0.00  0.00    +0.000 A 
ATOM     17  C   UNL     1     113.681 128.841 135.087  0.00  0.00    +0.000 A 
ATOM     18  C   UNL     1     114.304 130.000 136.083  0.00  0.00    +0.000 A 
ATOM     19  C   UNL     1     114.424 129.162 134.932  0.00  0.00    +0.000 A 
ATOM     20  C   UNL     1     114.735 129.741 135.429  0.00  0.00    +0.000 A 
ENDBRANCH   6  15
BRANCH   4  21
ATOM     21  O   UNL     1     113.121 127.570 136.350  0.00  0.00    +0.000 OA
BRANCH  21  30
ATOM     22  O   UNL     1     113.091 127.734 137.768  0.00  0.00    +0.000 OA
ATOM     23  O   UNL     1     113.691 126.384 139.376  0.00  0.00    +0.000 OA
ATOM     24  O   UNL     1     114.035 125.464 138.051  0.00  0.00    +0.000 OA
ATOM     25  O   UNL     1     113.750 126.057 136.537  0.00  0.00    +0.000 OA
ATOM     26  C   UNL     1     113.233 127.437 138.525  0.00  0.00    +0.000 C 
ATOM     27  C   UNL     1     113.548 126.681 138.619  0.00  0.00    +0.000 C 
ATOM     28  C   UNL     1     113.721 126.220 137.956  0.00  0.00    +0.000 C 
ATOM     29  C   UNL     1     113.578 126.517 137.199  0.00  0.00    +0.000 C 
ATOM     30  C   UNL     1     113.263 127.274 137.106  0.00  0.00    +0.000 C 
BRANCH  26  31
ATOM     31  C   UNL     1     113.061 127.897 139.188  0.00  0.00    +0.000 C 
BRANCH  31  32
ATOM     32  O   UNL     1     113.405 128.642 139.274  0.00  0.00    +0.000 OA
BRANCH  32  38
ATOM     33  O   UNL     1     112.333 129.099 140.101  0.00  0.00    +0.000 OA
ATOM     34  O   UNL     1     114.375 129.834 139.874  0.00  0.00    +0.000 OA
ATOM     35  O   UNL     1     113.789 130.887 141.001  0.00  0.00    +0.000 OA
ATOM     36  O   UNL     1     112.232 130.748 141.529  0.00  0.00    +0.000 OA
ATOM     37  C   UNL     1     113.596 129.764 140.138  0.00  0.00    +0.000 C 
ATOM     38  C   UNL     1     113.111 129.168 139.838  0.00  0.00    +0.000 C 
ATOM     39  C   UNL     1     113.304 130.291 140.701  0.00  0.00    +0.000 C 
ATOM     40  C   UNL     1     112.524 130.221 140.965  0.00  0.00    +0.000 C 
ATOM     41  C   UNL     1     112.039 129.625 140.665  0.00  0.00    +0.000 C 
ATOM     42  C   UNL     1     111.261 129.556 140.929  0.00  0.00    +0.000 C 
ENDBRANCH  32  38
ENDBRANCH  31  32
ENDBRANCH  26  31
ENDBRANCH  21  30
ENDBRANCH   4  21
BRANCH   5  43
ATOM     43  O   UNL     1     108.924 129.486 135.756  0.00  0.00    +0.000 OA
BRANCH  43  52
ATOM     44  O   UNL     1     108.918 130.159 137.016  0.00  0.00    +0.000 OA
ATOM     45  O   UNL     1     107.982 132.177 135.933  0.00  0.00    +0.000 OA
ATOM     46  O   UNL     1     108.288 132.179 137.554  0.00  0.00    +0.000 OA
ATOM     47  O   UNL     1     108.300 130.831 135.033  0.00  0.00    +0.000 OA
ATOM     48  C   UNL     1     108.294 131.505 136.294  0.00  0.00    +0.000 C 
ATOM     49  C   UNL     1     108.447 131.505 137.105  0.00  0.00    +0.000 C 
ATOM     50  C   UNL     1     108.453 130.832 135.844  0.00  0.00    +0.000 C 
ATOM     51  C   UNL     1     108.759 130.832 137.466  0.00  0.00    +0.000 C 
ATOM     52  C   UNL     1     108.765 130.159 136.205  0.00  0.00    +0.000 C 
BRANCH  51  54
ATOM     53  O   UNL     1     108.571 130.258 138.760  0.00  0.00    +0.000 OA
ATOM     54  C   UNL     1     108.912 130.833 138.277  0.00  0.00    +0.000 C 
ENDBRANCH  51  54
ENDBRANCH  43  52
ENDBRANCH   5  43
TORSDOF 9
ENDMDL
MODEL 5
REMARK VINA RESULT:     -10.7      1.343      4.553
REMARK  Name = 13942388
REMARK  9 active torsions:
REMARK  status: ('A' for Active; 'I' for Inactive)
REMARK    1  A    between atoms: O_2  and  C_27
REMARK    2  A    between atoms: O_2  and  C_31
REMARK    3  A    between atoms: O_5  and  C_29
REMARK    4  A    between atoms: O_5  and  C_40
REMARK    5  A    between atoms: O_12  and  C_37
REMARK    6  A    between atoms: O_12  and  C_41
REMARK    7  A    between atoms: C_22  and  C_31
REMARK    8  A    between atoms: C_36  and  C_39
REMARK    9  A    between atoms: C_42  and  C_49
REMARK                            x       y       z     vdW  Elec       q    Type
REMARK                         _______ _______ _______ _____ _____    ______ ____
ROOT
ATOM      1  O   UNL     1     111.299 128.773 136.316  0.00  0.00    +0.000 OA
ATOM      2  O   UNL     1     113.704 128.382 136.748  0.00  0.00    +0.000 OA
ATOM      3  O   UNL     1     113.869 129.737 137.217  0.00  0.00    +0.000 OA
ATOM      4  C   UNL     1     112.433 127.905 136.302  0.00  0.00    +0.000 A 
ATOM      5  C   UNL     1     111.892 130.783 137.093  0.00  0.00    +0.000 A 
ATOM      6  C   UNL     1     111.631 128.035 136.158  0.00  0.00    +0.000 A 
ATOM      7  C   UNL     1     112.902 128.512 136.604  0.00  0.00    +0.000 A 
ATOM      8  C   UNL     1     112.569 129.251 136.762  0.00  0.00    +0.000 A 
ATOM      9  C   UNL     1     111.767 129.381 136.618  0.00  0.00    +0.000 A 
ATOM     10  C   UNL     1     111.409 130.145 136.778  0.00  0.00    +0.000 A 
ATOM     11  C   UNL     1     112.727 130.647 137.242  0.00  0.00    +0.000 A 
ATOM     12  C   UNL     1     113.068 129.875 137.076  0.00  0.00    +0.000 A 
ENDROOT
BRANCH   6  15
ATOM     13  O   UNL     1     109.639 126.022 136.543  0.00  0.00    +0.000 OA
ATOM     14  O   UNL     1     109.755 125.603 134.952  0.00  0.00    +0.000 OA
ATOM     15  C   UNL     1     111.163 127.427 135.857  0.00  0.00    +0.000 A 
ATOM     16  C   UNL     1     110.636 127.029 136.351  0.00  0.00    +0.000 A 
ATOM     17  C   UNL     1     111.220 127.217 135.061  0.00  0.00    +0.000 A 
ATOM     18  C   UNL     1     110.166 126.420 136.049  0.00  0.00    +0.000 A 
ATOM     19  C   UNL     1     110.752 126.610 134.759  0.00  0.00    +0.000 A 
ATOM     20  C   UNL     1     110.225 126.211 135.254  0.00  0.00    +0.000 A 
ENDBRANCH   6  15
BRANCH   4  21
ATOM     21  O   UNL     1     112.766 127.167 136.144  0.00  0.00    +0.000 OA
BRANCH  21  30
ATOM     22  O   UNL     1     112.869 126.809 137.523  0.00  0.00    +0.000 OA
ATOM     23  O   UNL     1     114.259 125.479 138.555  0.00  0.00    +0.000 OA
ATOM     24  O   UNL     1     114.799 125.350 137.001  0.00  0.00    +0.000 OA
ATOM     25  O   UNL     1     114.053 126.194 135.796  0.00  0.00    +0.000 OA
ATOM     26  C   UNL     1     113.242 126.387 138.126  0.00  0.00    +0.000 C 
ATOM     27  C   UNL     1     113.886 125.901 137.952  0.00  0.00    +0.000 C 
ATOM     28  C   UNL     1     114.156 125.837 137.175  0.00  0.00    +0.000 C 
ATOM     29  C   UNL     1     113.783 126.259 136.572  0.00  0.00    +0.000 C 
ATOM     30  C   UNL     1     113.139 126.745 136.747  0.00  0.00    +0.000 C 
BRANCH  26  31
ATOM     31  C   UNL     1     112.973 126.451 138.903  0.00  0.00    +0.000 C 
BRANCH  31  32
ATOM     32  O   UNL     1     112.165 126.403 139.065  0.00  0.00    +0.000 OA
BRANCH  32  38
ATOM     33  O   UNL     1     112.286 127.132 140.289  0.00  0.00    +0.000 OA
ATOM     34  O   UNL     1     110.802 125.670 139.636  0.00  0.00    +0.000 OA
ATOM     35  O   UNL     1     110.241 126.031 141.145  0.00  0.00    +0.000 OA
ATOM     36  O   UNL     1     111.044 127.126 142.083  0.00  0.00    +0.000 OA
ATOM     37  C   UNL     1     111.204 126.218 140.105  0.00  0.00    +0.000 C 
ATOM     38  C   UNL     1     111.885 126.585 139.820  0.00  0.00    +0.000 C 
ATOM     39  C   UNL     1     110.923 126.398 140.860  0.00  0.00    +0.000 C 
ATOM     40  C   UNL     1     111.325 126.946 141.329  0.00  0.00    +0.000 C 
ATOM     41  C   UNL     1     112.006 127.313 141.044  0.00  0.00    +0.000 C 
ATOM     42  C   UNL     1     112.407 127.860 141.512  0.00  0.00    +0.000 C 
ENDBRANCH  32  38
ENDBRANCH  31  32
ENDBRANCH  26  31
ENDBRANCH  21  30
ENDBRANCH   4  21
BRANCH   5  43
ATOM     43  O   UNL     1     111.557 131.520 137.250  0.00  0.00    +0.000 OA
BRANCH  43  52
ATOM     44  O   UNL     1     111.142 131.241 138.588  0.00  0.00    +0.000 OA
ATOM     45  O   UNL     1     109.083 132.564 138.225  0.00  0.00    +0.000 OA
ATOM     46  O   UNL     1     109.354 131.845 139.685  0.00  0.00    +0.000 OA
ATOM     47  O   UNL     1     110.184 132.402 137.007  0.00  0.00    +0.000 OA
ATOM     48  C   UNL     1     109.769 132.123 138.346  0.00  0.00    +0.000 C 
ATOM     49  C   UNL     1     109.905 131.763 139.076  0.00  0.00    +0.000 C 
ATOM     50  C   UNL     1     110.319 132.042 137.737  0.00  0.00    +0.000 C 
ATOM     51  C   UNL     1     110.591 131.322 139.197  0.00  0.00    +0.000 C 
ATOM     52  C   UNL     1     111.006 131.601 137.858  0.00  0.00    +0.000 C 
BRANCH  51  54
ATOM     53  O   UNL     1     111.459 131.047 140.298  0.00  0.00    +0.000 OA
ATOM     54  C   UNL     1     110.727 130.963 139.927  0.00  0.00    +0.000 C 
ENDBRANCH  51  54
ENDBRANCH  43  52
ENDBRANCH   5  43
TORSDOF 9
ENDMDL
MODEL 6
REMARK VINA RESULT:     -10.7      1.453      4.745
REMARK  Name = 13942388
REMARK  9 active torsions:
REMARK  status: ('A' for Active; 'I' for Inactive)
REMARK    1  A    between atoms: O_2  and  C_27
REMARK    2  A    between atoms: O_2  and  C_31
REMARK    3  A    between atoms: O_5  and  C_29
REMARK    4  A    between atoms: O_5  and  C_40
REMARK    5  A    between atoms: O_12  and  C_37
REMARK    6  A    between atoms: O_12  and  C_41
REMARK    7  A    between atoms: C_22  and  C_31
REMARK    8  A    between atoms: C_36  and  C_39
REMARK    9  A    between atoms: C_42  and  C_49
REMARK                            x       y       z     vdW  Elec       q    Type
REMARK                         _______ _______ _______ _____ _____    ______ ____
ROOT
ATOM      1  O   UNL     1     112.103 130.529 138.881  0.00  0.00    +0.000 OA
ATOM      2  O   UNL     1     114.455 130.577 138.112  0.00  0.00    +0.000 OA
ATOM      3  O   UNL     1     114.918 130.153 139.411  0.00  0.00    +0.000 OA
ATOM      4  C   UNL     1     113.062 130.763 137.849  0.00  0.00    +0.000 A 
ATOM      5  C   UNL     1     113.144 129.889 140.753  0.00  0.00    +0.000 A 
ATOM      6  C   UNL     1     112.278 130.747 138.106  0.00  0.00    +0.000 A 
ATOM      7  C   UNL     1     113.671 130.561 138.368  0.00  0.00    +0.000 A 
ATOM      8  C   UNL     1     113.495 130.342 139.145  0.00  0.00    +0.000 A 
ATOM      9  C   UNL     1     112.711 130.327 139.401  0.00  0.00    +0.000 A 
ATOM     10  C   UNL     1     112.515 130.101 140.206  0.00  0.00    +0.000 A 
ATOM     11  C   UNL     1     113.960 129.906 140.486  0.00  0.00    +0.000 A 
ATOM     12  C   UNL     1     114.137 130.134 139.676  0.00  0.00    +0.000 A 
ENDROOT
BRANCH   6  15
ATOM     13  O   UNL     1     110.089 129.976 136.439  0.00  0.00    +0.000 OA
ATOM     14  O   UNL     1     109.846 131.556 136.027  0.00  0.00    +0.000 OA
ATOM     15  C   UNL     1     111.671 130.949 137.586  0.00  0.00    +0.000 A 
ATOM     16  C   UNL     1     111.184 130.362 137.273  0.00  0.00    +0.000 A 
ATOM     17  C   UNL     1     111.549 131.739 137.380  0.00  0.00    +0.000 A 
ATOM     18  C   UNL     1     110.575 130.564 136.753  0.00  0.00    +0.000 A 
ATOM     19  C   UNL     1     110.942 131.941 136.861  0.00  0.00    +0.000 A 
ATOM     20  C   UNL     1     110.455 131.353 136.547  0.00  0.00    +0.000 A 
ENDBRANCH   6  15
BRANCH   4  21
ATOM     21  O   UNL     1     113.239 130.981 137.073  0.00  0.00    +0.000 OA
BRANCH  21  30
ATOM     22  O   UNL     1     113.524 129.650 136.641  0.00  0.00    +0.000 OA
ATOM     23  O   UNL     1     114.890 128.906 135.109  0.00  0.00    +0.000 OA
ATOM     24  O   UNL     1     115.145 130.532 134.992  0.00  0.00    +0.000 OA
ATOM     25  O   UNL     1     114.319 131.570 135.974  0.00  0.00    +0.000 OA
ATOM     26  C   UNL     1     113.937 129.131 136.150  0.00  0.00    +0.000 C 
ATOM     27  C   UNL     1     114.477 129.425 135.600  0.00  0.00    +0.000 C 
ATOM     28  C   UNL     1     114.605 130.239 135.542  0.00  0.00    +0.000 C 
ATOM     29  C   UNL     1     114.192 130.757 136.033  0.00  0.00    +0.000 C 
ATOM     30  C   UNL     1     113.652 130.462 136.582  0.00  0.00    +0.000 C 
BRANCH  26  31
ATOM     31  C   UNL     1     113.810 128.318 136.208  0.00  0.00    +0.000 C 
BRANCH  31  32
ATOM     32  O   UNL     1     113.042 128.022 136.252  0.00  0.00    +0.000 OA
BRANCH  32  38
ATOM     33  O   UNL     1     113.447 126.832 136.931  0.00  0.00    +0.000 OA
ATOM     34  O   UNL     1     111.726 127.230 135.648  0.00  0.00    +0.000 OA
ATOM     35  O   UNL     1     111.474 125.644 136.024  0.00  0.00    +0.000 OA
ATOM     36  O   UNL     1     112.536 124.849 137.005  0.00  0.00    +0.000 OA
ATOM     37  C   UNL     1     112.258 126.833 136.139  0.00  0.00    +0.000 C 
ATOM     38  C   UNL     1     112.916 127.229 136.441  0.00  0.00    +0.000 C 
ATOM     39  C   UNL     1     112.131 126.040 136.326  0.00  0.00    +0.000 C 
ATOM     40  C   UNL     1     112.663 125.642 136.817  0.00  0.00    +0.000 C 
ATOM     41  C   UNL     1     113.321 126.038 137.119  0.00  0.00    +0.000 C 
ATOM     42  C   UNL     1     113.851 125.641 137.610  0.00  0.00    +0.000 C 
ENDBRANCH  32  38
ENDBRANCH  31  32
ENDBRANCH  26  31
ENDBRANCH  21  30
ENDBRANCH   4  21
BRANCH   5  43
ATOM     43  O   UNL     1     112.965 129.672 141.528  0.00  0.00    +0.000 OA
BRANCH  43  52
ATOM     44  O   UNL     1     112.692 128.295 141.258  0.00  0.00    +0.000 OA
ATOM     45  O   UNL     1     110.880 128.325 142.943  0.00  0.00    +0.000 OA
ATOM     46  O   UNL     1     111.210 126.939 142.111  0.00  0.00    +0.000 OA
ATOM     47  O   UNL     1     111.757 129.692 142.652  0.00  0.00    +0.000 OA
ATOM     48  C   UNL     1     111.484 128.315 142.381  0.00  0.00    +0.000 C 
ATOM     49  C   UNL     1     111.649 127.622 141.965  0.00  0.00    +0.000 C 
ATOM     50  C   UNL     1     111.922 128.998 142.236  0.00  0.00    +0.000 C 
ATOM     51  C   UNL     1     112.253 127.612 141.403  0.00  0.00    +0.000 C 
ATOM     52  C   UNL     1     112.526 128.988 141.674  0.00  0.00    +0.000 C 
BRANCH  51  54
ATOM     53  O   UNL     1     113.195 126.648 140.931  0.00  0.00    +0.000 OA
ATOM     54  C   UNL     1     112.418 126.919 140.988  0.00  0.00    +0.000 C 
ENDBRANCH  51  54
ENDBRANCH  43  52
ENDBRANCH   5  43
TORSDOF 9
ENDMDL
MODEL 7
REMARK VINA RESULT:     -10.6      2.121      5.435
REMARK  Name = 13942388
REMARK  9 active torsions:
REMARK  status: ('A' for Active; 'I' for Inactive)
REMARK    1  A    between atoms: O_2  and  C_27
REMARK    2  A    between atoms: O_2  and  C_31
REMARK    3  A    between atoms: O_5  and  C_29
REMARK    4  A    between atoms: O_5  and  C_40
REMARK    5  A    between atoms: O_12  and  C_37
REMARK    6  A    between atoms: O_12  and  C_41
REMARK    7  A    between atoms: C_22  and  C_31
REMARK    8  A    between atoms: C_36  and  C_39
REMARK    9  A    between atoms: C_42  and  C_49
REMARK                            x       y       z     vdW  Elec       q    Type
REMARK                         _______ _______ _______ _____ _____    ______ ____
ROOT
ATOM      1  O   UNL     1     111.810 129.647 137.136  0.00  0.00    +0.000 OA
ATOM      2  O   UNL     1     111.809 129.047 139.537  0.00  0.00    +0.000 OA
ATOM      3  O   UNL     1     110.373 128.904 139.529  0.00  0.00    +0.000 OA
ATOM      4  C   UNL     1     112.520 129.415 138.353  0.00  0.00    +0.000 A 
ATOM      5  C   UNL     1     109.621 129.344 137.466  0.00  0.00    +0.000 A 
ATOM      6  C   UNL     1     112.521 129.615 137.553  0.00  0.00    +0.000 A 
ATOM      7  C   UNL     1     111.810 129.247 138.737  0.00  0.00    +0.000 A 
ATOM      8  C   UNL     1     111.098 129.280 138.319  0.00  0.00    +0.000 A 
ATOM      9  C   UNL     1     111.099 129.480 137.518  0.00  0.00    +0.000 A 
ATOM     10  C   UNL     1     110.365 129.517 137.073  0.00  0.00    +0.000 A 
ATOM     11  C   UNL     1     109.620 129.136 138.299  0.00  0.00    +0.000 A 
ATOM     12  C   UNL     1     110.364 129.103 138.729  0.00  0.00    +0.000 A 
ENDROOT
BRANCH   6  15
ATOM     13  O   UNL     1     114.568 128.876 135.700  0.00  0.00    +0.000 OA
ATOM     14  O   UNL     1     115.366 130.284 136.021  0.00  0.00    +0.000 OA
ATOM     15  C   UNL     1     113.232 129.782 137.170  0.00  0.00    +0.000 A 
ATOM     16  C   UNL     1     113.544 129.245 136.627  0.00  0.00    +0.000 A 
ATOM     17  C   UNL     1     113.632 130.486 137.330  0.00  0.00    +0.000 A 
ATOM     18  C   UNL     1     114.256 129.413 136.243  0.00  0.00    +0.000 A 
ATOM     19  C   UNL     1     114.342 130.653 136.948  0.00  0.00    +0.000 A 
ATOM     20  C   UNL     1     114.654 130.116 136.404  0.00  0.00    +0.000 A 
ENDBRANCH   6  15
BRANCH   4  21
ATOM     21  O   UNL     1     113.231 129.382 138.771  0.00  0.00    +0.000 OA
BRANCH  21  30
ATOM     22  O   UNL     1     113.253 127.957 138.856  0.00  0.00    +0.000 OA
ATOM     23  O   UNL     1     114.075 126.629 140.382  0.00  0.00    +0.000 OA
ATOM     24  O   UNL     1     114.451 128.104 141.017  0.00  0.00    +0.000 OA
ATOM     25  O   UNL     1     114.030 129.481 140.211  0.00  0.00    +0.000 OA
ATOM     26  C   UNL     1     113.464 127.268 139.259  0.00  0.00    +0.000 C 
ATOM     27  C   UNL     1     113.864 127.317 139.979  0.00  0.00    +0.000 C 
ATOM     28  C   UNL     1     114.052 128.055 140.297  0.00  0.00    +0.000 C 
ATOM     29  C   UNL     1     113.841 128.744 139.894  0.00  0.00    +0.000 C 
ATOM     30  C   UNL     1     113.442 128.694 139.174  0.00  0.00    +0.000 C 
BRANCH  26  31
ATOM     31  C   UNL     1     113.276 126.530 138.943  0.00  0.00    +0.000 C 
BRANCH  31  32
ATOM     32  O   UNL     1     113.505 126.341 138.173  0.00  0.00    +0.000 OA
BRANCH  32  38
ATOM     33  O   UNL     1     112.257 125.843 137.687  0.00  0.00    +0.000 OA
ATOM     34  O   UNL     1     114.292 125.101 137.420  0.00  0.00    +0.000 OA
ATOM     35  O   UNL     1     113.438 123.984 136.558  0.00  0.00    +0.000 OA
ATOM     36  O   UNL     1     111.796 124.106 136.448  0.00  0.00    +0.000 OA
ATOM     37  C   UNL     1     113.471 125.162 137.365  0.00  0.00    +0.000 C 
ATOM     38  C   UNL     1     113.077 125.782 137.742  0.00  0.00    +0.000 C 
ATOM     39  C   UNL     1     113.044 124.603 136.934  0.00  0.00    +0.000 C 
ATOM     40  C   UNL     1     112.222 124.665 136.879  0.00  0.00    +0.000 C 
ATOM     41  C   UNL     1     111.829 125.285 137.255  0.00  0.00    +0.000 C 
ATOM     42  C   UNL     1     111.009 125.345 137.200  0.00  0.00    +0.000 C 
ENDBRANCH  32  38
ENDBRANCH  31  32
ENDBRANCH  26  31
ENDBRANCH  21  30
ENDBRANCH   4  21
BRANCH   5  43
ATOM     43  O   UNL     1     108.911 129.377 137.046  0.00  0.00    +0.000 OA
BRANCH  43  52
ATOM     44  O   UNL     1     108.563 130.744 137.277  0.00  0.00    +0.000 OA
ATOM     45  O   UNL     1     107.936 130.985 134.895  0.00  0.00    +0.000 OA
ATOM     46  O   UNL     1     107.796 132.271 135.918  0.00  0.00    +0.000 OA
ATOM     47  O   UNL     1     108.493 129.538 135.458  0.00  0.00    +0.000 OA
ATOM     48  C   UNL     1     108.145 130.904 135.689  0.00  0.00    +0.000 C 
ATOM     49  C   UNL     1     108.075 131.547 136.201  0.00  0.00    +0.000 C 
ATOM     50  C   UNL     1     108.424 130.181 135.970  0.00  0.00    +0.000 C 
ATOM     51  C   UNL     1     108.284 131.467 136.995  0.00  0.00    +0.000 C 
ATOM     52  C   UNL     1     108.632 130.101 136.764  0.00  0.00    +0.000 C 
BRANCH  51  54
ATOM     53  O   UNL     1     107.858 132.012 138.244  0.00  0.00    +0.000 OA
ATOM     54  C   UNL     1     108.214 132.110 137.507  0.00  0.00    +0.000 C 
ENDBRANCH  51  54
ENDBRANCH  43  52
ENDBRANCH   5  43
TORSDOF 9
ENDMDL
MODEL 8
REMARK VINA RESULT:     -10.6      1.552      4.392
REMARK  Name = 13942388
REMARK  9 active torsions:
REMARK  status: ('A' for Active; 'I' for Inactive)
REMARK    1  A    between atoms: O_2  and  C_27
REMARK    2  A    between atoms: O_2  and  C_31
REMARK    3  A    between atoms: O_5  and  C_29
REMARK    4  A    between atoms: O_5  and  C_40
REMARK    5  A    between atoms: O_12  and  C_37
REMARK    6  A    between atoms: O_12  and  C_41
REMARK    7  A    between atoms: C_22  and  C_31
REMARK    8  A    between atoms: C_36  and  C_39
REMARK    9  A    between atoms: C_42  and  C_49
REMARK                            x       y       z     vdW  Elec       q    Type
REMARK                         _______ _______ _______ _____ _____    ______ ____
ROOT
ATOM      1  O   UNL     1     111.323 129.124 139.295  0.00  0.00    +0.000 OA
ATOM      2  O   UNL     1     113.467 129.905 138.336  0.00  0.00    +0.000 OA
ATOM      3  O   UNL     1     114.130 129.736 139.607  0.00  0.00    +0.000 OA
ATOM      4  C   UNL     1     112.079 129.602 138.181  0.00  0.00    +0.000 A 
ATOM      5  C   UNL     1     112.639 128.977 141.096  0.00  0.00    +0.000 A 
ATOM      6  C   UNL     1     111.364 129.342 138.501  0.00  0.00    +0.000 A 
ATOM      7  C   UNL     1     112.753 129.645 138.655  0.00  0.00    +0.000 A 
ATOM      8  C   UNL     1     112.711 129.426 139.451  0.00  0.00    +0.000 A 
ATOM      9  C   UNL     1     111.997 129.166 139.770  0.00  0.00    +0.000 A 
ATOM     10  C   UNL     1     111.941 128.935 140.596  0.00  0.00    +0.000 A 
ATOM     11  C   UNL     1     113.383 129.248 140.763  0.00  0.00    +0.000 A 
ATOM     12  C   UNL     1     113.419 129.475 139.934  0.00  0.00    +0.000 A 
ENDROOT
BRANCH   6  15
ATOM     13  O   UNL     1     109.400 127.788 137.125  0.00  0.00    +0.000 OA
ATOM     14  O   UNL     1     108.672 129.172 136.601  0.00  0.00    +0.000 OA
ATOM     15  C   UNL     1     110.692 129.300 138.026  0.00  0.00    +0.000 A 
ATOM     16  C   UNL     1     110.383 128.565 137.813  0.00  0.00    +0.000 A 
ATOM     17  C   UNL     1     110.327 129.992 137.763  0.00  0.00    +0.000 A 
ATOM     18  C   UNL     1     109.709 128.522 137.338  0.00  0.00    +0.000 A 
ATOM     19  C   UNL     1     109.655 129.950 137.289  0.00  0.00    +0.000 A 
ATOM     20  C   UNL     1     109.345 129.215 137.076  0.00  0.00    +0.000 A 
ENDBRANCH   6  15
BRANCH   4  21
ATOM     21  O   UNL     1     112.121 129.821 137.387  0.00  0.00    +0.000 OA
BRANCH  21  30
ATOM     22  O   UNL     1     112.811 128.650 136.950  0.00  0.00    +0.000 OA
ATOM     23  O   UNL     1     114.312 128.373 135.388  0.00  0.00    +0.000 OA
ATOM     24  O   UNL     1     114.026 129.994 135.264  0.00  0.00    +0.000 OA
ATOM     25  O   UNL     1     112.930 130.717 136.263  0.00  0.00    +0.000 OA
ATOM     26  C   UNL     1     113.359 128.288 136.450  0.00  0.00    +0.000 C 
ATOM     27  C   UNL     1     113.764 128.735 135.888  0.00  0.00    +0.000 C 
ATOM     28  C   UNL     1     113.621 129.546 135.826  0.00  0.00    +0.000 C 
ATOM     29  C   UNL     1     113.073 129.908 136.325  0.00  0.00    +0.000 C 
ATOM     30  C   UNL     1     112.669 129.459 136.887  0.00  0.00    +0.000 C 
BRANCH  26  31
ATOM     31  C   UNL     1     113.502 127.478 136.512  0.00  0.00    +0.000 C 
BRANCH  31  32
ATOM     32  O   UNL     1     112.874 126.944 136.489  0.00  0.00    +0.000 OA
BRANCH  32  38
ATOM     33  O   UNL     1     113.717 125.890 136.956  0.00  0.00    +0.000 OA
ATOM     34  O   UNL     1     111.734 125.836 136.046  0.00  0.00    +0.000 OA
ATOM     35  O   UNL     1     112.008 124.227 136.292  0.00  0.00    +0.000 OA
ATOM     36  O   UNL     1     113.422 123.727 136.980  0.00  0.00    +0.000 OA
ATOM     37  C   UNL     1     112.441 125.586 136.391  0.00  0.00    +0.000 C 
ATOM     38  C   UNL     1     113.011 126.140 136.612  0.00  0.00    +0.000 C 
ATOM     39  C   UNL     1     112.578 124.782 136.513  0.00  0.00    +0.000 C 
ATOM     40  C   UNL     1     113.285 124.531 136.858  0.00  0.00    +0.000 C 
ATOM     41  C   UNL     1     113.855 125.085 137.080  0.00  0.00    +0.000 C 
ATOM     42  C   UNL     1     114.561 124.835 137.424  0.00  0.00    +0.000 C 
ENDBRANCH  32  38
ENDBRANCH  31  32
ENDBRANCH  26  31
ENDBRANCH  21  30
ENDBRANCH   4  21
BRANCH   5  43
ATOM     43  O   UNL     1     112.595 128.758 141.890  0.00  0.00    +0.000 OA
BRANCH  43  52
ATOM     44  O   UNL     1     112.338 130.070 142.394  0.00  0.00    +0.000 OA
ATOM     45  O   UNL     1     110.878 129.109 144.147  0.00  0.00    +0.000 OA
ATOM     46  O   UNL     1     111.107 130.741 144.068  0.00  0.00    +0.000 OA
ATOM     47  O   UNL     1     111.622 128.117 143.058  0.00  0.00    +0.000 OA
ATOM     48  C   UNL     1     111.365 129.429 143.563  0.00  0.00    +0.000 C 
ATOM     49  C   UNL     1     111.479 130.245 143.523  0.00  0.00    +0.000 C 
ATOM     50  C   UNL     1     111.736 128.933 143.019  0.00  0.00    +0.000 C 
ATOM     51  C   UNL     1     111.966 130.566 142.939  0.00  0.00    +0.000 C 
ATOM     52  C   UNL     1     112.223 129.254 142.435  0.00  0.00    +0.000 C 
BRANCH  51  54
ATOM     53  O   UNL     1     112.829 131.685 142.735  0.00  0.00    +0.000 OA
ATOM     54  C   UNL     1     112.080 131.382 142.899  0.00  0.00    +0.000 C 
ENDBRANCH  51  54
ENDBRANCH  43  52
ENDBRANCH   5  43
TORSDOF 9
ENDMDL
MODEL 9
REMARK VINA RESULT:     -10.6      1.777      3.372
REMARK  Name = 13942388
REMARK  9 active torsions:
REMARK  status: ('A' for Active; 'I' for Inactive)
REMARK    1  A    between atoms: O_2  and  C_27
REMARK    2  A    between atoms: O_2  and  C_31
REMARK    3  A    between atoms: O_5  and  C_29
REMARK    4  A    between atoms: O_5  and  C_40
REMARK    5  A    between atoms: O_12  and  C_37
REMARK    6  A    between atoms: O_12  and  C_41
REMARK    7  A    between atoms: C_22  and  C_31
REMARK    8  A    between atoms: C_36  and  C_39
REMARK    9  A    between atoms: C_42  and  C_49
REMARK                            x       y       z     vdW  Elec       q    Type
REMARK                         _______ _______ _______ _____ _____    ______ ____
ROOT
ATOM      1  O   UNL     1     111.633 125.711 138.456  0.00  0.00    +0.000 OA
ATOM      2  O   UNL     1     110.755 127.461 136.943  0.00  0.00    +0.000 OA
ATOM      3  O   UNL     1     109.540 127.559 137.715  0.00  0.00    +0.000 OA
ATOM      4  C   UNL     1     111.791 126.547 137.309  0.00  0.00    +0.000 A 
ATOM      5  C   UNL     1     109.656 126.109 139.418  0.00  0.00    +0.000 A 
ATOM      6  C   UNL     1     112.084 125.963 137.813  0.00  0.00    +0.000 A 
ATOM      7  C   UNL     1     111.048 126.878 137.447  0.00  0.00    +0.000 A 
ATOM      8  C   UNL     1     110.597 126.624 138.091  0.00  0.00    +0.000 A 
ATOM      9  C   UNL     1     110.890 126.041 138.595  0.00  0.00    +0.000 A 
ATOM     10  C   UNL     1     110.431 125.768 139.268  0.00  0.00    +0.000 A 
ATOM     11  C   UNL     1     109.351 126.716 138.893  0.00  0.00    +0.000 A 
ATOM     12  C   UNL     1     109.825 126.976 138.225  0.00  0.00    +0.000 A 
ENDROOT
BRANCH   6  15
ATOM     13  O   UNL     1     114.847 125.714 138.496  0.00  0.00    +0.000 OA
ATOM     14  O   UNL     1     115.057 124.643 137.258  0.00  0.00    +0.000 OA
ATOM     15  C   UNL     1     112.826 125.634 137.674  0.00  0.00    +0.000 A 
ATOM     16  C   UNL     1     113.465 125.839 138.155  0.00  0.00    +0.000 A 
ATOM     17  C   UNL     1     112.931 125.098 137.055  0.00  0.00    +0.000 A 
ATOM     18  C   UNL     1     114.209 125.509 138.016  0.00  0.00    +0.000 A 
ATOM     19  C   UNL     1     113.674 124.768 136.917  0.00  0.00    +0.000 A 
ATOM     20  C   UNL     1     114.313 124.973 137.397  0.00  0.00    +0.000 A 
ENDBRANCH   6  15
BRANCH   4  21
ATOM     21  O   UNL     1     112.240 126.801 136.666  0.00  0.00    +0.000 OA
BRANCH  21  30
ATOM     22  O   UNL     1     112.677 128.018 137.272  0.00  0.00    +0.000 OA
ATOM     23  O   UNL     1     113.107 129.974 136.403  0.00  0.00    +0.000 OA
ATOM     24  O   UNL     1     112.665 129.126 135.059  0.00  0.00    +0.000 OA
ATOM     25  O   UNL     1     112.232 127.539 135.190  0.00  0.00    +0.000 OA
ATOM     26  C   UNL     1     112.894 128.811 137.206  0.00  0.00    +0.000 C 
ATOM     27  C   UNL     1     112.890 129.181 136.469  0.00  0.00    +0.000 C 
ATOM     28  C   UNL     1     112.669 128.756 135.796  0.00  0.00    +0.000 C 
ATOM     29  C   UNL     1     112.453 127.963 135.862  0.00  0.00    +0.000 C 
ATOM     30  C   UNL     1     112.457 127.594 136.600  0.00  0.00    +0.000 C 
BRANCH  26  31
ATOM     31  C   UNL     1     113.115 129.236 137.878  0.00  0.00    +0.000 C 
BRANCH  31  32
ATOM     32  O   UNL     1     112.624 129.244 138.541  0.00  0.00    +0.000 OA
BRANCH  32  38
ATOM     33  O   UNL     1     113.677 129.684 139.401  0.00  0.00    +0.000 OA
ATOM     34  O   UNL     1     111.510 129.863 139.589  0.00  0.00    +0.000 OA
ATOM     35  O   UNL     1     112.006 130.613 140.973  0.00  0.00    +0.000 OA
ATOM     36  O   UNL     1     113.616 130.743 141.309  0.00  0.00    +0.000 OA
ATOM     37  C   UNL     1     112.316 129.928 139.757  0.00  0.00    +0.000 C 
ATOM     38  C   UNL     1     112.873 129.618 139.233  0.00  0.00    +0.000 C 
ATOM     39  C   UNL     1     112.563 130.303 140.449  0.00  0.00    +0.000 C 
ATOM     40  C   UNL     1     113.369 130.368 140.617  0.00  0.00    +0.000 C 
ATOM     41  C   UNL     1     113.926 130.058 140.093  0.00  0.00    +0.000 C 
ATOM     42  C   UNL     1     114.731 130.123 140.261  0.00  0.00    +0.000 C 
ENDBRANCH  32  38
ENDBRANCH  31  32
ENDBRANCH  26  31
ENDBRANCH  21  30
ENDBRANCH   4  21
BRANCH   5  43
ATOM     43  O   UNL     1     109.208 125.854 140.062  0.00  0.00    +0.000 OA
BRANCH  43  52
ATOM     44  O   UNL     1     109.706 126.805 141.005  0.00  0.00    +0.000 OA
ATOM     45  O   UNL     1     107.454 126.978 142.019  0.00  0.00    +0.000 OA
ATOM     46  O   UNL     1     108.702 127.872 142.623  0.00  0.00    +0.000 OA
ATOM     47  O   UNL     1     107.707 125.969 140.738  0.00  0.00    +0.000 OA
ATOM     48  C   UNL     1     108.205 126.920 141.681  0.00  0.00    +0.000 C 
ATOM     49  C   UNL     1     108.829 127.368 141.983  0.00  0.00    +0.000 C 
ATOM     50  C   UNL     1     108.331 126.416 141.041  0.00  0.00    +0.000 C 
ATOM     51  C   UNL     1     109.579 127.310 141.645  0.00  0.00    +0.000 C 
ATOM     52  C   UNL     1     109.081 126.358 140.703  0.00  0.00    +0.000 C 
BRANCH  51  54
ATOM     53  O   UNL     1     110.922 127.394 142.123  0.00  0.00    +0.000 OA
ATOM     54  C   UNL     1     110.203 127.757 141.947  0.00  0.00    +0.000 C 
ENDBRANCH  51  54
ENDBRANCH  43  52
ENDBRANCH   5  43
TORSDOF 9
ENDMDL
MODEL 10
REMARK VINA RESULT:     -10.6      1.894      2.731
REMARK  Name = 13942388
REMARK  9 active torsions:
REMARK  status: ('A' for Active; 'I' for Inactive)
REMARK    1  A    between atoms: O_2  and  C_27
REMARK    2  A    between atoms: O_2  and  C_31
REMARK    3  A    between atoms: O_5  and  C_29
REMARK    4  A    between atoms: O_5  and  C_40
REMARK    5  A    between atoms: O_12  and  C_37
REMARK    6  A    between atoms: O_12  and  C_41
REMARK    7  A    between atoms: C_22  and  C_31
REMARK    8  A    between atoms: C_36  and  C_39
REMARK    9  A    between atoms: C_42  and  C_49
REMARK                            x       y       z     vdW  Elec       q    Type
REMARK                         _______ _______ _______ _____ _____    ______ ____
ROOT
ATOM      1  O   UNL     1     113.364 128.466 137.857  0.00  0.00    +0.000 OA
ATOM      2  O   UNL     1     111.189 127.444 137.265  0.00  0.00    +0.000 OA
ATOM      3  O   UNL     1     110.946 127.095 138.644  0.00  0.00    +0.000 OA
ATOM      4  C   UNL     1     112.385 128.122 136.875  0.00  0.00    +0.000 A 
ATOM      5  C   UNL     1     112.684 127.787 139.875  0.00  0.00    +0.000 A 
ATOM      6  C   UNL     1     113.110 128.463 137.073  0.00  0.00    +0.000 A 
ATOM      7  C   UNL     1     111.914 127.785 137.462  0.00  0.00    +0.000 A 
ATOM      8  C   UNL     1     112.169 127.788 138.248  0.00  0.00    +0.000 A 
ATOM      9  C   UNL     1     112.894 128.128 138.445  0.00  0.00    +0.000 A 
ATOM     10  C   UNL     1     113.170 128.138 139.258  0.00  0.00    +0.000 A 
ATOM     11  C   UNL     1     111.929 127.433 139.670  0.00  0.00    +0.000 A 
ATOM     12  C   UNL     1     111.669 127.433 138.850  0.00  0.00    +0.000 A 
ENDROOT
BRANCH   6  15
ATOM     13  O   UNL     1     114.230 130.777 135.824  0.00  0.00    +0.000 OA
ATOM     14  O   UNL     1     114.992 129.814 134.723  0.00  0.00    +0.000 OA
ATOM     15  C   UNL     1     113.580 128.800 136.486  0.00  0.00    +0.000 A 
ATOM     16  C   UNL     1     113.669 129.619 136.449  0.00  0.00    +0.000 A 
ATOM     17  C   UNL     1     113.962 128.319 135.935  0.00  0.00    +0.000 A 
ATOM     18  C   UNL     1     114.140 129.958 135.861  0.00  0.00    +0.000 A 
ATOM     19  C   UNL     1     114.432 128.656 135.347  0.00  0.00    +0.000 A 
ATOM     20  C   UNL     1     114.521 129.475 135.311  0.00  0.00    +0.000 A 
ENDBRANCH   6  15
BRANCH   4  21
ATOM     21  O   UNL     1     112.130 128.119 136.091  0.00  0.00    +0.000 OA
BRANCH  21  30
ATOM     22  O   UNL     1     111.226 129.217 136.214  0.00  0.00    +0.000 OA
ATOM     23  O   UNL     1     109.293 129.591 135.269  0.00  0.00    +0.000 OA
ATOM     24  O   UNL     1     109.684 128.129 134.612  0.00  0.00    +0.000 OA
ATOM     25  O   UNL     1     111.103 127.393 135.023  0.00  0.00    +0.000 OA
ATOM     26  C   UNL     1     110.516 129.585 136.008  0.00  0.00    +0.000 C 
ATOM     27  C   UNL     1     110.003 129.223 135.474  0.00  0.00    +0.000 C 
ATOM     28  C   UNL     1     110.198 128.491 135.146  0.00  0.00    +0.000 C 
ATOM     29  C   UNL     1     110.908 128.123 135.351  0.00  0.00    +0.000 C 
ATOM     30  C   UNL     1     111.421 128.487 135.885  0.00  0.00    +0.000 C 
BRANCH  26  31
ATOM     31  C   UNL     1     110.320 130.316 136.336  0.00  0.00    +0.000 C 
BRANCH  31  32
ATOM     32  O   UNL     1     110.325 130.417 137.155  0.00  0.00    +0.000 OA
BRANCH  32  38
ATOM     33  O   UNL     1     110.369 131.835 136.989  0.00  0.00    +0.000 OA
ATOM     34  O   UNL     1     110.107 130.613 138.779  0.00  0.00    +0.000 OA
ATOM     35  O   UNL     1     110.041 132.130 139.425  0.00  0.00    +0.000 OA
ATOM     36  O   UNL     1     110.194 133.450 138.447  0.00  0.00    +0.000 OA
ATOM     37  C   UNL     1     110.183 131.274 138.289  0.00  0.00    +0.000 C 
ATOM     38  C   UNL     1     110.292 131.175 137.477  0.00  0.00    +0.000 C 
ATOM     39  C   UNL     1     110.150 132.032 138.613  0.00  0.00    +0.000 C 
ATOM     40  C   UNL     1     110.227 132.692 138.124  0.00  0.00    +0.000 C 
ATOM     41  C   UNL     1     110.336 132.594 137.312  0.00  0.00    +0.000 C 
ATOM     42  C   UNL     1     110.412 133.254 136.824  0.00  0.00    +0.000 C 
ENDBRANCH  32  38
ENDBRANCH  31  32
ENDBRANCH  26  31
ENDBRANCH  21  30
ENDBRANCH   4  21
BRANCH   5  43
ATOM     43  O   UNL     1     112.940 127.792 140.659  0.00  0.00    +0.000 OA
BRANCH  43  52
ATOM     44  O   UNL     1     112.677 129.147 141.029  0.00  0.00    +0.000 OA
ATOM     45  O   UNL     1     111.599 128.365 143.116  0.00  0.00    +0.000 OA
ATOM     46  O   UNL     1     111.694 129.980 142.791  0.00  0.00    +0.000 OA
ATOM     47  O   UNL     1     112.222 127.271 142.050  0.00  0.00    +0.000 OA
ATOM     48  C   UNL     1     111.958 128.626 142.420  0.00  0.00    +0.000 C 
ATOM     49  C   UNL     1     112.006 129.433 142.258  0.00  0.00    +0.000 C 
ATOM     50  C   UNL     1     112.269 128.078 141.888  0.00  0.00    +0.000 C 
ATOM     51  C   UNL     1     112.365 129.694 141.562  0.00  0.00    +0.000 C 
ATOM     52  C   UNL     1     112.629 128.339 141.192  0.00  0.00    +0.000 C 
BRANCH  51  54
ATOM     53  O   UNL     1     113.126 130.828 141.145  0.00  0.00    +0.000 OA
ATOM     54  C   UNL     1     112.412 130.501 141.400  0.00  0.00    +0.000 C 
ENDBRANCH  51  54
ENDBRANCH  43  52
ENDBRANCH   5  43
TORSDOF 9
ENDMDL
