MODEL 1
REMARK VINA RESULT:      -8.3      0.000      0.000
REMARK  Name = 44258628
REMARK  4 active torsions:
REMARK  status: ('A' for Active; 'I' for Inactive)
REMARK    1  A    between atoms: O_2  and  C_14
REMARK    2  A    between atoms: O_3  and  C_18
REMARK    3  A    between atoms: O_5  and  C_20
REMARK    4  A    between atoms: C_12  and  C_13
REMARK                            x       y       z     vdW  Elec       q    Type
REMARK                         _______ _______ _______ _____ _____    ______ ____
ROOT
ATOM      1  O   UNL     1     106.581 125.283 146.474  0.00  0.00    +0.000 OA
ATOM      2  O   UNL     1     105.957 127.821 145.230  0.00  0.00    +0.000 OA
ATOM      3  O   UNL     1     105.549 125.388 143.787  0.00  0.00    +0.000 OA
ATOM      4  O   UNL     1     106.472 127.811 146.578  0.00  0.00    +0.000 OA
ATOM      5  C   UNL     1     106.265 126.567 145.843  0.00  0.00    +0.000 A 
ATOM      6  C   UNL     1     106.299 125.743 145.806  0.00  0.00    +0.000 A 
ATOM      7  C   UNL     1     106.831 125.686 147.191  0.00  0.00    +0.000 A 
ATOM      8  C   UNL     1     106.060 125.350 145.120  0.00  0.00    +0.000 A 
ATOM      9  C   UNL     1     105.992 126.997 145.194  0.00  0.00    +0.000 A 
ATOM     10  C   UNL     1     106.510 126.987 146.550  0.00  0.00    +0.000 A 
ATOM     11  C   UNL     1     106.796 126.545 147.229  0.00  0.00    +0.000 A 
ATOM     12  C   UNL     1     105.753 126.605 144.509  0.00  0.00    +0.000 A 
ATOM     13  C   UNL     1     105.788 125.781 144.472  0.00  0.00    +0.000 A 
ENDROOT
BRANCH   7  16
ATOM     14  O   UNL     1     108.447 125.408 147.376  0.00  0.00    +0.000 OA
ATOM     15  O   UNL     1     106.305 124.233 149.594  0.00  0.00    +0.000 OA
ATOM     16  C   UNL     1     107.104 125.253 147.838  0.00  0.00    +0.000 A 
ATOM     17  C   UNL     1     106.569 124.959 148.393  0.00  0.00    +0.000 A 
ATOM     18  C   UNL     1     107.912 125.114 147.931  0.00  0.00    +0.000 A 
ATOM     19  C   UNL     1     106.840 124.526 149.039  0.00  0.00    +0.000 A 
ATOM     20  C   UNL     1     108.184 124.681 148.579  0.00  0.00    +0.000 A 
ATOM     21  C   UNL     1     107.649 124.387 149.132  0.00  0.00    +0.000 A 
BRANCH  17  22
ATOM     22  O   UNL     1     105.761 125.098 148.300  0.00  0.00    +0.000 OA
ATOM     23  C   UNL     1     105.225 124.808 148.856  0.00  0.00    +0.000 C 
ENDBRANCH  17  22
ENDBRANCH   7  16
BRANCH   8  24
ATOM     24  O   UNL     1     106.095 124.527 145.084  0.00  0.00    +0.000 OA
ATOM     25  C   UNL     1     105.411 124.092 144.931  0.00  0.00    +0.000 C 
ENDBRANCH   8  24
BRANCH  12  26
ATOM     26  O   UNL     1     105.480 127.035 143.860  0.00  0.00    +0.000 OA
ATOM     27  C   UNL     1     106.000 127.249 143.257  0.00  0.00    +0.000 C 
ENDBRANCH  12  26
TORSDOF 4
ENDMDL
MODEL 2
REMARK VINA RESULT:      -8.3      2.531      3.646
REMARK  Name = 44258628
REMARK  4 active torsions:
REMARK  status: ('A' for Active; 'I' for Inactive)
REMARK    1  A    between atoms: O_2  and  C_14
REMARK    2  A    between atoms: O_3  and  C_18
REMARK    3  A    between atoms: O_5  and  C_20
REMARK    4  A    between atoms: C_12  and  C_13
REMARK                            x       y       z     vdW  Elec       q    Type
REMARK                         _______ _______ _______ _____ _____    ______ ____
ROOT
ATOM      1  O   UNL     1     104.654 124.201 146.805  0.00  0.00    +0.000 OA
ATOM      2  O   UNL     1     101.945 125.048 147.373  0.00  0.00    +0.000 OA
ATOM      3  O   UNL     1     102.405 122.739 145.754  0.00  0.00    +0.000 OA
ATOM      4  O   UNL     1     103.044 125.808 147.919  0.00  0.00    +0.000 OA
ATOM      5  C   UNL     1     103.281 124.629 147.092  0.00  0.00    +0.000 A 
ATOM      6  C   UNL     1     103.804 124.103 146.727  0.00  0.00    +0.000 A 
ATOM      7  C   UNL     1     104.964 124.855 147.269  0.00  0.00    +0.000 A 
ATOM      8  C   UNL     1     103.511 123.473 146.282  0.00  0.00    +0.000 A 
ATOM      9  C   UNL     1     102.467 124.523 147.009  0.00  0.00    +0.000 A 
ATOM     10  C   UNL     1     103.573 125.287 147.558  0.00  0.00    +0.000 A 
ATOM     11  C   UNL     1     104.420 125.403 147.648  0.00  0.00    +0.000 A 
ATOM     12  C   UNL     1     102.175 123.894 146.564  0.00  0.00    +0.000 A 
ATOM     13  C   UNL     1     102.698 123.369 146.199  0.00  0.00    +0.000 A 
ENDROOT
BRANCH   7  16
ATOM     14  O   UNL     1     105.748 124.236 148.582  0.00  0.00    +0.000 OA
ATOM     15  O   UNL     1     107.438 125.885 146.277  0.00  0.00    +0.000 OA
ATOM     16  C   UNL     1     105.779 124.958 147.349  0.00  0.00    +0.000 A 
ATOM     17  C   UNL     1     106.202 125.370 146.773  0.00  0.00    +0.000 A 
ATOM     18  C   UNL     1     106.171 124.648 148.006  0.00  0.00    +0.000 A 
ATOM     19  C   UNL     1     107.015 125.473 146.853  0.00  0.00    +0.000 A 
ATOM     20  C   UNL     1     106.986 124.751 148.086  0.00  0.00    +0.000 A 
ATOM     21  C   UNL     1     107.408 125.163 147.510  0.00  0.00    +0.000 A 
BRANCH  17  22
ATOM     22  O   UNL     1     105.810 125.680 146.116  0.00  0.00    +0.000 OA
ATOM     23  C   UNL     1     106.241 126.018 145.499  0.00  0.00    +0.000 C 
ENDBRANCH  17  22
ENDBRANCH   7  16
BRANCH   8  24
ATOM     24  O   UNL     1     104.033 122.948 145.918  0.00  0.00    +0.000 OA
ATOM     25  C   UNL     1     103.990 122.822 145.104  0.00  0.00    +0.000 C 
ENDBRANCH   8  24
BRANCH  12  26
ATOM     26  O   UNL     1     101.361 123.789 146.481  0.00  0.00    +0.000 OA
ATOM     27  C   UNL     1     100.953 123.295 147.000  0.00  0.00    +0.000 C 
ENDBRANCH  12  26
TORSDOF 4
ENDMDL
MODEL 3
REMARK VINA RESULT:      -8.1      9.049     11.357
REMARK  Name = 44258628
REMARK  4 active torsions:
REMARK  status: ('A' for Active; 'I' for Inactive)
REMARK    1  A    between atoms: O_2  and  C_14
REMARK    2  A    between atoms: O_3  and  C_18
REMARK    3  A    between atoms: O_5  and  C_20
REMARK    4  A    between atoms: C_12  and  C_13
REMARK                            x       y       z     vdW  Elec       q    Type
REMARK                         _______ _______ _______ _____ _____    ______ ____
ROOT
ATOM      1  O   UNL     1     111.246 125.706 137.017  0.00  0.00    +0.000 OA
ATOM      2  O   UNL     1     109.329 126.477 134.989  0.00  0.00    +0.000 OA
ATOM      3  O   UNL     1     108.973 127.344 137.689  0.00  0.00    +0.000 OA
ATOM      4  O   UNL     1     110.454 125.655 134.612  0.00  0.00    +0.000 OA
ATOM      5  C   UNL     1     110.274 126.097 135.991  0.00  0.00    +0.000 A 
ATOM      6  C   UNL     1     110.530 126.116 136.777  0.00  0.00    +0.000 A 
ATOM      7  C   UNL     1     111.702 125.272 136.432  0.00  0.00    +0.000 A 
ATOM      8  C   UNL     1     110.096 126.531 137.342  0.00  0.00    +0.000 A 
ATOM      9  C   UNL     1     109.584 126.495 135.774  0.00  0.00    +0.000 A 
ATOM     10  C   UNL     1     110.717 125.669 135.394  0.00  0.00    +0.000 A 
ATOM     11  C   UNL     1     111.436 125.253 135.614  0.00  0.00    +0.000 A 
ATOM     12  C   UNL     1     109.151 126.910 136.339  0.00  0.00    +0.000 A 
ATOM     13  C   UNL     1     109.407 126.928 137.124  0.00  0.00    +0.000 A 
ENDROOT
BRANCH   7  16
ATOM     14  O   UNL     1     111.640 123.675 136.843  0.00  0.00    +0.000 OA
ATOM     15  O   UNL     1     114.520 125.284 136.906  0.00  0.00    +0.000 OA
ATOM     16  C   UNL     1     112.391 124.875 136.653  0.00  0.00    +0.000 A 
ATOM     17  C   UNL     1     113.111 125.278 136.669  0.00  0.00    +0.000 A 
ATOM     18  C   UNL     1     112.360 124.077 136.858  0.00  0.00    +0.000 A 
ATOM     19  C   UNL     1     113.800 124.882 136.890  0.00  0.00    +0.000 A 
ATOM     20  C   UNL     1     113.050 123.681 137.080  0.00  0.00    +0.000 A 
ATOM     21  C   UNL     1     113.769 124.083 137.096  0.00  0.00    +0.000 A 
BRANCH  17  22
ATOM     22  O   UNL     1     113.142 126.076 136.464  0.00  0.00    +0.000 OA
ATOM     23  C   UNL     1     113.851 126.493 136.532  0.00  0.00    +0.000 C 
ENDBRANCH  17  22
ENDBRANCH   7  16
BRANCH   8  24
ATOM     24  O   UNL     1     110.351 126.550 138.126  0.00  0.00    +0.000 OA
ATOM     25  C   UNL     1     109.876 126.236 138.722  0.00  0.00    +0.000 C 
ENDBRANCH   8  24
BRANCH  12  26
ATOM     26  O   UNL     1     108.461 127.307 136.121  0.00  0.00    +0.000 OA
ATOM     27  C   UNL     1     108.501 128.084 135.848  0.00  0.00    +0.000 C 
ENDBRANCH  12  26
TORSDOF 4
ENDMDL
MODEL 4
REMARK VINA RESULT:      -8.1      9.526     11.310
REMARK  Name = 44258628
REMARK  4 active torsions:
REMARK  status: ('A' for Active; 'I' for Inactive)
REMARK    1  A    between atoms: O_2  and  C_14
REMARK    2  A    between atoms: O_3  and  C_18
REMARK    3  A    between atoms: O_5  and  C_20
REMARK    4  A    between atoms: C_12  and  C_13
REMARK                            x       y       z     vdW  Elec       q    Type
REMARK                         _______ _______ _______ _____ _____    ______ ____
ROOT
ATOM      1  O   UNL     1     110.568 127.267 136.086  0.00  0.00    +0.000 OA
ATOM      2  O   UNL     1     107.989 128.533 135.729  0.00  0.00    +0.000 OA
ATOM      3  O   UNL     1     110.382 130.061 135.404  0.00  0.00    +0.000 OA
ATOM      4  O   UNL     1     108.039 127.131 136.070  0.00  0.00    +0.000 OA
ATOM      5  C   UNL     1     109.263 127.910 135.905  0.00  0.00    +0.000 A 
ATOM      6  C   UNL     1     110.087 127.957 135.909  0.00  0.00    +0.000 A 
ATOM      7  C   UNL     1     110.185 126.517 136.260  0.00  0.00    +0.000 A 
ATOM      8  C   UNL     1     110.460 128.674 135.742  0.00  0.00    +0.000 A 
ATOM      9  C   UNL     1     108.812 128.580 135.733  0.00  0.00    +0.000 A 
ATOM     10  C   UNL     1     108.864 127.170 136.077  0.00  0.00    +0.000 A 
ATOM     11  C   UNL     1     109.327 126.468 136.256  0.00  0.00    +0.000 A 
ATOM     12  C   UNL     1     109.185 129.296 135.567  0.00  0.00    +0.000 A 
ATOM     13  C   UNL     1     110.010 129.343 135.571  0.00  0.00    +0.000 A 
ENDROOT
BRANCH   7  16
ATOM     14  O   UNL     1     110.672 125.517 135.042  0.00  0.00    +0.000 OA
ATOM     15  O   UNL     1     111.511 124.848 138.163  0.00  0.00    +0.000 OA
ATOM     16  C   UNL     1     110.638 125.850 136.431  0.00  0.00    +0.000 A 
ATOM     17  C   UNL     1     110.848 125.682 137.211  0.00  0.00    +0.000 A 
ATOM     18  C   UNL     1     110.882 125.349 135.822  0.00  0.00    +0.000 A 
ATOM     19  C   UNL     1     111.301 125.015 137.382  0.00  0.00    +0.000 A 
ATOM     20  C   UNL     1     111.335 124.681 135.994  0.00  0.00    +0.000 A 
ATOM     21  C   UNL     1     111.545 124.514 136.773  0.00  0.00    +0.000 A 
BRANCH  17  22
ATOM     22  O   UNL     1     110.605 126.183 137.821  0.00  0.00    +0.000 OA
ATOM     23  C   UNL     1     110.836 126.030 138.598  0.00  0.00    +0.000 C 
ENDBRANCH  17  22
ENDBRANCH   7  16
BRANCH   8  24
ATOM     24  O   UNL     1     111.283 128.722 135.746  0.00  0.00    +0.000 OA
ATOM     25  C   UNL     1     111.687 128.937 135.061  0.00  0.00    +0.000 C 
ENDBRANCH   8  24
BRANCH  12  26
ATOM     26  O   UNL     1     108.735 129.966 135.395  0.00  0.00    +0.000 OA
ATOM     27  C   UNL     1     108.509 130.478 136.001  0.00  0.00    +0.000 C 
ENDBRANCH  12  26
TORSDOF 4
ENDMDL
MODEL 5
REMARK VINA RESULT:      -7.9      2.007      3.969
REMARK  Name = 44258628
REMARK  4 active torsions:
REMARK  status: ('A' for Active; 'I' for Inactive)
REMARK    1  A    between atoms: O_2  and  C_14
REMARK    2  A    between atoms: O_3  and  C_18
REMARK    3  A    between atoms: O_5  and  C_20
REMARK    4  A    between atoms: C_12  and  C_13
REMARK                            x       y       z     vdW  Elec       q    Type
REMARK                         _______ _______ _______ _____ _____    ______ ____
ROOT
ATOM      1  O   UNL     1     105.042 124.318 147.355  0.00  0.00    +0.000 OA
ATOM      2  O   UNL     1     107.277 125.774 146.232  0.00  0.00    +0.000 OA
ATOM      3  O   UNL     1     107.431 124.767 148.902  0.00  0.00    +0.000 OA
ATOM      4  O   UNL     1     106.099 125.570 145.425  0.00  0.00    +0.000 OA
ATOM      5  C   UNL     1     106.175 125.055 146.788  0.00  0.00    +0.000 A 
ATOM      6  C   UNL     1     105.833 124.647 147.420  0.00  0.00    +0.000 A 
ATOM      7  C   UNL     1     104.601 124.414 146.624  0.00  0.00    +0.000 A 
ATOM      8  C   UNL     1     106.252 124.551 148.124  0.00  0.00    +0.000 A 
ATOM      9  C   UNL     1     106.936 125.367 146.863  0.00  0.00    +0.000 A 
ATOM     10  C   UNL     1     105.749 125.161 146.051  0.00  0.00    +0.000 A 
ATOM     11  C   UNL     1     104.957 124.839 145.966  0.00  0.00    +0.000 A 
ATOM     12  C   UNL     1     107.354 125.271 147.567  0.00  0.00    +0.000 A 
ATOM     13  C   UNL     1     107.012 124.863 148.198  0.00  0.00    +0.000 A 
ENDROOT
BRANCH   7  16
ATOM     14  O   UNL     1     104.376 122.950 145.896  0.00  0.00    +0.000 OA
ATOM     15  O   UNL     1     101.786 124.628 147.067  0.00  0.00    +0.000 OA
ATOM     16  C   UNL     1     103.841 124.101 146.553  0.00  0.00    +0.000 A 
ATOM     17  C   UNL     1     103.193 124.521 146.845  0.00  0.00    +0.000 A 
ATOM     18  C   UNL     1     103.728 123.370 146.189  0.00  0.00    +0.000 A 
ATOM     19  C   UNL     1     102.434 124.208 146.774  0.00  0.00    +0.000 A 
ATOM     20  C   UNL     1     102.967 123.057 146.118  0.00  0.00    +0.000 A 
ATOM     21  C   UNL     1     102.321 123.476 146.410  0.00  0.00    +0.000 A 
BRANCH  17  22
ATOM     22  O   UNL     1     103.306 125.252 147.209  0.00  0.00    +0.000 OA
ATOM     23  C   UNL     1     102.705 125.582 147.669  0.00  0.00    +0.000 C 
ENDBRANCH  17  22
ENDBRANCH   7  16
BRANCH   8  24
ATOM     24  O   UNL     1     105.910 124.143 148.755  0.00  0.00    +0.000 OA
ATOM     25  C   UNL     1     105.823 124.514 149.486  0.00  0.00    +0.000 C 
ENDBRANCH   8  24
BRANCH  12  26
ATOM     26  O   UNL     1     108.114 125.582 147.641  0.00  0.00    +0.000 OA
ATOM     27  C   UNL     1     108.767 125.079 147.657  0.00  0.00    +0.000 C 
ENDBRANCH  12  26
TORSDOF 4
ENDMDL
MODEL 6
REMARK VINA RESULT:      -7.9      9.575     12.032
REMARK  Name = 44258628
REMARK  4 active torsions:
REMARK  status: ('A' for Active; 'I' for Inactive)
REMARK    1  A    between atoms: O_2  and  C_14
REMARK    2  A    between atoms: O_3  and  C_18
REMARK    3  A    between atoms: O_5  and  C_20
REMARK    4  A    between atoms: C_12  and  C_13
REMARK                            x       y       z     vdW  Elec       q    Type
REMARK                         _______ _______ _______ _____ _____    ______ ____
ROOT
ATOM      1  O   UNL     1     111.715 126.171 136.170  0.00  0.00    +0.000 OA
ATOM      2  O   UNL     1     113.308 123.830 136.771  0.00  0.00    +0.000 OA
ATOM      3  O   UNL     1     114.569 126.381 136.501  0.00  0.00    +0.000 OA
ATOM      4  O   UNL     1     111.881 123.683 136.613  0.00  0.00    +0.000 OA
ATOM      5  C   UNL     1     112.523 124.987 136.474  0.00  0.00    +0.000 A 
ATOM      6  C   UNL     1     112.472 125.798 136.330  0.00  0.00    +0.000 A 
ATOM      7  C   UNL     1     111.001 125.692 136.159  0.00  0.00    +0.000 A 
ATOM      8  C   UNL     1     113.154 126.262 136.339  0.00  0.00    +0.000 A 
ATOM      9  C   UNL     1     113.257 124.641 136.627  0.00  0.00    +0.000 A 
ATOM     10  C   UNL     1     111.821 124.493 136.468  0.00  0.00    +0.000 A 
ATOM     11  C   UNL     1     111.054 124.847 136.309  0.00  0.00    +0.000 A 
ATOM     12  C   UNL     1     113.938 125.105 136.636  0.00  0.00    +0.000 A 
ATOM     13  C   UNL     1     113.887 125.917 136.492  0.00  0.00    +0.000 A 
ENDROOT
BRANCH   7  16
ATOM     14  O   UNL     1     110.428 125.764 134.613  0.00  0.00    +0.000 OA
ATOM     15  O   UNL     1     108.647 127.015 137.093  0.00  0.00    +0.000 OA
ATOM     16  C   UNL     1     110.269 126.041 136.006  0.00  0.00    +0.000 A 
ATOM     17  C   UNL     1     109.823 126.354 136.626  0.00  0.00    +0.000 A 
ATOM     18  C   UNL     1     109.983 126.077 135.233  0.00  0.00    +0.000 A 
ATOM     19  C   UNL     1     109.092 126.702 136.473  0.00  0.00    +0.000 A 
ATOM     20  C   UNL     1     109.250 126.426 135.080  0.00  0.00    +0.000 A 
ATOM     21  C   UNL     1     108.805 126.738 135.699  0.00  0.00    +0.000 A 
BRANCH  17  22
ATOM     22  O   UNL     1     110.109 126.318 137.399  0.00  0.00    +0.000 OA
ATOM     23  C   UNL     1     109.618 126.515 138.031  0.00  0.00    +0.000 C 
ENDBRANCH  17  22
ENDBRANCH   7  16
BRANCH   8  24
ATOM     24  O   UNL     1     113.103 127.073 136.195  0.00  0.00    +0.000 OA
ATOM     25  C   UNL     1     113.343 127.610 136.773  0.00  0.00    +0.000 C 
ENDBRANCH   8  24
BRANCH  12  26
ATOM     26  O   UNL     1     114.672 124.759 136.789  0.00  0.00    +0.000 OA
ATOM     27  C   UNL     1     114.945 124.696 137.564  0.00  0.00    +0.000 C 
ENDBRANCH  12  26
TORSDOF 4
ENDMDL
MODEL 7
REMARK VINA RESULT:      -7.7      2.310      3.843
REMARK  Name = 44258628
REMARK  4 active torsions:
REMARK  status: ('A' for Active; 'I' for Inactive)
REMARK    1  A    between atoms: O_2  and  C_14
REMARK    2  A    between atoms: O_3  and  C_18
REMARK    3  A    between atoms: O_5  and  C_20
REMARK    4  A    between atoms: C_12  and  C_13
REMARK                            x       y       z     vdW  Elec       q    Type
REMARK                         _______ _______ _______ _____ _____    ______ ____
ROOT
ATOM      1  O   UNL     1     104.469 124.655 145.896  0.00  0.00    +0.000 OA
ATOM      2  O   UNL     1     106.682 125.087 147.712  0.00  0.00    +0.000 OA
ATOM      3  O   UNL     1     106.674 126.353 145.150  0.00  0.00    +0.000 OA
ATOM      4  O   UNL     1     105.596 124.229 148.123  0.00  0.00    +0.000 OA
ATOM      5  C   UNL     1     105.591 124.875 146.814  0.00  0.00    +0.000 A 
ATOM      6  C   UNL     1     105.225 125.016 146.087  0.00  0.00    +0.000 A 
ATOM      7  C   UNL     1     104.088 124.141 146.470  0.00  0.00    +0.000 A 
ATOM      8  C   UNL     1     105.587 125.509 145.533  0.00  0.00    +0.000 A 
ATOM      9  C   UNL     1     106.317 125.228 146.985  0.00  0.00    +0.000 A 
ATOM     10  C   UNL     1     105.224 124.364 147.399  0.00  0.00    +0.000 A 
ATOM     11  C   UNL     1     104.468 123.994 147.227  0.00  0.00    +0.000 A 
ATOM     12  C   UNL     1     106.678 125.720 146.431  0.00  0.00    +0.000 A 
ATOM     13  C   UNL     1     106.312 125.860 145.704  0.00  0.00    +0.000 A 
ENDROOT
BRANCH   7  16
ATOM     14  O   UNL     1     104.036 122.740 145.600  0.00  0.00    +0.000 OA
ATOM     15  O   UNL     1     101.236 124.140 146.642  0.00  0.00    +0.000 OA
ATOM     16  C   UNL     1     103.362 123.790 146.295  0.00  0.00    +0.000 A 
ATOM     17  C   UNL     1     102.662 124.140 146.556  0.00  0.00    +0.000 A 
ATOM     18  C   UNL     1     103.336 123.089 145.860  0.00  0.00    +0.000 A 
ATOM     19  C   UNL     1     101.936 123.790 146.382  0.00  0.00    +0.000 A 
ATOM     20  C   UNL     1     102.609 122.739 145.686  0.00  0.00    +0.000 A 
ATOM     21  C   UNL     1     101.910 123.089 145.946  0.00  0.00    +0.000 A 
BRANCH  17  22
ATOM     22  O   UNL     1     102.687 124.841 146.991  0.00  0.00    +0.000 OA
ATOM     23  C   UNL     1     102.015 125.106 147.388  0.00  0.00    +0.000 C 
ENDBRANCH  17  22
ENDBRANCH   7  16
BRANCH   8  24
ATOM     24  O   UNL     1     105.222 125.649 144.806  0.00  0.00    +0.000 OA
ATOM     25  C   UNL     1     105.628 125.498 144.105  0.00  0.00    +0.000 C 
ENDBRANCH   8  24
BRANCH  12  26
ATOM     26  O   UNL     1     107.404 126.072 146.603  0.00  0.00    +0.000 OA
ATOM     27  C   UNL     1     107.429 126.807 146.976  0.00  0.00    +0.000 C 
ENDBRANCH  12  26
TORSDOF 4
ENDMDL
MODEL 8
REMARK VINA RESULT:      -7.7      2.629      4.015
REMARK  Name = 44258628
REMARK  4 active torsions:
REMARK  status: ('A' for Active; 'I' for Inactive)
REMARK    1  A    between atoms: O_2  and  C_14
REMARK    2  A    between atoms: O_3  and  C_18
REMARK    3  A    between atoms: O_5  and  C_20
REMARK    4  A    between atoms: C_12  and  C_13
REMARK                            x       y       z     vdW  Elec       q    Type
REMARK                         _______ _______ _______ _____ _____    ______ ____
ROOT
ATOM      1  O   UNL     1     104.050 124.478 147.445  0.00  0.00    +0.000 OA
ATOM      2  O   UNL     1     103.094 123.067 145.105  0.00  0.00    +0.000 OA
ATOM      3  O   UNL     1     101.434 123.271 147.423  0.00  0.00    +0.000 OA
ATOM      4  O   UNL     1     104.411 123.657 145.077  0.00  0.00    +0.000 OA
ATOM      5  C   UNL     1     103.564 123.763 146.261  0.00  0.00    +0.000 A 
ATOM      6  C   UNL     1     103.444 124.029 147.034  0.00  0.00    +0.000 A 
ATOM      7  C   UNL     1     104.792 124.652 147.047  0.00  0.00    +0.000 A 
ATOM      8  C   UNL     1     102.734 123.865 147.420  0.00  0.00    +0.000 A 
ATOM      9  C   UNL     1     102.974 123.333 145.877  0.00  0.00    +0.000 A 
ATOM     10  C   UNL     1     104.299 123.927 145.848  0.00  0.00    +0.000 A 
ATOM     11  C   UNL     1     104.917 124.374 146.243  0.00  0.00    +0.000 A 
ATOM     12  C   UNL     1     102.265 123.169 146.264  0.00  0.00    +0.000 A 
ATOM     13  C   UNL     1     102.144 123.435 147.036  0.00  0.00    +0.000 A 
ENDROOT
BRANCH   7  16
ATOM     14  O   UNL     1     105.960 123.864 147.906  0.00  0.00    +0.000 OA
ATOM     15  O   UNL     1     105.976 127.160 147.735  0.00  0.00    +0.000 OA
ATOM     16  C   UNL     1     105.380 125.082 147.434  0.00  0.00    +0.000 A 
ATOM     17  C   UNL     1     105.385 125.906 147.392  0.00  0.00    +0.000 A 
ATOM     18  C   UNL     1     105.964 124.688 147.864  0.00  0.00    +0.000 A 
ATOM     19  C   UNL     1     105.972 126.336 147.778  0.00  0.00    +0.000 A 
ATOM     20  C   UNL     1     106.553 125.119 148.251  0.00  0.00    +0.000 A 
ATOM     21  C   UNL     1     106.557 125.942 148.208  0.00  0.00    +0.000 A 
BRANCH  17  22
ATOM     22  O   UNL     1     104.801 126.299 146.962  0.00  0.00    +0.000 OA
ATOM     23  C   UNL     1     104.815 127.122 146.902  0.00  0.00    +0.000 C 
ENDBRANCH  17  22
ENDBRANCH   7  16
BRANCH   8  24
ATOM     24  O   UNL     1     102.614 124.131 148.192  0.00  0.00    +0.000 OA
ATOM     25  C   UNL     1     102.455 123.590 148.794  0.00  0.00    +0.000 C 
ENDBRANCH   8  24
BRANCH  12  26
ATOM     26  O   UNL     1     101.674 122.739 145.880  0.00  0.00    +0.000 OA
ATOM     27  C   UNL     1     101.081 123.133 145.464  0.00  0.00    +0.000 C 
ENDBRANCH  12  26
TORSDOF 4
ENDMDL
MODEL 9
REMARK VINA RESULT:      -7.6      9.637     11.732
REMARK  Name = 44258628
REMARK  4 active torsions:
REMARK  status: ('A' for Active; 'I' for Inactive)
REMARK    1  A    between atoms: O_2  and  C_14
REMARK    2  A    between atoms: O_3  and  C_18
REMARK    3  A    between atoms: O_5  and  C_20
REMARK    4  A    between atoms: C_12  and  C_13
REMARK                            x       y       z     vdW  Elec       q    Type
REMARK                         _______ _______ _______ _____ _____    ______ ____
ROOT
ATOM      1  O   UNL     1     112.922 126.789 137.710  0.00  0.00    +0.000 OA
ATOM      2  O   UNL     1     113.585 129.380 136.604  0.00  0.00    +0.000 OA
ATOM      3  O   UNL     1     112.475 129.194 139.231  0.00  0.00    +0.000 OA
ATOM      4  O   UNL     1     113.824 128.198 135.810  0.00  0.00    +0.000 OA
ATOM      5  C   UNL     1     113.257 128.102 137.152  0.00  0.00    +0.000 A 
ATOM      6  C   UNL     1     112.962 127.644 137.773  0.00  0.00    +0.000 A 
ATOM      7  C   UNL     1     113.192 126.403 136.991  0.00  0.00    +0.000 A 
ATOM      8  C   UNL     1     112.702 128.009 138.466  0.00  0.00    +0.000 A 
ATOM      9  C   UNL     1     113.291 128.923 137.225  0.00  0.00    +0.000 A 
ATOM     10  C   UNL     1     113.531 127.734 136.426  0.00  0.00    +0.000 A 
ATOM     11  C   UNL     1     113.499 126.879 136.344  0.00  0.00    +0.000 A 
ATOM     12  C   UNL     1     113.030 129.287 137.917  0.00  0.00    +0.000 A 
ATOM     13  C   UNL     1     112.735 128.830 138.538  0.00  0.00    +0.000 A 
ENDROOT
BRANCH   7  16
ATOM     14  O   UNL     1     114.475 125.479 137.464  0.00  0.00    +0.000 OA
ATOM     15  O   UNL     1     111.768 124.042 136.239  0.00  0.00    +0.000 OA
ATOM     16  C   UNL     1     113.157 125.582 136.921  0.00  0.00    +0.000 A 
ATOM     17  C   UNL     1     112.480 125.222 136.615  0.00  0.00    +0.000 A 
ATOM     18  C   UNL     1     113.798 125.120 137.158  0.00  0.00    +0.000 A 
ATOM     19  C   UNL     1     112.445 124.402 136.546  0.00  0.00    +0.000 A 
ATOM     20  C   UNL     1     113.763 124.298 137.088  0.00  0.00    +0.000 A 
ATOM     21  C   UNL     1     113.087 123.939 136.782  0.00  0.00    +0.000 A 
BRANCH  17  22
ATOM     22  O   UNL     1     111.839 125.684 136.379  0.00  0.00    +0.000 OA
ATOM     23  C   UNL     1     111.140 125.324 136.129  0.00  0.00    +0.000 C 
ENDBRANCH  17  22
ENDBRANCH   7  16
BRANCH   8  24
ATOM     24  O   UNL     1     112.407 127.552 139.087  0.00  0.00    +0.000 OA
ATOM     25  C   UNL     1     111.630 127.655 139.342  0.00  0.00    +0.000 C 
ENDBRANCH   8  24
BRANCH  12  26
ATOM     26  O   UNL     1     113.064 130.108 137.990  0.00  0.00    +0.000 OA
ATOM     27  C   UNL     1     113.723 130.466 138.333  0.00  0.00    +0.000 C 
ENDBRANCH  12  26
TORSDOF 4
ENDMDL
MODEL 10
REMARK VINA RESULT:      -7.6      9.260     11.805
REMARK  Name = 44258628
REMARK  4 active torsions:
REMARK  status: ('A' for Active; 'I' for Inactive)
REMARK    1  A    between atoms: O_2  and  C_14
REMARK    2  A    between atoms: O_3  and  C_18
REMARK    3  A    between atoms: O_5  and  C_20
REMARK    4  A    between atoms: C_12  and  C_13
REMARK                            x       y       z     vdW  Elec       q    Type
REMARK                         _______ _______ _______ _____ _____    ______ ____
ROOT
ATOM      1  O   UNL     1     110.341 127.045 136.674  0.00  0.00    +0.000 OA
ATOM      2  O   UNL     1     111.107 124.459 135.623  0.00  0.00    +0.000 OA
ATOM      3  O   UNL     1     111.561 125.069 138.378  0.00  0.00    +0.000 OA
ATOM      4  O   UNL     1     110.498 125.422 134.737  0.00  0.00    +0.000 OA
ATOM      5  C   UNL     1     110.729 125.735 136.144  0.00  0.00    +0.000 A 
ATOM      6  C   UNL     1     110.679 126.263 136.777  0.00  0.00    +0.000 A 
ATOM      7  C   UNL     1     110.050 127.283 135.900  0.00  0.00    +0.000 A 
ATOM      8  C   UNL     1     110.957 126.040 137.522  0.00  0.00    +0.000 A 
ATOM      9  C   UNL     1     111.057 124.986 136.256  0.00  0.00    +0.000 A 
ATOM     10  C   UNL     1     110.444 125.955 135.365  0.00  0.00    +0.000 A 
ATOM     11  C   UNL     1     110.102 126.733 135.241  0.00  0.00    +0.000 A 
ATOM     12  C   UNL     1     111.334 124.764 137.000  0.00  0.00    +0.000 A 
ATOM     13  C   UNL     1     111.284 125.291 137.634  0.00  0.00    +0.000 A 
ENDROOT
BRANCH   7  16
ATOM     14  O   UNL     1     108.432 127.518 136.123  0.00  0.00    +0.000 OA
ATOM     15  O   UNL     1     110.362 130.046 135.242  0.00  0.00    +0.000 OA
ATOM     16  C   UNL     1     109.723 128.032 135.792  0.00  0.00    +0.000 A 
ATOM     17  C   UNL     1     110.205 128.664 135.571  0.00  0.00    +0.000 A 
ATOM     18  C   UNL     1     108.914 128.150 135.903  0.00  0.00    +0.000 A 
ATOM     19  C   UNL     1     109.879 129.413 135.462  0.00  0.00    +0.000 A 
ATOM     20  C   UNL     1     108.588 128.900 135.794  0.00  0.00    +0.000 A 
ATOM     21  C   UNL     1     109.070 129.532 135.574  0.00  0.00    +0.000 A 
BRANCH  17  22
ATOM     22  O   UNL     1     111.015 128.547 135.460  0.00  0.00    +0.000 OA
ATOM     23  C   UNL     1     111.509 129.190 135.308  0.00  0.00    +0.000 C 
ENDBRANCH  17  22
ENDBRANCH   7  16
BRANCH   8  24
ATOM     24  O   UNL     1     110.907 126.567 138.155  0.00  0.00    +0.000 OA
ATOM     25  C   UNL     1     110.477 126.362 138.828  0.00  0.00    +0.000 C 
ENDBRANCH   8  24
BRANCH  12  26
ATOM     26  O   UNL     1     111.661 124.015 137.113  0.00  0.00    +0.000 OA
ATOM     27  C   UNL     1     112.469 123.896 136.997  0.00  0.00    +0.000 C 
ENDBRANCH  12  26
TORSDOF 4
ENDMDL
