MODEL 1
REMARK VINA RESULT:      -8.2      0.000      0.000
REMARK  Name = 
REMARK  4 active torsions:
REMARK  status: ('A' for Active; 'I' for Inactive)
REMARK    1  A    between atoms: C_6  and  C_8
REMARK    2  A    between atoms: C_12  and  O_14
REMARK    3  A    between atoms: C_16  and  O_20
REMARK    4  A    between atoms: C_21  and  O_24
REMARK                            x       y       z     vdW  Elec       q    Type
REMARK                         _______ _______ _______ _____ _____    ______ ____
ROOT
ATOM      1  C   UNL     1     104.870 124.640 146.933  0.00  0.00    +0.000 A 
ATOM      2  O   UNL     1     104.189 124.469 147.365  0.00  0.00    +0.000 OA
ATOM      3  C   UNL     1     104.937 124.386 146.149  0.00  0.00    +0.000 A 
ATOM      4  C   UNL     1     103.574 124.044 147.015  0.00  0.00    +0.000 A 
ATOM      5  C   UNL     1     104.322 123.962 145.800  0.00  0.00    +0.000 A 
ATOM      6  C   UNL     1     102.893 123.873 147.447  0.00  0.00    +0.000 A 
ATOM      7  C   UNL     1     103.641 123.791 146.232  0.00  0.00    +0.000 A 
ATOM      8  O   UNL     1     104.389 123.709 145.017  0.00  0.00    +0.000 OA
ATOM      9  C   UNL     1     102.278 123.449 147.098  0.00  0.00    +0.000 A 
ATOM     10  C   UNL     1     103.026 123.367 145.882  0.00  0.00    +0.000 A 
ATOM     11  C   UNL     1     102.344 123.195 146.314  0.00  0.00    +0.000 A 
ATOM     12  O   UNL     1     103.093 123.114 145.100  0.00  0.00    +0.000 OA
ENDROOT
BRANCH   1  18
ATOM     13 CL   UNL     1     107.190 124.713 148.599  0.00  0.00    +0.000 Cl
ATOM     14  C   UNL     1     106.646 125.100 148.116  0.00  0.00    +0.000 A 
ATOM     15  C   UNL     1     106.031 124.677 147.766  0.00  0.00    +0.000 A 
ATOM     16  C   UNL     1     106.717 125.911 147.981  0.00  0.00    +0.000 A 
ATOM     17  O   UNL     1     105.960 123.865 147.900  0.00  0.00    +0.000 OA
ATOM     18  C   UNL     1     105.486 125.064 147.282  0.00  0.00    +0.000 A 
ATOM     19  C   UNL     1     106.172 126.298 147.498  0.00  0.00    +0.000 A 
ATOM     20  C   UNL     1     105.557 125.874 147.148  0.00  0.00    +0.000 A 
ATOM     21  O   UNL     1     106.243 127.109 147.364  0.00  0.00    +0.000 OA
ENDBRANCH   1  18
BRANCH   3  22
ATOM     22  O   UNL     1     105.619 124.558 145.717  0.00  0.00    +0.000 OA
ATOM     23  C   UNL     1     105.584 124.614 144.896  0.00  0.00    +0.000 C 
ENDBRANCH   3  22
BRANCH   6  24
ATOM     24  O   UNL     1     102.827 124.126 148.230  0.00  0.00    +0.000 OA
ATOM     25  C   UNL     1     102.299 124.731 148.425  0.00  0.00    +0.000 C 
ENDBRANCH   6  24
BRANCH   9  26
ATOM     26  O   UNL     1     101.597 123.278 147.530  0.00  0.00    +0.000 OA
ATOM     27  C   UNL     1     101.045 122.739 147.235  0.00  0.00    +0.000 C 
ENDBRANCH   9  26
TORSDOF 4
ENDMDL
MODEL 2
REMARK VINA RESULT:      -8.2      1.125      2.207
REMARK  Name = 
REMARK  4 active torsions:
REMARK  status: ('A' for Active; 'I' for Inactive)
REMARK    1  A    between atoms: C_6  and  C_8
REMARK    2  A    between atoms: C_12  and  O_14
REMARK    3  A    between atoms: C_16  and  O_20
REMARK    4  A    between atoms: C_21  and  O_24
REMARK                            x       y       z     vdW  Elec       q    Type
REMARK                         _______ _______ _______ _____ _____    ______ ____
ROOT
ATOM      1  C   UNL     1     105.386 125.123 147.666  0.00  0.00    +0.000 A 
ATOM      2  O   UNL     1     105.071 124.544 147.170  0.00  0.00    +0.000 OA
ATOM      3  C   UNL     1     104.883 125.628 148.083  0.00  0.00    +0.000 A 
ATOM      4  C   UNL     1     104.253 124.469 147.090  0.00  0.00    +0.000 A 
ATOM      5  C   UNL     1     104.066 125.553 148.003  0.00  0.00    +0.000 A 
ATOM      6  C   UNL     1     103.937 123.891 146.595  0.00  0.00    +0.000 A 
ATOM      7  C   UNL     1     103.750 124.975 147.508  0.00  0.00    +0.000 A 
ATOM      8  O   UNL     1     103.564 126.058 148.420  0.00  0.00    +0.000 OA
ATOM      9  C   UNL     1     103.120 123.816 146.515  0.00  0.00    +0.000 A 
ATOM     10  C   UNL     1     102.933 124.900 147.428  0.00  0.00    +0.000 A 
ATOM     11  C   UNL     1     102.617 124.321 146.932  0.00  0.00    +0.000 A 
ATOM     12  O   UNL     1     102.430 125.405 147.845  0.00  0.00    +0.000 OA
ENDROOT
BRANCH   1  18
ATOM     13 CL   UNL     1     107.832 124.334 148.914  0.00  0.00    +0.000 Cl
ATOM     14  C   UNL     1     107.427 124.802 148.370  0.00  0.00    +0.000 A 
ATOM     15  C   UNL     1     106.609 124.728 148.290  0.00  0.00    +0.000 A 
ATOM     16  C   UNL     1     107.839 125.346 147.906  0.00  0.00    +0.000 A 
ATOM     17  O   UNL     1     106.197 124.184 148.754  0.00  0.00    +0.000 OA
ATOM     18  C   UNL     1     106.204 125.197 147.745  0.00  0.00    +0.000 A 
ATOM     19  C   UNL     1     107.433 125.815 147.362  0.00  0.00    +0.000 A 
ATOM     20  C   UNL     1     106.616 125.740 147.282  0.00  0.00    +0.000 A 
ATOM     21  O   UNL     1     107.846 126.358 146.898  0.00  0.00    +0.000 OA
ENDBRANCH   1  18
BRANCH   3  22
ATOM     22  O   UNL     1     105.199 126.207 148.579  0.00  0.00    +0.000 OA
ATOM     23  C   UNL     1     104.753 126.872 148.774  0.00  0.00    +0.000 C 
ENDBRANCH   3  22
BRANCH   6  24
ATOM     24  O   UNL     1     104.440 123.386 146.178  0.00  0.00    +0.000 OA
ATOM     25  C   UNL     1     104.494 123.443 145.356  0.00  0.00    +0.000 C 
ENDBRANCH   6  24
BRANCH   9  26
ATOM     26  O   UNL     1     102.804 123.238 146.020  0.00  0.00    +0.000 OA
ATOM     27  C   UNL     1     102.022 122.993 146.115  0.00  0.00    +0.000 C 
ENDBRANCH   9  26
TORSDOF 4
ENDMDL
MODEL 3
REMARK VINA RESULT:      -8.2     12.667     13.559
REMARK  Name = 
REMARK  4 active torsions:
REMARK  status: ('A' for Active; 'I' for Inactive)
REMARK    1  A    between atoms: C_6  and  C_8
REMARK    2  A    between atoms: C_12  and  O_14
REMARK    3  A    between atoms: C_16  and  O_20
REMARK    4  A    between atoms: C_21  and  O_24
REMARK                            x       y       z     vdW  Elec       q    Type
REMARK                         _______ _______ _______ _____ _____    ______ ____
ROOT
ATOM      1  C   UNL     1     112.497 125.920 136.558  0.00  0.00    +0.000 A 
ATOM      2  O   UNL     1     112.338 126.682 136.285  0.00  0.00    +0.000 OA
ATOM      3  C   UNL     1     111.996 125.296 136.353  0.00  0.00    +0.000 A 
ATOM      4  C   UNL     1     111.679 126.822 135.809  0.00  0.00    +0.000 A 
ATOM      5  C   UNL     1     111.338 125.435 135.877  0.00  0.00    +0.000 A 
ATOM      6  C   UNL     1     111.521 127.583 135.536  0.00  0.00    +0.000 A 
ATOM      7  C   UNL     1     111.179 126.197 135.604  0.00  0.00    +0.000 A 
ATOM      8  O   UNL     1     110.838 124.812 135.672  0.00  0.00    +0.000 OA
ATOM      9  C   UNL     1     110.862 127.723 135.060  0.00  0.00    +0.000 A 
ATOM     10  C   UNL     1     110.520 126.336 135.128  0.00  0.00    +0.000 A 
ATOM     11  C   UNL     1     110.361 127.099 134.855  0.00  0.00    +0.000 A 
ATOM     12  O   UNL     1     110.020 125.713 134.923  0.00  0.00    +0.000 OA
ENDROOT
BRANCH   1  18
ATOM     13 CL   UNL     1     113.786 126.077 139.102  0.00  0.00    +0.000 Cl
ATOM     14  C   UNL     1     113.800 125.859 138.308  0.00  0.00    +0.000 A 
ATOM     15  C   UNL     1     113.142 125.998 137.830  0.00  0.00    +0.000 A 
ATOM     16  C   UNL     1     114.472 125.502 137.989  0.00  0.00    +0.000 A 
ATOM     17  O   UNL     1     112.470 126.356 138.149  0.00  0.00    +0.000 OA
ATOM     18  C   UNL     1     113.156 125.781 137.034  0.00  0.00    +0.000 A 
ATOM     19  C   UNL     1     114.485 125.284 137.193  0.00  0.00    +0.000 A 
ATOM     20  C   UNL     1     113.828 125.424 136.716  0.00  0.00    +0.000 A 
ATOM     21  O   UNL     1     115.158 124.927 136.875  0.00  0.00    +0.000 OA
ENDBRANCH   1  18
BRANCH   3  22
ATOM     22  O   UNL     1     112.156 124.534 136.626  0.00  0.00    +0.000 OA
ATOM     23  C   UNL     1     111.687 123.901 136.381  0.00  0.00    +0.000 C 
ENDBRANCH   3  22
BRANCH   6  24
ATOM     24  O   UNL     1     112.021 128.207 135.741  0.00  0.00    +0.000 OA
ATOM     25  C   UNL     1     112.489 128.567 135.164  0.00  0.00    +0.000 C 
ENDBRANCH   6  24
BRANCH   9  26
ATOM     26  O   UNL     1     110.703 128.485 134.788  0.00  0.00    +0.000 OA
ATOM     27  C   UNL     1     109.928 128.708 134.613  0.00  0.00    +0.000 C 
ENDBRANCH   9  26
TORSDOF 4
ENDMDL
MODEL 4
REMARK VINA RESULT:      -7.9     12.785     13.687
REMARK  Name = 
REMARK  4 active torsions:
REMARK  status: ('A' for Active; 'I' for Inactive)
REMARK    1  A    between atoms: C_6  and  C_8
REMARK    2  A    between atoms: C_12  and  O_14
REMARK    3  A    between atoms: C_16  and  O_20
REMARK    4  A    between atoms: C_21  and  O_24
REMARK                            x       y       z     vdW  Elec       q    Type
REMARK                         _______ _______ _______ _____ _____    ______ ____
ROOT
ATOM      1  C   UNL     1     112.544 127.253 136.281  0.00  0.00    +0.000 A 
ATOM      2  O   UNL     1     112.828 126.549 136.603  0.00  0.00    +0.000 OA
ATOM      3  C   UNL     1     111.840 127.255 135.850  0.00  0.00    +0.000 A 
ATOM      4  C   UNL     1     112.409 125.846 136.494  0.00  0.00    +0.000 A 
ATOM      5  C   UNL     1     111.421 126.554 135.741  0.00  0.00    +0.000 A 
ATOM      6  C   UNL     1     112.693 125.142 136.815  0.00  0.00    +0.000 A 
ATOM      7  C   UNL     1     111.705 125.849 136.063  0.00  0.00    +0.000 A 
ATOM      8  O   UNL     1     110.717 126.556 135.311  0.00  0.00    +0.000 OA
ATOM      9  C   UNL     1     112.275 124.440 136.707  0.00  0.00    +0.000 A 
ATOM     10  C   UNL     1     111.286 125.147 135.954  0.00  0.00    +0.000 A 
ATOM     11  C   UNL     1     111.570 124.442 136.275  0.00  0.00    +0.000 A 
ATOM     12  O   UNL     1     110.582 125.149 135.523  0.00  0.00    +0.000 OA
ENDROOT
BRANCH   1  18
ATOM     13 CL   UNL     1     113.217 129.506 137.905  0.00  0.00    +0.000 Cl
ATOM     14  C   UNL     1     113.299 129.082 137.203  0.00  0.00    +0.000 A 
ATOM     15  C   UNL     1     112.881 128.380 137.093  0.00  0.00    +0.000 A 
ATOM     16  C   UNL     1     113.799 129.360 136.609  0.00  0.00    +0.000 A 
ATOM     17  O   UNL     1     112.380 128.101 137.687  0.00  0.00    +0.000 OA
ATOM     18  C   UNL     1     112.963 127.956 136.390  0.00  0.00    +0.000 A 
ATOM     19  C   UNL     1     113.882 128.936 135.906  0.00  0.00    +0.000 A 
ATOM     20  C   UNL     1     113.464 128.234 135.797  0.00  0.00    +0.000 A 
ATOM     21  O   UNL     1     114.383 129.215 135.313  0.00  0.00    +0.000 OA
ENDBRANCH   1  18
BRANCH   3  22
ATOM     22  O   UNL     1     111.556 127.960 135.529  0.00  0.00    +0.000 OA
ATOM     23  C   UNL     1     111.031 127.942 134.893  0.00  0.00    +0.000 C 
ENDBRANCH   3  22
BRANCH   6  24
ATOM     24  O   UNL     1     113.397 125.140 137.246  0.00  0.00    +0.000 OA
ATOM     25  C   UNL     1     114.074 124.788 136.930  0.00  0.00    +0.000 C 
ENDBRANCH   6  24
BRANCH   9  26
ATOM     26  O   UNL     1     112.559 123.736 137.028  0.00  0.00    +0.000 OA
ATOM     27  C   UNL     1     112.044 123.104 137.159  0.00  0.00    +0.000 C 
ENDBRANCH   9  26
TORSDOF 4
ENDMDL
MODEL 5
REMARK VINA RESULT:      -7.8      9.242     11.106
REMARK  Name = 
REMARK  4 active torsions:
REMARK  status: ('A' for Active; 'I' for Inactive)
REMARK    1  A    between atoms: C_6  and  C_8
REMARK    2  A    between atoms: C_12  and  O_14
REMARK    3  A    between atoms: C_16  and  O_20
REMARK    4  A    between atoms: C_21  and  O_24
REMARK                            x       y       z     vdW  Elec       q    Type
REMARK                         _______ _______ _______ _____ _____    ______ ____
ROOT
ATOM      1  C   UNL     1     111.657 132.561 145.612  0.00  0.00    +0.000 A 
ATOM      2  O   UNL     1     111.624 131.768 145.386  0.00  0.00    +0.000 OA
ATOM      3  C   UNL     1     111.749 133.149 145.040  0.00  0.00    +0.000 A 
ATOM      4  C   UNL     1     111.682 131.563 144.589  0.00  0.00    +0.000 A 
ATOM      5  C   UNL     1     111.807 132.945 144.243  0.00  0.00    +0.000 A 
ATOM      6  C   UNL     1     111.649 130.771 144.363  0.00  0.00    +0.000 A 
ATOM      7  C   UNL     1     111.774 132.152 144.017  0.00  0.00    +0.000 A 
ATOM      8  O   UNL     1     111.898 133.533 143.672  0.00  0.00    +0.000 OA
ATOM      9  C   UNL     1     111.707 130.565 143.566  0.00  0.00    +0.000 A 
ATOM     10  C   UNL     1     111.832 131.947 143.220  0.00  0.00    +0.000 A 
ATOM     11  C   UNL     1     111.799 131.154 142.994  0.00  0.00    +0.000 A 
ATOM     12  O   UNL     1     111.923 132.535 142.649  0.00  0.00    +0.000 OA
ENDROOT
BRANCH   1  18
ATOM     13 CL   UNL     1     112.823 132.725 148.215  0.00  0.00    +0.000 Cl
ATOM     14  C   UNL     1     112.183 132.848 147.711  0.00  0.00    +0.000 A 
ATOM     15  C   UNL     1     112.240 132.643 146.914  0.00  0.00    +0.000 A 
ATOM     16  C   UNL     1     111.485 133.176 148.002  0.00  0.00    +0.000 A 
ATOM     17  O   UNL     1     112.939 132.315 146.621  0.00  0.00    +0.000 OA
ATOM     18  C   UNL     1     111.599 132.766 146.409  0.00  0.00    +0.000 A 
ATOM     19  C   UNL     1     110.844 133.299 147.497  0.00  0.00    +0.000 A 
ATOM     20  C   UNL     1     110.901 133.094 146.701  0.00  0.00    +0.000 A 
ATOM     21  O   UNL     1     110.145 133.627 147.790  0.00  0.00    +0.000 OA
ENDBRANCH   1  18
BRANCH   3  22
ATOM     22  O   UNL     1     111.782 133.942 145.266  0.00  0.00    +0.000 OA
ATOM     23  C   UNL     1     111.749 134.536 144.696  0.00  0.00    +0.000 C 
ENDBRANCH   3  22
BRANCH   6  24
ATOM     24  O   UNL     1     111.558 130.183 144.934  0.00  0.00    +0.000 OA
ATOM     25  C   UNL     1     110.844 129.772 144.994  0.00  0.00    +0.000 C 
ENDBRANCH   6  24
BRANCH   9  26
ATOM     26  O   UNL     1     111.674 129.773 143.340  0.00  0.00    +0.000 OA
ATOM     27  C   UNL     1     111.982 129.538 142.611  0.00  0.00    +0.000 C 
ENDBRANCH   9  26
TORSDOF 4
ENDMDL
MODEL 6
REMARK VINA RESULT:      -7.7      1.697      2.600
REMARK  Name = 
REMARK  4 active torsions:
REMARK  status: ('A' for Active; 'I' for Inactive)
REMARK    1  A    between atoms: C_6  and  C_8
REMARK    2  A    between atoms: C_12  and  O_14
REMARK    3  A    between atoms: C_16  and  O_20
REMARK    4  A    between atoms: C_21  and  O_24
REMARK                            x       y       z     vdW  Elec       q    Type
REMARK                         _______ _______ _______ _____ _____    ______ ____
ROOT
ATOM      1  C   UNL     1     105.433 125.230 148.037  0.00  0.00    +0.000 A 
ATOM      2  O   UNL     1     105.072 125.842 148.456  0.00  0.00    +0.000 OA
ATOM      3  C   UNL     1     104.978 124.732 147.560  0.00  0.00    +0.000 A 
ATOM      4  C   UNL     1     104.257 125.957 148.399  0.00  0.00    +0.000 A 
ATOM      5  C   UNL     1     104.164 124.847 147.503  0.00  0.00    +0.000 A 
ATOM      6  C   UNL     1     103.896 126.568 148.818  0.00  0.00    +0.000 A 
ATOM      7  C   UNL     1     103.802 125.459 147.922  0.00  0.00    +0.000 A 
ATOM      8  O   UNL     1     103.710 124.350 147.026  0.00  0.00    +0.000 OA
ATOM      9  C   UNL     1     103.081 126.684 148.761  0.00  0.00    +0.000 A 
ATOM     10  C   UNL     1     102.988 125.574 147.865  0.00  0.00    +0.000 A 
ATOM     11  C   UNL     1     102.626 126.186 148.284  0.00  0.00    +0.000 A 
ATOM     12  O   UNL     1     102.534 125.076 147.388  0.00  0.00    +0.000 OA
ENDROOT
BRANCH   1  18
ATOM     13 CL   UNL     1     107.694 124.216 149.459  0.00  0.00    +0.000 Cl
ATOM     14  C   UNL     1     107.378 124.607 148.806  0.00  0.00    +0.000 A 
ATOM     15  C   UNL     1     106.564 124.723 148.748  0.00  0.00    +0.000 A 
ATOM     16  C   UNL     1     107.877 124.884 148.209  0.00  0.00    +0.000 A 
ATOM     17  O   UNL     1     106.064 124.447 149.344  0.00  0.00    +0.000 OA
ATOM     18  C   UNL     1     106.248 125.115 148.094  0.00  0.00    +0.000 A 
ATOM     19  C   UNL     1     107.561 125.276 147.556  0.00  0.00    +0.000 A 
ATOM     20  C   UNL     1     106.746 125.391 147.498  0.00  0.00    +0.000 A 
ATOM     21  O   UNL     1     108.060 125.552 146.960  0.00  0.00    +0.000 OA
ENDBRANCH   1  18
BRANCH   3  22
ATOM     22  O   UNL     1     105.340 124.120 147.141  0.00  0.00    +0.000 OA
ATOM     23  C   UNL     1     104.989 123.826 146.455  0.00  0.00    +0.000 C 
ENDBRANCH   3  22
BRANCH   6  24
ATOM     24  O   UNL     1     104.350 127.066 149.295  0.00  0.00    +0.000 OA
ATOM     25  C   UNL     1     104.518 127.835 149.046  0.00  0.00    +0.000 C 
ENDBRANCH   6  24
BRANCH   9  26
ATOM     26  O   UNL     1     102.720 127.295 149.180  0.00  0.00    +0.000 OA
ATOM     27  C   UNL     1     101.897 127.362 149.187  0.00  0.00    +0.000 C 
ENDBRANCH   9  26
TORSDOF 4
ENDMDL
MODEL 7
REMARK VINA RESULT:      -7.7      2.461      3.813
REMARK  Name = 
REMARK  4 active torsions:
REMARK  status: ('A' for Active; 'I' for Inactive)
REMARK    1  A    between atoms: C_6  and  C_8
REMARK    2  A    between atoms: C_12  and  O_14
REMARK    3  A    between atoms: C_16  and  O_20
REMARK    4  A    between atoms: C_21  and  O_24
REMARK                            x       y       z     vdW  Elec       q    Type
REMARK                         _______ _______ _______ _____ _____    ______ ____
ROOT
ATOM      1  C   UNL     1     106.530 125.870 146.534  0.00  0.00    +0.000 A 
ATOM      2  O   UNL     1     106.311 125.334 145.948  0.00  0.00    +0.000 OA
ATOM      3  C   UNL     1     106.638 126.667 146.346  0.00  0.00    +0.000 A 
ATOM      4  C   UNL     1     106.200 125.593 145.172  0.00  0.00    +0.000 A 
ATOM      5  C   UNL     1     106.527 126.926 145.571  0.00  0.00    +0.000 A 
ATOM      6  C   UNL     1     105.981 125.057 144.585  0.00  0.00    +0.000 A 
ATOM      7  C   UNL     1     106.308 126.390 144.984  0.00  0.00    +0.000 A 
ATOM      8  O   UNL     1     106.635 127.722 145.383  0.00  0.00    +0.000 OA
ATOM      9  C   UNL     1     105.870 125.316 143.810  0.00  0.00    +0.000 A 
ATOM     10  C   UNL     1     106.197 126.649 144.209  0.00  0.00    +0.000 A 
ATOM     11  C   UNL     1     105.978 126.113 143.621  0.00  0.00    +0.000 A 
ATOM     12  O   UNL     1     106.305 127.445 144.021  0.00  0.00    +0.000 OA
ENDROOT
BRANCH   1  18
ATOM     13 CL   UNL     1     108.186 124.663 148.525  0.00  0.00    +0.000 Cl
ATOM     14  C   UNL     1     107.470 125.007 148.305  0.00  0.00    +0.000 A 
ATOM     15  C   UNL     1     107.358 125.267 147.530  0.00  0.00    +0.000 A 
ATOM     16  C   UNL     1     106.866 125.094 148.860  0.00  0.00    +0.000 A 
ATOM     17  O   UNL     1     107.963 125.180 146.975  0.00  0.00    +0.000 OA
ATOM     18  C   UNL     1     106.642 125.612 147.310  0.00  0.00    +0.000 A 
ATOM     19  C   UNL     1     106.149 125.439 148.639  0.00  0.00    +0.000 A 
ATOM     20  C   UNL     1     106.038 125.698 147.865  0.00  0.00    +0.000 A 
ATOM     21  O   UNL     1     105.545 125.525 149.195  0.00  0.00    +0.000 OA
ENDBRANCH   1  18
BRANCH   3  22
ATOM     22  O   UNL     1     106.857 127.204 146.934  0.00  0.00    +0.000 OA
ATOM     23  C   UNL     1     106.710 128.009 146.834  0.00  0.00    +0.000 C 
ENDBRANCH   3  22
BRANCH   6  24
ATOM     24  O   UNL     1     105.873 124.261 144.773  0.00  0.00    +0.000 OA
ATOM     25  C   UNL     1     105.112 123.943 144.799  0.00  0.00    +0.000 C 
ENDBRANCH   6  24
BRANCH   9  26
ATOM     26  O   UNL     1     105.651 124.780 143.223  0.00  0.00    +0.000 OA
ATOM     27  C   UNL     1     105.852 124.924 142.435  0.00  0.00    +0.000 C 
ENDBRANCH   9  26
TORSDOF 4
ENDMDL
MODEL 8
REMARK VINA RESULT:      -7.6      1.719      3.794
REMARK  Name = 
REMARK  4 active torsions:
REMARK  status: ('A' for Active; 'I' for Inactive)
REMARK    1  A    between atoms: C_6  and  C_8
REMARK    2  A    between atoms: C_12  and  O_14
REMARK    3  A    between atoms: C_16  and  O_20
REMARK    4  A    between atoms: C_21  and  O_24
REMARK                            x       y       z     vdW  Elec       q    Type
REMARK                         _______ _______ _______ _____ _____    ______ ____
ROOT
ATOM      1  C   UNL     1     106.011 125.373 146.939  0.00  0.00    +0.000 A 
ATOM      2  O   UNL     1     106.411 125.996 146.575  0.00  0.00    +0.000 OA
ATOM      3  C   UNL     1     105.521 124.881 146.492  0.00  0.00    +0.000 A 
ATOM      4  C   UNL     1     106.322 126.128 145.766  0.00  0.00    +0.000 A 
ATOM      5  C   UNL     1     105.432 125.013 145.683  0.00  0.00    +0.000 A 
ATOM      6  C   UNL     1     106.722 126.751 145.403  0.00  0.00    +0.000 A 
ATOM      7  C   UNL     1     105.832 125.636 145.319  0.00  0.00    +0.000 A 
ATOM      8  O   UNL     1     104.942 124.521 145.237  0.00  0.00    +0.000 OA
ATOM      9  C   UNL     1     106.633 126.883 144.593  0.00  0.00    +0.000 A 
ATOM     10  C   UNL     1     105.742 125.768 144.510  0.00  0.00    +0.000 A 
ATOM     11  C   UNL     1     106.142 126.391 144.146  0.00  0.00    +0.000 A 
ATOM     12  O   UNL     1     105.253 125.276 144.064  0.00  0.00    +0.000 OA
ENDROOT
BRANCH   1  18
ATOM     13 CL   UNL     1     107.527 124.324 149.121  0.00  0.00    +0.000 Cl
ATOM     14  C   UNL     1     106.859 124.716 148.840  0.00  0.00    +0.000 A 
ATOM     15  C   UNL     1     106.769 124.849 148.030  0.00  0.00    +0.000 A 
ATOM     16  C   UNL     1     106.280 124.976 149.366  0.00  0.00    +0.000 A 
ATOM     17  O   UNL     1     107.349 124.589 147.503  0.00  0.00    +0.000 OA
ATOM     18  C   UNL     1     106.100 125.241 147.748  0.00  0.00    +0.000 A 
ATOM     19  C   UNL     1     105.611 125.368 149.084  0.00  0.00    +0.000 A 
ATOM     20  C   UNL     1     105.522 125.500 148.275  0.00  0.00    +0.000 A 
ATOM     21  O   UNL     1     105.032 125.628 149.612  0.00  0.00    +0.000 OA
ENDBRANCH   1  18
BRANCH   3  22
ATOM     22  O   UNL     1     105.121 124.258 146.856  0.00  0.00    +0.000 OA
ATOM     23  C   UNL     1     104.429 123.959 146.521  0.00  0.00    +0.000 C 
ENDBRANCH   3  22
BRANCH   6  24
ATOM     24  O   UNL     1     107.212 127.242 145.849  0.00  0.00    +0.000 OA
ATOM     25  C   UNL     1     106.976 128.015 146.019  0.00  0.00    +0.000 C 
ENDBRANCH   6  24
BRANCH   9  26
ATOM     26  O   UNL     1     107.033 127.506 144.230  0.00  0.00    +0.000 OA
ATOM     27  C   UNL     1     107.086 127.539 143.407  0.00  0.00    +0.000 C 
ENDBRANCH   9  26
TORSDOF 4
ENDMDL
MODEL 9
REMARK VINA RESULT:      -7.6     11.876     13.853
REMARK  Name = 
REMARK  4 active torsions:
REMARK  status: ('A' for Active; 'I' for Inactive)
REMARK    1  A    between atoms: C_6  and  C_8
REMARK    2  A    between atoms: C_12  and  O_14
REMARK    3  A    between atoms: C_16  and  O_20
REMARK    4  A    between atoms: C_21  and  O_24
REMARK                            x       y       z     vdW  Elec       q    Type
REMARK                         _______ _______ _______ _____ _____    ______ ____
ROOT
ATOM      1  C   UNL     1     113.281 126.736 137.580  0.00  0.00    +0.000 A 
ATOM      2  O   UNL     1     113.341 127.339 137.021  0.00  0.00    +0.000 OA
ATOM      3  C   UNL     1     113.099 126.918 138.365  0.00  0.00    +0.000 A 
ATOM      4  C   UNL     1     113.219 128.124 137.244  0.00  0.00    +0.000 A 
ATOM      5  C   UNL     1     112.978 127.702 138.589  0.00  0.00    +0.000 A 
ATOM      6  C   UNL     1     113.279 128.726 136.685  0.00  0.00    +0.000 A 
ATOM      7  C   UNL     1     113.038 128.306 138.029  0.00  0.00    +0.000 A 
ATOM      8  O   UNL     1     112.796 127.884 139.373  0.00  0.00    +0.000 OA
ATOM      9  C   UNL     1     113.158 129.511 136.908  0.00  0.00    +0.000 A 
ATOM     10  C   UNL     1     112.916 129.090 138.253  0.00  0.00    +0.000 A 
ATOM     11  C   UNL     1     112.976 129.693 137.693  0.00  0.00    +0.000 A 
ATOM     12  O   UNL     1     112.735 129.272 139.037  0.00  0.00    +0.000 OA
ENDROOT
BRANCH   1  18
ATOM     13 CL   UNL     1     112.307 124.320 136.406  0.00  0.00    +0.000 Cl
ATOM     14  C   UNL     1     112.914 124.743 136.769  0.00  0.00    +0.000 A 
ATOM     15  C   UNL     1     112.794 125.528 136.993  0.00  0.00    +0.000 A 
ATOM     16  C   UNL     1     113.642 124.382 136.909  0.00  0.00    +0.000 A 
ATOM     17  O   UNL     1     112.065 125.890 136.852  0.00  0.00    +0.000 OA
ATOM     18  C   UNL     1     113.402 125.951 137.357  0.00  0.00    +0.000 A 
ATOM     19  C   UNL     1     114.250 124.805 137.273  0.00  0.00    +0.000 A 
ATOM     20  C   UNL     1     114.129 125.589 137.497  0.00  0.00    +0.000 A 
ATOM     21  O   UNL     1     114.978 124.443 137.413  0.00  0.00    +0.000 OA
ENDBRANCH   1  18
BRANCH   3  22
ATOM     22  O   UNL     1     113.039 126.315 138.925  0.00  0.00    +0.000 OA
ATOM     23  C   UNL     1     113.019 126.497 139.728  0.00  0.00    +0.000 C 
ENDBRANCH   3  22
BRANCH   6  24
ATOM     24  O   UNL     1     113.461 128.544 135.901  0.00  0.00    +0.000 OA
ATOM     25  C   UNL     1     114.197 128.751 135.589  0.00  0.00    +0.000 C 
ENDBRANCH   6  24
BRANCH   9  26
ATOM     26  O   UNL     1     113.218 130.114 136.349  0.00  0.00    +0.000 OA
ATOM     27  C   UNL     1     112.976 130.880 136.539  0.00  0.00    +0.000 C 
ENDBRANCH   9  26
TORSDOF 4
ENDMDL
MODEL 10
REMARK VINA RESULT:      -7.6      9.967     12.275
REMARK  Name = 
REMARK  4 active torsions:
REMARK  status: ('A' for Active; 'I' for Inactive)
REMARK    1  A    between atoms: C_6  and  C_8
REMARK    2  A    between atoms: C_12  and  O_14
REMARK    3  A    between atoms: C_16  and  O_20
REMARK    4  A    between atoms: C_21  and  O_24
REMARK                            x       y       z     vdW  Elec       q    Type
REMARK                         _______ _______ _______ _____ _____    ______ ____
ROOT
ATOM      1  C   UNL     1     112.402 125.737 138.020  0.00  0.00    +0.000 A 
ATOM      2  O   UNL     1     111.913 126.038 138.612  0.00  0.00    +0.000 OA
ATOM      3  C   UNL     1     113.223 125.788 138.098  0.00  0.00    +0.000 A 
ATOM      4  C   UNL     1     112.243 126.389 139.282  0.00  0.00    +0.000 A 
ATOM      5  C   UNL     1     113.553 126.139 138.767  0.00  0.00    +0.000 A 
ATOM      6  C   UNL     1     111.753 126.689 139.873  0.00  0.00    +0.000 A 
ATOM      7  C   UNL     1     113.063 126.440 139.359  0.00  0.00    +0.000 A 
ATOM      8  O   UNL     1     114.372 126.190 138.844  0.00  0.00    +0.000 OA
ATOM      9  C   UNL     1     112.083 127.041 140.543  0.00  0.00    +0.000 A 
ATOM     10  C   UNL     1     113.393 126.791 140.028  0.00  0.00    +0.000 A 
ATOM     11  C   UNL     1     112.904 127.092 140.621  0.00  0.00    +0.000 A 
ATOM     12  O   UNL     1     114.213 126.841 140.106  0.00  0.00    +0.000 OA
ENDROOT
BRANCH   1  18
ATOM     13 CL   UNL     1     111.137 125.978 135.470  0.00  0.00    +0.000 Cl
ATOM     14  C   UNL     1     111.440 125.507 136.075  0.00  0.00    +0.000 A 
ATOM     15  C   UNL     1     111.769 125.857 136.745  0.00  0.00    +0.000 A 
ATOM     16  C   UNL     1     111.413 124.685 136.011  0.00  0.00    +0.000 A 
ATOM     17  O   UNL     1     111.796 126.680 136.809  0.00  0.00    +0.000 OA
ATOM     18  C   UNL     1     112.072 125.386 137.350  0.00  0.00    +0.000 A 
ATOM     19  C   UNL     1     111.717 124.214 136.616  0.00  0.00    +0.000 A 
ATOM     20  C   UNL     1     112.046 124.564 137.285  0.00  0.00    +0.000 A 
ATOM     21  O   UNL     1     111.690 123.392 136.551  0.00  0.00    +0.000 OA
ENDBRANCH   1  18
BRANCH   3  22
ATOM     22  O   UNL     1     113.712 125.487 137.505  0.00  0.00    +0.000 OA
ATOM     23  C   UNL     1     114.498 125.302 137.673  0.00  0.00    +0.000 C 
ENDBRANCH   3  22
BRANCH   6  24
ATOM     24  O   UNL     1     110.934 126.639 139.796  0.00  0.00    +0.000 OA
ATOM     25  C   UNL     1     110.502 126.139 140.292  0.00  0.00    +0.000 C 
ENDBRANCH   6  24
BRANCH   9  26
ATOM     26  O   UNL     1     111.594 127.341 141.135  0.00  0.00    +0.000 OA
ATOM     27  C   UNL     1     111.904 127.842 141.713  0.00  0.00    +0.000 C 
ENDBRANCH   9  26
TORSDOF 4
ENDMDL
