MODEL 1
REMARK VINA RESULT:      -8.3      0.000      0.000
REMARK  Name = 5118250
REMARK  2 active torsions:
REMARK  status: ('A' for Active; 'I' for Inactive)
REMARK    1  A    between atoms: O_4  and  C_20
REMARK    2  A    between atoms: C_6  and  C_8
REMARK                            x       y       z     vdW  Elec       q    Type
REMARK                         _______ _______ _______ _____ _____    ______ ____
ROOT
ATOM      1  O   UNL     1     104.583 123.613 138.289  0.00  0.00    +0.000 OA
ATOM      2  O   UNL     1     102.130 123.585 138.615  0.00  0.00    +0.000 OA
ATOM      3  O   UNL     1     101.923 123.210 137.238  0.00  0.00    +0.000 OA
ATOM      4  O   UNL     1     104.241 122.856 135.498  0.00  0.00    +0.000 OA
ATOM      5  C   UNL     1     104.264 123.795 139.028  0.00  0.00    +0.000 C 
ATOM      6  C   UNL     1     103.446 123.785 139.137  0.00  0.00    +0.000 C 
ATOM      7  C   UNL     1     103.268 123.414 137.768  0.00  0.00    +0.000 A 
ATOM      8  C   UNL     1     102.949 123.595 138.506  0.00  0.00    +0.000 C 
ATOM      9  C   UNL     1     104.086 123.423 137.659  0.00  0.00    +0.000 A 
ATOM     10  C   UNL     1     102.739 123.217 137.120  0.00  0.00    +0.000 A 
ATOM     11  C   UNL     1     104.431 123.236 136.895  0.00  0.00    +0.000 A 
ATOM     12  C   UNL     1     103.066 123.027 136.349  0.00  0.00    +0.000 A 
ATOM     13  C   UNL     1     103.918 123.037 136.235  0.00  0.00    +0.000 A 
ENDROOT
BRANCH   5  14
ATOM     14  C   UNL     1     104.761 123.985 139.657  0.00  0.00    +0.000 A 
ATOM     15  C   UNL     1     105.009 123.397 140.180  0.00  0.00    +0.000 A 
ATOM     16  C   UNL     1     105.011 124.765 139.764  0.00  0.00    +0.000 A 
ATOM     17  C   UNL     1     105.506 123.587 140.810  0.00  0.00    +0.000 A 
ATOM     18  C   UNL     1     105.509 124.955 140.395  0.00  0.00    +0.000 A 
ATOM     19  C   UNL     1     105.756 124.367 140.917  0.00  0.00    +0.000 A 
BRANCH  19  20
ATOM     20  O   UNL     1     106.254 124.557 141.547  0.00  0.00    +0.000 OA
ATOM     21  C   UNL     1     105.935 124.820 142.260  0.00  0.00    +0.000 C 
ENDBRANCH  19  20
ENDBRANCH   5  14
TORSDOF 2
ENDMDL
MODEL 2
REMARK VINA RESULT:      -8.3      7.837      9.604
REMARK  Name = 5118250
REMARK  2 active torsions:
REMARK  status: ('A' for Active; 'I' for Inactive)
REMARK    1  A    between atoms: O_4  and  C_20
REMARK    2  A    between atoms: C_6  and  C_8
REMARK                            x       y       z     vdW  Elec       q    Type
REMARK                         _______ _______ _______ _____ _____    ______ ____
ROOT
ATOM      1  O   UNL     1     105.535 124.457 147.773  0.00  0.00    +0.000 OA
ATOM      2  O   UNL     1     106.966 125.548 146.074  0.00  0.00    +0.000 OA
ATOM      3  O   UNL     1     108.104 125.497 146.959  0.00  0.00    +0.000 OA
ATOM      4  O   UNL     1     107.788 124.319 149.612  0.00  0.00    +0.000 OA
ATOM      5  C   UNL     1     105.217 124.671 147.042  0.00  0.00    +0.000 C 
ATOM      6  C   UNL     1     105.694 125.034 146.476  0.00  0.00    +0.000 C 
ATOM      7  C   UNL     1     106.805 124.971 147.371  0.00  0.00    +0.000 A 
ATOM      8  C   UNL     1     106.488 125.184 146.641  0.00  0.00    +0.000 C 
ATOM      9  C   UNL     1     106.328 124.607 147.938  0.00  0.00    +0.000 A 
ATOM     10  C   UNL     1     107.635 125.133 147.531  0.00  0.00    +0.000 A 
ATOM     11  C   UNL     1     106.647 124.380 148.703  0.00  0.00    +0.000 A 
ATOM     12  C   UNL     1     107.970 124.912 148.291  0.00  0.00    +0.000 A 
ATOM     13  C   UNL     1     107.474 124.534 148.880  0.00  0.00    +0.000 A 
ENDROOT
BRANCH   5  14
ATOM     14  C   UNL     1     104.423 124.521 146.877  0.00  0.00    +0.000 A 
ATOM     15  C   UNL     1     104.214 123.887 146.392  0.00  0.00    +0.000 A 
ATOM     16  C   UNL     1     103.836 125.006 147.198  0.00  0.00    +0.000 A 
ATOM     17  C   UNL     1     103.420 123.737 146.228  0.00  0.00    +0.000 A 
ATOM     18  C   UNL     1     103.042 124.855 147.032  0.00  0.00    +0.000 A 
ATOM     19  C   UNL     1     102.833 124.222 146.548  0.00  0.00    +0.000 A 
BRANCH  19  20
ATOM     20  O   UNL     1     102.039 124.071 146.383  0.00  0.00    +0.000 OA
ATOM     21  C   UNL     1     101.502 123.965 146.999  0.00  0.00    +0.000 C 
ENDBRANCH  19  20
ENDBRANCH   5  14
TORSDOF 2
ENDMDL
MODEL 3
REMARK VINA RESULT:      -8.1      6.891      8.285
REMARK  Name = 5118250
REMARK  2 active torsions:
REMARK  status: ('A' for Active; 'I' for Inactive)
REMARK    1  A    between atoms: O_4  and  C_20
REMARK    2  A    between atoms: C_6  and  C_8
REMARK                            x       y       z     vdW  Elec       q    Type
REMARK                         _______ _______ _______ _____ _____    ______ ____
ROOT
ATOM      1  O   UNL     1     102.983 130.458 142.181  0.00  0.00    +0.000 OA
ATOM      2  O   UNL     1     102.876 129.258 140.020  0.00  0.00    +0.000 OA
ATOM      3  O   UNL     1     103.814 128.268 140.491  0.00  0.00    +0.000 OA
ATOM      4  O   UNL     1     104.879 128.497 143.200  0.00  0.00    +0.000 OA
ATOM      5  C   UNL     1     102.500 130.742 141.576  0.00  0.00    +0.000 C 
ATOM      6  C   UNL     1     102.464 130.342 140.855  0.00  0.00    +0.000 C 
ATOM      7  C   UNL     1     103.394 129.375 141.347  0.00  0.00    +0.000 A 
ATOM      8  C   UNL     1     102.912 129.658 140.741  0.00  0.00    +0.000 C 
ATOM      9  C   UNL     1     103.430 129.775 142.067  0.00  0.00    +0.000 A 
ATOM     10  C   UNL     1     103.856 128.661 141.215  0.00  0.00    +0.000 A 
ATOM     11  C   UNL     1     103.929 129.489 142.706  0.00  0.00    +0.000 A 
ATOM     12  C   UNL     1     104.360 128.361 141.842  0.00  0.00    +0.000 A 
ATOM     13  C   UNL     1     104.397 128.778 142.593  0.00  0.00    +0.000 A 
ENDROOT
BRANCH   5  14
ATOM     14  C   UNL     1     102.053 131.425 141.690  0.00  0.00    +0.000 A 
ATOM     15  C   UNL     1     101.279 131.371 141.971  0.00  0.00    +0.000 A 
ATOM     16  C   UNL     1     102.380 132.165 141.523  0.00  0.00    +0.000 A 
ATOM     17  C   UNL     1     100.832 132.054 142.085  0.00  0.00    +0.000 A 
ATOM     18  C   UNL     1     101.932 132.849 141.638  0.00  0.00    +0.000 A 
ATOM     19  C   UNL     1     101.159 132.794 141.918  0.00  0.00    +0.000 A 
BRANCH  19  20
ATOM     20  O   UNL     1     100.711 133.478 142.033  0.00  0.00    +0.000 OA
ATOM     21  C   UNL     1     100.896 134.167 141.619  0.00  0.00    +0.000 C 
ENDBRANCH  19  20
ENDBRANCH   5  14
TORSDOF 2
ENDMDL
MODEL 4
REMARK VINA RESULT:      -8.1      1.023      4.333
REMARK  Name = 5118250
REMARK  2 active torsions:
REMARK  status: ('A' for Active; 'I' for Inactive)
REMARK    1  A    between atoms: O_4  and  C_20
REMARK    2  A    between atoms: C_6  and  C_8
REMARK                            x       y       z     vdW  Elec       q    Type
REMARK                         _______ _______ _______ _____ _____    ______ ____
ROOT
ATOM      1  O   UNL     1     104.787 123.468 138.880  0.00  0.00    +0.000 OA
ATOM      2  O   UNL     1     104.467 125.821 139.579  0.00  0.00    +0.000 OA
ATOM      3  O   UNL     1     105.433 125.667 140.639  0.00  0.00    +0.000 OA
ATOM      4  O   UNL     1     106.748 123.085 140.999  0.00  0.00    +0.000 OA
ATOM      5  C   UNL     1     104.253 123.949 138.475  0.00  0.00    +0.000 C 
ATOM      6  C   UNL     1     104.146 124.734 138.708  0.00  0.00    +0.000 C 
ATOM      7  C   UNL     1     105.107 124.555 139.750  0.00  0.00    +0.000 A 
ATOM      8  C   UNL     1     104.574 125.036 139.346  0.00  0.00    +0.000 C 
ATOM      9  C   UNL     1     105.214 123.771 139.517  0.00  0.00    +0.000 A 
ATOM     10  C   UNL     1     105.546 124.882 140.413  0.00  0.00    +0.000 A 
ATOM     11  C   UNL     1     105.768 123.259 139.931  0.00  0.00    +0.000 A 
ATOM     12  C   UNL     1     106.104 124.385 140.838  0.00  0.00    +0.000 A 
ATOM     13  C   UNL     1     106.215 123.569 140.596  0.00  0.00    +0.000 A 
ENDROOT
BRANCH   5  14
ATOM     14  C   UNL     1     103.826 123.647 137.838  0.00  0.00    +0.000 A 
ATOM     15  C   UNL     1     103.006 123.569 137.889  0.00  0.00    +0.000 A 
ATOM     16  C   UNL     1     104.219 123.422 137.147  0.00  0.00    +0.000 A 
ATOM     17  C   UNL     1     102.579 123.267 137.252  0.00  0.00    +0.000 A 
ATOM     18  C   UNL     1     103.792 123.119 136.510  0.00  0.00    +0.000 A 
ATOM     19  C   UNL     1     102.973 123.042 136.561  0.00  0.00    +0.000 A 
BRANCH  19  20
ATOM     20  O   UNL     1     102.545 122.739 135.924  0.00  0.00    +0.000 OA
ATOM     21  C   UNL     1     102.579 123.112 135.190  0.00  0.00    +0.000 C 
ENDBRANCH  19  20
ENDBRANCH   5  14
TORSDOF 2
ENDMDL
MODEL 5
REMARK VINA RESULT:      -7.9      0.946      4.468
REMARK  Name = 5118250
REMARK  2 active torsions:
REMARK  status: ('A' for Active; 'I' for Inactive)
REMARK    1  A    between atoms: O_4  and  C_20
REMARK    2  A    between atoms: C_6  and  C_8
REMARK                            x       y       z     vdW  Elec       q    Type
REMARK                         _______ _______ _______ _____ _____    ______ ____
ROOT
ATOM      1  O   UNL     1     104.514 124.621 139.314  0.00  0.00    +0.000 OA
ATOM      2  O   UNL     1     105.924 122.840 140.297  0.00  0.00    +0.000 OA
ATOM      3  O   UNL     1     106.490 123.771 141.241  0.00  0.00    +0.000 OA
ATOM      4  O   UNL     1     105.614 126.556 141.191  0.00  0.00    +0.000 OA
ATOM      5  C   UNL     1     104.475 123.853 139.014  0.00  0.00    +0.000 C 
ATOM      6  C   UNL     1     104.945 123.259 139.342  0.00  0.00    +0.000 C 
ATOM      7  C   UNL     1     105.491 124.202 140.267  0.00  0.00    +0.000 A 
ATOM      8  C   UNL     1     105.453 123.435 139.968  0.00  0.00    +0.000 C 
ATOM      9  C   UNL     1     105.021 124.796 139.939  0.00  0.00    +0.000 A 
ATOM     10  C   UNL     1     106.024 124.371 140.920  0.00  0.00    +0.000 A 
ATOM     11  C   UNL     1     105.052 125.600 140.242  0.00  0.00    +0.000 A 
ATOM     12  C   UNL     1     106.068 125.169 141.235  0.00  0.00    +0.000 A 
ATOM     13  C   UNL     1     105.578 125.787 140.894  0.00  0.00    +0.000 A 
ENDROOT
BRANCH   5  14
ATOM     14  C   UNL     1     103.968 123.678 138.388  0.00  0.00    +0.000 A 
ATOM     15  C   UNL     1     103.151 123.702 138.500  0.00  0.00    +0.000 A 
ATOM     16  C   UNL     1     104.278 123.480 137.649  0.00  0.00    +0.000 A 
ATOM     17  C   UNL     1     102.643 123.527 137.874  0.00  0.00    +0.000 A 
ATOM     18  C   UNL     1     103.769 123.305 137.023  0.00  0.00    +0.000 A 
ATOM     19  C   UNL     1     102.953 123.329 137.135  0.00  0.00    +0.000 A 
BRANCH  19  20
ATOM     20  O   UNL     1     102.445 123.154 136.508  0.00  0.00    +0.000 OA
ATOM     21  C   UNL     1     102.736 122.789 135.829  0.00  0.00    +0.000 C 
ENDBRANCH  19  20
ENDBRANCH   5  14
TORSDOF 2
ENDMDL
MODEL 6
REMARK VINA RESULT:      -7.9      7.628      8.808
REMARK  Name = 5118250
REMARK  2 active torsions:
REMARK  status: ('A' for Active; 'I' for Inactive)
REMARK    1  A    between atoms: O_4  and  C_20
REMARK    2  A    between atoms: C_6  and  C_8
REMARK                            x       y       z     vdW  Elec       q    Type
REMARK                         _______ _______ _______ _____ _____    ______ ____
ROOT
ATOM      1  O   UNL     1     112.061 125.806 136.274  0.00  0.00    +0.000 OA
ATOM      2  O   UNL     1     111.895 123.456 137.031  0.00  0.00    +0.000 OA
ATOM      3  O   UNL     1     113.329 123.364 137.152  0.00  0.00    +0.000 OA
ATOM      4  O   UNL     1     114.963 125.694 136.495  0.00  0.00    +0.000 OA
ATOM      5  C   UNL     1     111.321 125.447 136.344  0.00  0.00    +0.000 C 
ATOM      6  C   UNL     1     111.266 124.664 136.596  0.00  0.00    +0.000 C 
ATOM      7  C   UNL     1     112.689 124.599 136.708  0.00  0.00    +0.000 A 
ATOM      8  C   UNL     1     111.951 124.240 136.778  0.00  0.00    +0.000 C 
ATOM      9  C   UNL     1     112.745 125.383 136.456  0.00  0.00    +0.000 A 
ATOM     10  C   UNL     1     113.395 124.147 136.901  0.00  0.00    +0.000 A 
ATOM     11  C   UNL     1     113.509 125.768 136.379  0.00  0.00    +0.000 A 
ATOM     12  C   UNL     1     114.167 124.516 136.829  0.00  0.00    +0.000 A 
ATOM     13  C   UNL     1     114.225 125.332 136.567  0.00  0.00    +0.000 A 
ENDROOT
BRANCH   5  14
ATOM     14  C   UNL     1     110.638 125.871 136.162  0.00  0.00    +0.000 A 
ATOM     15  C   UNL     1     110.348 125.876 135.390  0.00  0.00    +0.000 A 
ATOM     16  C   UNL     1     110.243 126.291 136.754  0.00  0.00    +0.000 A 
ATOM     17  C   UNL     1     109.665 126.300 135.208  0.00  0.00    +0.000 A 
ATOM     18  C   UNL     1     109.559 126.714 136.571  0.00  0.00    +0.000 A 
ATOM     19  C   UNL     1     109.270 126.719 135.799  0.00  0.00    +0.000 A 
BRANCH  19  20
ATOM     20  O   UNL     1     108.585 127.143 135.617  0.00  0.00    +0.000 OA
ATOM     21  C   UNL     1     108.562 127.959 135.731  0.00  0.00    +0.000 C 
ENDBRANCH  19  20
ENDBRANCH   5  14
TORSDOF 2
ENDMDL
MODEL 7
REMARK VINA RESULT:      -7.7      7.144      7.862
REMARK  Name = 5118250
REMARK  2 active torsions:
REMARK  status: ('A' for Active; 'I' for Inactive)
REMARK    1  A    between atoms: O_4  and  C_20
REMARK    2  A    between atoms: C_6  and  C_8
REMARK                            x       y       z     vdW  Elec       q    Type
REMARK                         _______ _______ _______ _____ _____    ______ ____
ROOT
ATOM      1  O   UNL     1     110.563 127.304 135.771  0.00  0.00    +0.000 OA
ATOM      2  O   UNL     1     108.124 127.348 136.192  0.00  0.00    +0.000 OA
ATOM      3  O   UNL     1     108.048 128.726 135.772  0.00  0.00    +0.000 OA
ATOM      4  O   UNL     1     110.485 130.084 134.909  0.00  0.00    +0.000 OA
ATOM      5  C   UNL     1     110.181 126.628 136.051  0.00  0.00    +0.000 C 
ATOM      6  C   UNL     1     109.368 126.643 136.192  0.00  0.00    +0.000 C 
ATOM      7  C   UNL     1     109.320 128.008 135.771  0.00  0.00    +0.000 A 
ATOM      8  C   UNL     1     108.938 127.333 136.051  0.00  0.00    +0.000 C 
ATOM      9  C   UNL     1     110.133 127.993 135.630  0.00  0.00    +0.000 A 
ATOM     10  C   UNL     1     108.861 128.721 135.629  0.00  0.00    +0.000 A 
ATOM     11  C   UNL     1     110.542 128.690 135.338  0.00  0.00    +0.000 A 
ATOM     12  C   UNL     1     109.253 129.426 135.336  0.00  0.00    +0.000 A 
ATOM     13  C   UNL     1     110.100 129.411 135.190  0.00  0.00    +0.000 A 
ENDROOT
BRANCH   5  14
ATOM     14  C   UNL     1     110.610 125.939 136.192  0.00  0.00    +0.000 A 
ATOM     15  C   UNL     1     110.768 125.417 135.572  0.00  0.00    +0.000 A 
ATOM     16  C   UNL     1     110.883 125.770 136.953  0.00  0.00    +0.000 A 
ATOM     17  C   UNL     1     111.198 124.728 135.712  0.00  0.00    +0.000 A 
ATOM     18  C   UNL     1     111.313 125.080 137.093  0.00  0.00    +0.000 A 
ATOM     19  C   UNL     1     111.471 124.559 136.474  0.00  0.00    +0.000 A 
BRANCH  19  20
ATOM     20  O   UNL     1     111.901 123.869 136.614  0.00  0.00    +0.000 OA
ATOM     21  C   UNL     1     112.706 123.912 136.789  0.00  0.00    +0.000 C 
ENDBRANCH  19  20
ENDBRANCH   5  14
TORSDOF 2
ENDMDL
MODEL 8
REMARK VINA RESULT:      -7.6      7.199      8.936
REMARK  Name = 5118250
REMARK  2 active torsions:
REMARK  status: ('A' for Active; 'I' for Inactive)
REMARK    1  A    between atoms: O_4  and  C_20
REMARK    2  A    between atoms: C_6  and  C_8
REMARK                            x       y       z     vdW  Elec       q    Type
REMARK                         _______ _______ _______ _____ _____    ______ ____
ROOT
ATOM      1  O   UNL     1     104.255 124.294 146.303  0.00  0.00    +0.000 OA
ATOM      2  O   UNL     1     104.469 124.684 148.738  0.00  0.00    +0.000 OA
ATOM      3  O   UNL     1     105.810 125.189 148.567  0.00  0.00    +0.000 OA
ATOM      4  O   UNL     1     106.954 125.302 145.883  0.00  0.00    +0.000 OA
ATOM      5  C   UNL     1     103.627 124.111 146.806  0.00  0.00    +0.000 C 
ATOM      6  C   UNL     1     103.699 124.241 147.618  0.00  0.00    +0.000 C 
ATOM      7  C   UNL     1     105.024 124.737 147.422  0.00  0.00    +0.000 A 
ATOM      8  C   UNL     1     104.398 124.554 147.925  0.00  0.00    +0.000 C 
ATOM      9  C   UNL     1     104.953 124.607 146.610  0.00  0.00    +0.000 A 
ATOM     10  C   UNL     1     105.747 125.063 147.754  0.00  0.00    +0.000 A 
ATOM     11  C   UNL     1     105.599 124.794 146.075  0.00  0.00    +0.000 A 
ATOM     12  C   UNL     1     106.403 125.255 147.235  0.00  0.00    +0.000 A 
ATOM     13  C   UNL     1     106.329 125.120 146.390  0.00  0.00    +0.000 A 
ENDROOT
BRANCH   5  14
ATOM     14  C   UNL     1     102.929 123.798 146.499  0.00  0.00    +0.000 A 
ATOM     15  C   UNL     1     102.221 124.213 146.577  0.00  0.00    +0.000 A 
ATOM     16  C   UNL     1     102.939 123.068 146.113  0.00  0.00    +0.000 A 
ATOM     17  C   UNL     1     101.523 123.901 146.270  0.00  0.00    +0.000 A 
ATOM     18  C   UNL     1     102.240 122.755 145.805  0.00  0.00    +0.000 A 
ATOM     19  C   UNL     1     101.532 123.171 145.884  0.00  0.00    +0.000 A 
BRANCH  19  20
ATOM     20  O   UNL     1     100.833 122.858 145.576  0.00  0.00    +0.000 OA
ATOM     21  C   UNL     1     100.756 122.739 144.764  0.00  0.00    +0.000 C 
ENDBRANCH  19  20
ENDBRANCH   5  14
TORSDOF 2
ENDMDL
MODEL 9
REMARK VINA RESULT:      -7.6      9.165     10.258
REMARK  Name = 5118250
REMARK  2 active torsions:
REMARK  status: ('A' for Active; 'I' for Inactive)
REMARK    1  A    between atoms: O_4  and  C_20
REMARK    2  A    between atoms: C_6  and  C_8
REMARK                            x       y       z     vdW  Elec       q    Type
REMARK                         _______ _______ _______ _____ _____    ______ ____
ROOT
ATOM      1  O   UNL     1     112.826 126.483 136.357  0.00  0.00    +0.000 OA
ATOM      2  O   UNL     1     114.710 125.251 137.385  0.00  0.00    +0.000 OA
ATOM      3  O   UNL     1     113.991 124.005 137.277  0.00  0.00    +0.000 OA
ATOM      4  O   UNL     1     111.316 124.006 136.107  0.00  0.00    +0.000 OA
ATOM      5  C   UNL     1     113.507 126.889 136.587  0.00  0.00    +0.000 C 
ATOM      6  C   UNL     1     114.135 126.478 136.930  0.00  0.00    +0.000 C 
ATOM      7  C   UNL     1     113.401 125.257 136.811  0.00  0.00    +0.000 A 
ATOM      8  C   UNL     1     114.081 125.662 137.042  0.00  0.00    +0.000 C 
ATOM      9  C   UNL     1     112.773 125.668 136.469  0.00  0.00    +0.000 A 
ATOM     10  C   UNL     1     113.358 124.408 136.933  0.00  0.00    +0.000 A 
ATOM     11  C   UNL     1     112.058 125.258 136.224  0.00  0.00    +0.000 A 
ATOM     12  C   UNL     1     112.652 123.981 136.695  0.00  0.00    +0.000 A 
ATOM     13  C   UNL     1     111.998 124.408 136.338  0.00  0.00    +0.000 A 
ENDROOT
BRANCH   5  14
ATOM     14  C   UNL     1     113.560 127.704 136.475  0.00  0.00    +0.000 A 
ATOM     15  C   UNL     1     113.237 128.219 137.033  0.00  0.00    +0.000 A 
ATOM     16  C   UNL     1     113.936 128.005 135.805  0.00  0.00    +0.000 A 
ATOM     17  C   UNL     1     113.290 129.034 136.921  0.00  0.00    +0.000 A 
ATOM     18  C   UNL     1     113.989 128.821 135.693  0.00  0.00    +0.000 A 
ATOM     19  C   UNL     1     113.666 129.335 136.250  0.00  0.00    +0.000 A 
BRANCH  19  20
ATOM     20  O   UNL     1     113.719 130.151 136.139  0.00  0.00    +0.000 OA
ATOM     21  C   UNL     1     114.365 130.568 136.437  0.00  0.00    +0.000 C 
ENDBRANCH  19  20
ENDBRANCH   5  14
TORSDOF 2
ENDMDL
MODEL 10
REMARK VINA RESULT:      -7.4      9.533     10.784
REMARK  Name = 5118250
REMARK  2 active torsions:
REMARK  status: ('A' for Active; 'I' for Inactive)
REMARK    1  A    between atoms: O_4  and  C_20
REMARK    2  A    between atoms: C_6  and  C_8
REMARK                            x       y       z     vdW  Elec       q    Type
REMARK                         _______ _______ _______ _____ _____    ______ ____
ROOT
ATOM      1  O   UNL     1     113.829 127.555 136.007  0.00  0.00    +0.000 OA
ATOM      2  O   UNL     1     112.882 128.921 137.841  0.00  0.00    +0.000 OA
ATOM      3  O   UNL     1     113.358 130.133 137.221  0.00  0.00    +0.000 OA
ATOM      4  O   UNL     1     114.820 129.961 134.699  0.00  0.00    +0.000 OA
ATOM      5  C   UNL     1     113.431 127.189 136.630  0.00  0.00    +0.000 C 
ATOM      6  C   UNL     1     113.115 127.644 137.241  0.00  0.00    +0.000 C 
ATOM      7  C   UNL     1     113.597 128.830 136.606  0.00  0.00    +0.000 A 
ATOM      8  C   UNL     1     113.198 128.465 137.229  0.00  0.00    +0.000 C 
ATOM      9  C   UNL     1     113.913 128.375 135.995  0.00  0.00    +0.000 A 
ATOM     10  C   UNL     1     113.677 129.686 136.605  0.00  0.00    +0.000 A 
ATOM     11  C   UNL     1     114.331 128.744 135.341  0.00  0.00    +0.000 A 
ATOM     12  C   UNL     1     114.091 130.072 135.959  0.00  0.00    +0.000 A 
ATOM     13  C   UNL     1     114.420 129.598 135.323  0.00  0.00    +0.000 A 
ENDROOT
BRANCH   5  14
ATOM     14  C   UNL     1     113.347 126.369 136.642  0.00  0.00    +0.000 A 
ATOM     15  C   UNL     1     113.966 125.894 136.911  0.00  0.00    +0.000 A 
ATOM     16  C   UNL     1     112.644 126.022 136.384  0.00  0.00    +0.000 A 
ATOM     17  C   UNL     1     113.883 125.074 136.923  0.00  0.00    +0.000 A 
ATOM     18  C   UNL     1     112.561 125.201 136.396  0.00  0.00    +0.000 A 
ATOM     19  C   UNL     1     113.180 124.727 136.665  0.00  0.00    +0.000 A 
BRANCH  19  20
ATOM     20  O   UNL     1     113.097 123.906 136.677  0.00  0.00    +0.000 OA
ATOM     21  C   UNL     1     112.369 123.567 136.865  0.00  0.00    +0.000 C 
ENDBRANCH  19  20
ENDBRANCH   5  14
TORSDOF 2
ENDMDL
