MODEL 1
REMARK VINA RESULT:     -11.1      0.000      0.000
REMARK  Name = 131752833
REMARK  12 active torsions:
REMARK  status: ('A' for Active; 'I' for Inactive)
REMARK    1  A    between atoms: O_1  and  C_28
REMARK    2  A    between atoms: O_1  and  C_31
REMARK    3  A    between atoms: O_3  and  C_27
REMARK    4  A    between atoms: O_3  and  C_34
REMARK    5  A    between atoms: O_8  and  C_36
REMARK    6  A    between atoms: O_8  and  C_45
REMARK    7  A    between atoms: O_18  and  C_50
REMARK    8  A    between atoms: O_18  and  C_57
REMARK    9  A    between atoms: C_32  and  C_42
REMARK   10  A    between atoms: C_38  and  C_43
REMARK   11  A    between atoms: C_41  and  C_44
REMARK   12  A    between atoms: C_51  and  C_56
REMARK                            x       y       z     vdW  Elec       q    Type
REMARK                         _______ _______ _______ _____ _____    ______ ____
ROOT
ATOM      1  O   UNL     1     112.235 127.345 139.253  0.00  0.00    +0.000 OA
ATOM      2  O   UNL     1     112.636 129.655 138.462  0.00  0.00    +0.000 OA
ATOM      3  O   UNL     1     113.599 129.005 139.633  0.00  0.00    +0.000 OA
ATOM      4  C   UNL     1     111.886 128.440 138.404  0.00  0.00    +0.000 C 
ATOM      5  C   UNL     1     112.502 128.885 138.726  0.00  0.00    +0.000 C 
ATOM      6  C   UNL     1     112.984 128.560 139.312  0.00  0.00    +0.000 C 
ATOM      7  C   UNL     1     111.753 127.670 138.668  0.00  0.00    +0.000 C 
ATOM      8  C   UNL     1     112.850 127.790 139.575  0.00  0.00    +0.000 C 
ENDROOT
BRANCH   8  10
ATOM      9  O   UNL     1     113.792 126.800 139.993  0.00  0.00    +0.000 OA
ATOM     10  C   UNL     1     113.332 127.465 140.160  0.00  0.00    +0.000 C 
ENDBRANCH   8  10
BRANCH   4  11
ATOM     11  O   UNL     1     111.404 128.765 137.819  0.00  0.00    +0.000 OA
BRANCH  11  16
ATOM     12  O   UNL     1     112.277 128.352 136.765  0.00  0.00    +0.000 OA
ATOM     13  O   UNL     1     111.396 130.163 135.326  0.00  0.00    +0.000 OA
ATOM     14  O   UNL     1     112.562 129.147 134.752  0.00  0.00    +0.000 OA
ATOM     15  C   UNL     1     111.400 129.464 136.572  0.00  0.00    +0.000 C 
ATOM     16  C   UNL     1     111.694 128.861 137.052  0.00  0.00    +0.000 C 
ATOM     17  C   UNL     1     111.690 129.560 135.806  0.00  0.00    +0.000 C 
ATOM     18  C   UNL     1     112.272 129.052 135.519  0.00  0.00    +0.000 C 
ATOM     19  C   UNL     1     112.566 128.448 135.999  0.00  0.00    +0.000 C 
BRANCH  19  21
ATOM     20  O   UNL     1     113.905 127.950 136.043  0.00  0.00    +0.000 OA
ATOM     21  C   UNL     1     113.150 127.940 135.711  0.00  0.00    +0.000 C 
ENDBRANCH  19  21
BRANCH  15  22
ATOM     22  O   UNL     1     110.817 129.972 136.860  0.00  0.00    +0.000 OA
BRANCH  22  27
ATOM     23  O   UNL     1     109.788 129.154 136.299  0.00  0.00    +0.000 OA
ATOM     24  O   UNL     1     109.733 131.201 137.057  0.00  0.00    +0.000 OA
ATOM     25  O   UNL     1     108.162 130.997 136.595  0.00  0.00    +0.000 OA
ATOM     26  O   UNL     1     107.675 129.564 135.936  0.00  0.00    +0.000 OA
ATOM     27  C   UNL     1     110.032 129.870 136.629  0.00  0.00    +0.000 C 
ATOM     28  C   UNL     1     109.489 130.484 136.727  0.00  0.00    +0.000 C 
ATOM     29  C   UNL     1     108.705 130.382 136.496  0.00  0.00    +0.000 C 
ATOM     30  C   UNL     1     108.461 129.666 136.167  0.00  0.00    +0.000 C 
ATOM     31  C   UNL     1     109.003 129.052 136.068  0.00  0.00    +0.000 C 
BRANCH  31  33
ATOM     32  O   UNL     1     108.540 127.711 136.230  0.00  0.00    +0.000 OA
ATOM     33  C   UNL     1     108.759 128.336 135.739  0.00  0.00    +0.000 C 
ENDBRANCH  31  33
ENDBRANCH  22  27
ENDBRANCH  15  22
ENDBRANCH  11  16
ENDBRANCH   4  11
BRANCH   7  34
ATOM     34  O   UNL     1     111.137 127.224 138.346  0.00  0.00    +0.000 OA
BRANCH  34  38
ATOM     35  O   UNL     1     110.064 125.530 139.206  0.00  0.00    +0.000 OA
ATOM     36  O   UNL     1     110.339 127.959 139.590  0.00  0.00    +0.000 OA
ATOM     37  O   UNL     1     109.445 127.911 140.720  0.00  0.00    +0.000 OA
ATOM     38  C   UNL     1     110.647 126.782 138.840  0.00  0.00    +0.000 A 
ATOM     39  C   UNL     1     110.555 125.972 138.712  0.00  0.00    +0.000 A 
ATOM     40  C   UNL     1     110.248 127.150 139.462  0.00  0.00    +0.000 A 
ATOM     41  C   UNL     1     109.757 126.706 139.956  0.00  0.00    +0.000 A 
ATOM     42  C   UNL     1     109.665 125.897 139.828  0.00  0.00    +0.000 A 
ATOM     43  C   UNL     1     108.739 125.801 140.985  0.00  0.00    +0.000 A 
ATOM     44  C   UNL     1     109.157 125.425 140.336  0.00  0.00    +0.000 A 
ATOM     45  C   UNL     1     109.347 127.101 140.600  0.00  0.00    +0.000 A 
ATOM     46  C   UNL     1     108.835 126.645 141.118  0.00  0.00    +0.000 A 
BRANCH  39  49
ATOM     47  O   UNL     1     110.718 125.272 135.946  0.00  0.00    +0.000 OA
ATOM     48  O   UNL     1     112.151 124.503 136.225  0.00  0.00    +0.000 OA
ATOM     49  C   UNL     1     110.954 125.605 138.090  0.00  0.00    +0.000 A 
ATOM     50  C   UNL     1     110.637 125.622 137.329  0.00  0.00    +0.000 A 
ATOM     51  C   UNL     1     111.671 125.220 138.230  0.00  0.00    +0.000 A 
ATOM     52  C   UNL     1     111.036 125.255 136.707  0.00  0.00    +0.000 A 
ATOM     53  C   UNL     1     112.070 124.853 137.608  0.00  0.00    +0.000 A 
ATOM     54  C   UNL     1     111.752 124.870 136.847  0.00  0.00    +0.000 A 
ENDBRANCH  39  49
BRANCH  43  55
ATOM     55  O   UNL     1     108.249 125.356 141.477  0.00  0.00    +0.000 OA
BRANCH  55  64
ATOM     56  O   UNL     1     107.178 125.061 140.580  0.00  0.00    +0.000 OA
ATOM     57  O   UNL     1     105.541 125.664 142.337  0.00  0.00    +0.000 OA
ATOM     58  O   UNL     1     105.014 125.169 140.854  0.00  0.00    +0.000 OA
ATOM     59  O   UNL     1     107.159 125.757 142.649  0.00  0.00    +0.000 OA
ATOM     60  C   UNL     1     106.086 125.463 141.752  0.00  0.00    +0.000 C 
ATOM     61  C   UNL     1     105.823 125.215 141.010  0.00  0.00    +0.000 C 
ATOM     62  C   UNL     1     106.895 125.510 141.907  0.00  0.00    +0.000 C 
ATOM     63  C   UNL     1     106.369 125.015 140.424  0.00  0.00    +0.000 C 
ATOM     64  C   UNL     1     107.440 125.309 141.321  0.00  0.00    +0.000 C 
ATOM     65  C   UNL     1     106.105 124.767 139.683  0.00  0.00    +0.000 C 
ENDBRANCH  55  64
ENDBRANCH  43  55
ENDBRANCH  34  38
ENDBRANCH   7  34
TORSDOF 12
ENDMDL
MODEL 2
REMARK VINA RESULT:     -10.8      2.451      4.574
REMARK  Name = 131752833
REMARK  12 active torsions:
REMARK  status: ('A' for Active; 'I' for Inactive)
REMARK    1  A    between atoms: O_1  and  C_28
REMARK    2  A    between atoms: O_1  and  C_31
REMARK    3  A    between atoms: O_3  and  C_27
REMARK    4  A    between atoms: O_3  and  C_34
REMARK    5  A    between atoms: O_8  and  C_36
REMARK    6  A    between atoms: O_8  and  C_45
REMARK    7  A    between atoms: O_18  and  C_50
REMARK    8  A    between atoms: O_18  and  C_57
REMARK    9  A    between atoms: C_32  and  C_42
REMARK   10  A    between atoms: C_38  and  C_43
REMARK   11  A    between atoms: C_41  and  C_44
REMARK   12  A    between atoms: C_51  and  C_56
REMARK                            x       y       z     vdW  Elec       q    Type
REMARK                         _______ _______ _______ _____ _____    ______ ____
ROOT
ATOM      1  O   UNL     1     110.451 126.797 139.921  0.00  0.00    +0.000 OA
ATOM      2  O   UNL     1     108.618 126.207 138.367  0.00  0.00    +0.000 OA
ATOM      3  O   UNL     1     108.613 125.621 139.909  0.00  0.00    +0.000 OA
ATOM      4  C   UNL     1     109.842 126.894 138.631  0.00  0.00    +0.000 C 
ATOM      5  C   UNL     1     109.229 126.404 138.885  0.00  0.00    +0.000 C 
ATOM      6  C   UNL     1     109.226 126.110 139.656  0.00  0.00    +0.000 C 
ATOM      7  C   UNL     1     110.453 127.091 139.150  0.00  0.00    +0.000 C 
ATOM      8  C   UNL     1     109.838 126.308 140.174  0.00  0.00    +0.000 C 
ENDROOT
BRANCH   8  10
ATOM      9  O   UNL     1     110.490 125.600 141.230  0.00  0.00    +0.000 OA
ATOM     10  C   UNL     1     109.836 126.014 140.945  0.00  0.00    +0.000 C 
ENDBRANCH   8  10
BRANCH   4  11
ATOM     11  O   UNL     1     109.845 127.188 137.860  0.00  0.00    +0.000 OA
BRANCH  11  16
ATOM     12  O   UNL     1     110.520 126.046 137.329  0.00  0.00    +0.000 OA
ATOM     13  O   UNL     1     109.466 126.447 135.126  0.00  0.00    +0.000 OA
ATOM     14  O   UNL     1     110.492 125.171 135.330  0.00  0.00    +0.000 OA
ATOM     15  C   UNL     1     109.655 126.817 136.493  0.00  0.00    +0.000 C 
ATOM     16  C   UNL     1     110.007 126.683 137.227  0.00  0.00    +0.000 C 
ATOM     17  C   UNL     1     109.817 126.313 135.861  0.00  0.00    +0.000 C 
ATOM     18  C   UNL     1     110.330 125.676 135.962  0.00  0.00    +0.000 C 
ATOM     19  C   UNL     1     110.681 125.542 136.696  0.00  0.00    +0.000 C 
BRANCH  19  21
ATOM     20  O   UNL     1     111.179 124.469 137.500  0.00  0.00    +0.000 OA
ATOM     21  C   UNL     1     111.195 124.903 136.798  0.00  0.00    +0.000 C 
ENDBRANCH  19  21
BRANCH  15  22
ATOM     22  O   UNL     1     109.142 127.455 136.392  0.00  0.00    +0.000 OA
BRANCH  22  27
ATOM     23  O   UNL     1     110.235 128.298 136.017  0.00  0.00    +0.000 OA
ATOM     24  O   UNL     1     108.078 128.598 135.859  0.00  0.00    +0.000 OA
ATOM     25  O   UNL     1     108.637 130.012 135.218  0.00  0.00    +0.000 OA
ATOM     26  O   UNL     1     110.262 130.282 135.110  0.00  0.00    +0.000 OA
ATOM     27  C   UNL     1     109.422 128.162 136.071  0.00  0.00    +0.000 C 
ATOM     28  C   UNL     1     108.890 128.734 135.805  0.00  0.00    +0.000 C 
ATOM     29  C   UNL     1     109.170 129.440 135.485  0.00  0.00    +0.000 C 
ATOM     30  C   UNL     1     109.982 129.576 135.430  0.00  0.00    +0.000 C 
ATOM     31  C   UNL     1     110.514 129.004 135.697  0.00  0.00    +0.000 C 
BRANCH  31  33
ATOM     32  O   UNL     1     111.773 128.739 135.077  0.00  0.00    +0.000 OA
ATOM     33  C   UNL     1     111.326 129.140 135.642  0.00  0.00    +0.000 C 
ENDBRANCH  31  33
ENDBRANCH  22  27
ENDBRANCH  15  22
ENDBRANCH  11  16
ENDBRANCH   4  11
BRANCH   7  34
ATOM     34  O   UNL     1     111.067 127.581 138.896  0.00  0.00    +0.000 OA
BRANCH  34  38
ATOM     35  O   UNL     1     112.437 128.799 140.081  0.00  0.00    +0.000 OA
ATOM     36  O   UNL     1     110.032 128.713 139.505  0.00  0.00    +0.000 OA
ATOM     37  O   UNL     1     109.769 129.882 140.307  0.00  0.00    +0.000 OA
ATOM     38  C   UNL     1     111.351 128.176 139.393  0.00  0.00    +0.000 A 
ATOM     39  C   UNL     1     112.153 128.205 139.585  0.00  0.00    +0.000 A 
ATOM     40  C   UNL     1     110.833 128.742 139.697  0.00  0.00    +0.000 A 
ATOM     41  C   UNL     1     111.118 129.336 140.194  0.00  0.00    +0.000 A 
ATOM     42  C   UNL     1     111.919 129.365 140.386  0.00  0.00    +0.000 A 
ATOM     43  C   UNL     1     111.694 130.571 141.222  0.00  0.00    +0.000 A 
ATOM     44  C   UNL     1     112.228 129.979 140.902  0.00  0.00    +0.000 A 
ATOM     45  C   UNL     1     110.569 129.919 140.504  0.00  0.00    +0.000 A 
ATOM     46  C   UNL     1     110.858 130.541 141.022  0.00  0.00    +0.000 A 
BRANCH  39  49
ATOM     47  O   UNL     1     113.756 127.220 137.433  0.00  0.00    +0.000 OA
ATOM     48  O   UNL     1     114.224 125.942 138.366  0.00  0.00    +0.000 OA
ATOM     49  C   UNL     1     112.671 127.639 139.280  0.00  0.00    +0.000 A 
ATOM     50  C   UNL     1     112.955 127.712 138.509  0.00  0.00    +0.000 A 
ATOM     51  C   UNL     1     112.905 126.999 139.747  0.00  0.00    +0.000 A 
ATOM     52  C   UNL     1     113.473 127.146 138.204  0.00  0.00    +0.000 A 
ATOM     53  C   UNL     1     113.423 126.434 139.442  0.00  0.00    +0.000 A 
ATOM     54  C   UNL     1     113.706 126.508 138.671  0.00  0.00    +0.000 A 
ENDBRANCH  39  49
BRANCH  43  55
ATOM     55  O   UNL     1     111.981 131.164 141.718  0.00  0.00    +0.000 OA
BRANCH  55  64
ATOM     56  O   UNL     1     111.865 130.429 142.937  0.00  0.00    +0.000 OA
ATOM     57  O   UNL     1     111.222 132.502 144.127  0.00  0.00    +0.000 OA
ATOM     58  O   UNL     1     111.320 131.076 144.950  0.00  0.00    +0.000 OA
ATOM     59  O   UNL     1     111.553 132.547 142.511  0.00  0.00    +0.000 OA
ATOM     60  C   UNL     1     111.437 131.811 143.731  0.00  0.00    +0.000 C 
ATOM     61  C   UNL     1     111.486 131.098 144.142  0.00  0.00    +0.000 C 
ATOM     62  C   UNL     1     111.602 131.833 142.923  0.00  0.00    +0.000 C 
ATOM     63  C   UNL     1     111.700 130.407 143.745  0.00  0.00    +0.000 C 
ATOM     64  C   UNL     1     111.816 131.142 142.526  0.00  0.00    +0.000 C 
ATOM     65  C   UNL     1     111.749 129.693 144.157  0.00  0.00    +0.000 C 
ENDBRANCH  55  64
ENDBRANCH  43  55
ENDBRANCH  34  38
ENDBRANCH   7  34
TORSDOF 12
ENDMDL
MODEL 3
REMARK VINA RESULT:     -10.8      1.090      1.513
REMARK  Name = 131752833
REMARK  12 active torsions:
REMARK  status: ('A' for Active; 'I' for Inactive)
REMARK    1  A    between atoms: O_1  and  C_28
REMARK    2  A    between atoms: O_1  and  C_31
REMARK    3  A    between atoms: O_3  and  C_27
REMARK    4  A    between atoms: O_3  and  C_34
REMARK    5  A    between atoms: O_8  and  C_36
REMARK    6  A    between atoms: O_8  and  C_45
REMARK    7  A    between atoms: O_18  and  C_50
REMARK    8  A    between atoms: O_18  and  C_57
REMARK    9  A    between atoms: C_32  and  C_42
REMARK   10  A    between atoms: C_38  and  C_43
REMARK   11  A    between atoms: C_41  and  C_44
REMARK   12  A    between atoms: C_51  and  C_56
REMARK                            x       y       z     vdW  Elec       q    Type
REMARK                         _______ _______ _______ _____ _____    ______ ____
ROOT
ATOM      1  O   UNL     1     112.240 128.962 139.448  0.00  0.00    +0.000 OA
ATOM      2  O   UNL     1     112.010 130.737 137.738  0.00  0.00    +0.000 OA
ATOM      3  O   UNL     1     112.792 131.053 139.156  0.00  0.00    +0.000 OA
ATOM      4  C   UNL     1     111.772 129.395 138.169  0.00  0.00    +0.000 C 
ATOM      5  C   UNL     1     112.087 130.146 138.308  0.00  0.00    +0.000 C 
ATOM      6  C   UNL     1     112.478 130.304 139.017  0.00  0.00    +0.000 C 
ATOM      7  C   UNL     1     111.849 128.804 138.739  0.00  0.00    +0.000 C 
ATOM      8  C   UNL     1     112.554 129.712 139.587  0.00  0.00    +0.000 C 
ENDROOT
BRANCH   8  10
ATOM      9  O   UNL     1     113.628 129.451 140.493  0.00  0.00    +0.000 OA
ATOM     10  C   UNL     1     112.945 129.870 140.296  0.00  0.00    +0.000 C 
ENDBRANCH   8  10
BRANCH   4  11
ATOM     11  O   UNL     1     111.381 129.237 137.460  0.00  0.00    +0.000 OA
BRANCH  11  16
ATOM     12  O   UNL     1     112.608 128.998 136.768  0.00  0.00    +0.000 OA
ATOM     13  O   UNL     1     111.483 129.460 134.612  0.00  0.00    +0.000 OA
ATOM     14  O   UNL     1     113.085 129.067 134.639  0.00  0.00    +0.000 OA
ATOM     15  C   UNL     1     111.432 129.348 136.035  0.00  0.00    +0.000 C 
ATOM     16  C   UNL     1     111.807 129.194 136.754  0.00  0.00    +0.000 C 
ATOM     17  C   UNL     1     111.858 129.306 135.331  0.00  0.00    +0.000 C 
ATOM     18  C   UNL     1     112.659 129.109 135.344  0.00  0.00    +0.000 C 
ATOM     19  C   UNL     1     113.034 128.956 136.062  0.00  0.00    +0.000 C 
BRANCH  19  21
ATOM     20  O   UNL     1     114.066 127.968 136.126  0.00  0.00    +0.000 OA
ATOM     21  C   UNL     1     113.836 128.759 136.076  0.00  0.00    +0.000 C 
ENDBRANCH  19  21
BRANCH  15  22
ATOM     22  O   UNL     1     110.631 129.545 136.023  0.00  0.00    +0.000 OA
BRANCH  22  27
ATOM     23  O   UNL     1     110.299 128.173 135.794  0.00  0.00    +0.000 OA
ATOM     24  O   UNL     1     109.026 129.928 136.054  0.00  0.00    +0.000 OA
ATOM     25  O   UNL     1     107.892 128.748 135.841  0.00  0.00    +0.000 OA
ATOM     26  O   UNL     1     108.363 127.186 135.596  0.00  0.00    +0.000 OA
ATOM     27  C   UNL     1     110.064 128.955 135.916  0.00  0.00    +0.000 C 
ATOM     28  C   UNL     1     109.262 129.146 135.932  0.00  0.00    +0.000 C 
ATOM     29  C   UNL     1     108.695 128.557 135.825  0.00  0.00    +0.000 C 
ATOM     30  C   UNL     1     108.930 127.775 135.703  0.00  0.00    +0.000 C 
ATOM     31  C   UNL     1     109.733 127.584 135.687  0.00  0.00    +0.000 C 
BRANCH  31  33
ATOM     32  O   UNL     1     110.273 126.575 134.834  0.00  0.00    +0.000 OA
ATOM     33  C   UNL     1     109.968 126.803 135.565  0.00  0.00    +0.000 C 
ENDBRANCH  31  33
ENDBRANCH  22  27
ENDBRANCH  15  22
ENDBRANCH  11  16
ENDBRANCH   4  11
BRANCH   7  34
ATOM     34  O   UNL     1     111.534 128.054 138.600  0.00  0.00    +0.000 OA
BRANCH  34  38
ATOM     35  O   UNL     1     110.915 126.529 140.034  0.00  0.00    +0.000 OA
ATOM     36  O   UNL     1     110.228 128.788 139.292  0.00  0.00    +0.000 OA
ATOM     37  O   UNL     1     109.134 128.795 140.231  0.00  0.00    +0.000 OA
ATOM     38  C   UNL     1     111.110 127.668 139.193  0.00  0.00    +0.000 A 
ATOM     39  C   UNL     1     111.339 126.915 139.440  0.00  0.00    +0.000 A 
ATOM     40  C   UNL     1     110.457 128.035 139.539  0.00  0.00    +0.000 A 
ATOM     41  C   UNL     1     110.034 127.649 140.133  0.00  0.00    +0.000 A 
ATOM     42  C   UNL     1     110.262 126.896 140.380  0.00  0.00    +0.000 A 
ATOM     43  C   UNL     1     109.149 126.861 141.361  0.00  0.00    +0.000 A 
ATOM     44  C   UNL     1     109.829 126.484 140.997  0.00  0.00    +0.000 A 
ATOM     45  C   UNL     1     109.356 128.042 140.485  0.00  0.00    +0.000 A 
ATOM     46  C   UNL     1     108.910 127.646 141.104  0.00  0.00    +0.000 A 
BRANCH  39  49
ATOM     47  O   UNL     1     112.471 125.353 137.331  0.00  0.00    +0.000 OA
ATOM     48  O   UNL     1     113.950 125.446 138.056  0.00  0.00    +0.000 OA
ATOM     49  C   UNL     1     111.992 126.548 139.094  0.00  0.00    +0.000 A 
ATOM     50  C   UNL     1     111.906 126.134 138.386  0.00  0.00    +0.000 A 
ATOM     51  C   UNL     1     112.732 126.594 139.457  0.00  0.00    +0.000 A 
ATOM     52  C   UNL     1     112.558 125.767 138.040  0.00  0.00    +0.000 A 
ATOM     53  C   UNL     1     113.385 126.227 139.111  0.00  0.00    +0.000 A 
ATOM     54  C   UNL     1     113.297 125.813 138.402  0.00  0.00    +0.000 A 
ENDBRANCH  39  49
BRANCH  43  55
ATOM     55  O   UNL     1     108.727 126.472 141.955  0.00  0.00    +0.000 OA
BRANCH  55  64
ATOM     56  O   UNL     1     107.841 125.736 141.110  0.00  0.00    +0.000 OA
ATOM     57  O   UNL     1     105.987 126.145 142.698  0.00  0.00    +0.000 OA
ATOM     58  O   UNL     1     105.718 125.272 141.324  0.00  0.00    +0.000 OA
ATOM     59  O   UNL     1     107.491 126.745 143.014  0.00  0.00    +0.000 OA
ATOM     60  C   UNL     1     106.604 126.009 142.169  0.00  0.00    +0.000 C 
ATOM     61  C   UNL     1     106.470 125.572 141.482  0.00  0.00    +0.000 C 
ATOM     62  C   UNL     1     107.357 126.309 142.327  0.00  0.00    +0.000 C 
ATOM     63  C   UNL     1     107.089 125.436 140.953  0.00  0.00    +0.000 C 
ATOM     64  C   UNL     1     107.974 126.172 141.797  0.00  0.00    +0.000 C 
ATOM     65  C   UNL     1     106.954 125.000 140.265  0.00  0.00    +0.000 C 
ENDBRANCH  55  64
ENDBRANCH  43  55
ENDBRANCH  34  38
ENDBRANCH   7  34
TORSDOF 12
ENDMDL
MODEL 4
REMARK VINA RESULT:     -10.5      2.514      5.252
REMARK  Name = 131752833
REMARK  12 active torsions:
REMARK  status: ('A' for Active; 'I' for Inactive)
REMARK    1  A    between atoms: O_1  and  C_28
REMARK    2  A    between atoms: O_1  and  C_31
REMARK    3  A    between atoms: O_3  and  C_27
REMARK    4  A    between atoms: O_3  and  C_34
REMARK    5  A    between atoms: O_8  and  C_36
REMARK    6  A    between atoms: O_8  and  C_45
REMARK    7  A    between atoms: O_18  and  C_50
REMARK    8  A    between atoms: O_18  and  C_57
REMARK    9  A    between atoms: C_32  and  C_42
REMARK   10  A    between atoms: C_38  and  C_43
REMARK   11  A    between atoms: C_41  and  C_44
REMARK   12  A    between atoms: C_51  and  C_56
REMARK                            x       y       z     vdW  Elec       q    Type
REMARK                         _______ _______ _______ _____ _____    ______ ____
ROOT
ATOM      1  O   UNL     1     109.571 130.464 137.083  0.00  0.00    +0.000 OA
ATOM      2  O   UNL     1     108.258 128.621 136.080  0.00  0.00    +0.000 OA
ATOM      3  O   UNL     1     107.845 130.190 135.777  0.00  0.00    +0.000 OA
ATOM      4  C   UNL     1     109.340 129.065 136.901  0.00  0.00    +0.000 C 
ATOM      5  C   UNL     1     108.695 129.236 136.414  0.00  0.00    +0.000 C 
ATOM      6  C   UNL     1     108.489 130.020 136.262  0.00  0.00    +0.000 C 
ATOM      7  C   UNL     1     109.778 129.680 137.235  0.00  0.00    +0.000 C 
ATOM      8  C   UNL     1     108.927 130.634 136.597  0.00  0.00    +0.000 C 
ENDROOT
BRANCH   8  10
ATOM      9  O   UNL     1     109.290 131.948 136.171  0.00  0.00    +0.000 OA
ATOM     10  C   UNL     1     108.721 131.418 136.445  0.00  0.00    +0.000 C 
ENDBRANCH   8  10
BRANCH   4  11
ATOM     11  O   UNL     1     109.547 128.281 137.053  0.00  0.00    +0.000 OA
BRANCH  11  16
ATOM     12  O   UNL     1     110.285 128.189 135.832  0.00  0.00    +0.000 OA
ATOM     13  O   UNL     1     110.149 125.720 135.937  0.00  0.00    +0.000 OA
ATOM     14  O   UNL     1     110.932 126.451 134.682  0.00  0.00    +0.000 OA
ATOM     15  C   UNL     1     109.848 127.000 136.494  0.00  0.00    +0.000 C 
ATOM     16  C   UNL     1     109.893 127.823 136.460  0.00  0.00    +0.000 C 
ATOM     17  C   UNL     1     110.194 126.543 135.902  0.00  0.00    +0.000 C 
ATOM     18  C   UNL     1     110.585 126.908 135.275  0.00  0.00    +0.000 C 
ATOM     19  C   UNL     1     110.630 127.731 135.240  0.00  0.00    +0.000 C 
BRANCH  19  21
ATOM     20  O   UNL     1     111.810 128.327 134.695  0.00  0.00    +0.000 OA
ATOM     21  C   UNL     1     111.022 128.097 134.612  0.00  0.00    +0.000 C 
ENDBRANCH  19  21
BRANCH  15  22
ATOM     22  O   UNL     1     109.456 126.635 137.122  0.00  0.00    +0.000 OA
BRANCH  22  27
ATOM     23  O   UNL     1     110.702 126.395 137.780  0.00  0.00    +0.000 OA
ATOM     24  O   UNL     1     108.648 126.211 138.497  0.00  0.00    +0.000 OA
ATOM     25  O   UNL     1     109.490 125.760 139.843  0.00  0.00    +0.000 OA
ATOM     26  O   UNL     1     111.140 125.732 139.813  0.00  0.00    +0.000 OA
ATOM     27  C   UNL     1     109.877 126.409 137.795  0.00  0.00    +0.000 C 
ATOM     28  C   UNL     1     109.474 126.197 138.483  0.00  0.00    +0.000 C 
ATOM     29  C   UNL     1     109.894 125.972 139.154  0.00  0.00    +0.000 C 
ATOM     30  C   UNL     1     110.719 125.958 139.140  0.00  0.00    +0.000 C 
ATOM     31  C   UNL     1     111.123 126.170 138.452  0.00  0.00    +0.000 C 
BRANCH  31  33
ATOM     32  O   UNL     1     112.342 125.545 138.047  0.00  0.00    +0.000 OA
ATOM     33  C   UNL     1     111.947 126.156 138.438  0.00  0.00    +0.000 C 
ENDBRANCH  31  33
ENDBRANCH  22  27
ENDBRANCH  15  22
ENDBRANCH  11  16
ENDBRANCH   4  11
BRANCH   7  34
ATOM     34  O   UNL     1     110.423 129.509 137.721  0.00  0.00    +0.000 OA
BRANCH  34  38
ATOM     35  O   UNL     1     111.306 130.685 139.333  0.00  0.00    +0.000 OA
ATOM     36  O   UNL     1     109.187 129.518 138.814  0.00  0.00    +0.000 OA
ATOM     37  O   UNL     1     108.629 129.906 140.086  0.00  0.00    +0.000 OA
ATOM     38  C   UNL     1     110.511 129.903 138.441  0.00  0.00    +0.000 A 
ATOM     39  C   UNL     1     111.218 130.292 138.614  0.00  0.00    +0.000 A 
ATOM     40  C   UNL     1     109.893 129.907 138.987  0.00  0.00    +0.000 A 
ATOM     41  C   UNL     1     109.982 130.301 139.707  0.00  0.00    +0.000 A 
ATOM     42  C   UNL     1     110.688 130.690 139.880  0.00  0.00    +0.000 A 
ATOM     43  C   UNL     1     110.154 131.112 141.200  0.00  0.00    +0.000 A 
ATOM     44  C   UNL     1     110.793 131.103 140.626  0.00  0.00    +0.000 A 
ATOM     45  C   UNL     1     109.331 130.298 140.268  0.00  0.00    +0.000 A 
ATOM     46  C   UNL     1     109.417 130.706 141.019  0.00  0.00    +0.000 A 
BRANCH  39  49
ATOM     47  O   UNL     1     113.465 128.983 137.428  0.00  0.00    +0.000 OA
ATOM     48  O   UNL     1     113.689 130.275 136.427  0.00  0.00    +0.000 OA
ATOM     49  C   UNL     1     111.836 130.288 138.067  0.00  0.00    +0.000 A 
ATOM     50  C   UNL     1     112.342 129.638 138.020  0.00  0.00    +0.000 A 
ATOM     51  C   UNL     1     111.949 130.934 137.566  0.00  0.00    +0.000 A 
ATOM     52  C   UNL     1     112.959 129.633 137.474  0.00  0.00    +0.000 A 
ATOM     53  C   UNL     1     112.566 130.930 137.019  0.00  0.00    +0.000 A 
ATOM     54  C   UNL     1     113.072 130.279 136.974  0.00  0.00    +0.000 A 
ENDBRANCH  39  49
BRANCH  43  55
ATOM     55  O   UNL     1     110.245 131.506 141.919  0.00  0.00    +0.000 OA
BRANCH  55  64
ATOM     56  O   UNL     1     110.541 130.368 142.729  0.00  0.00    +0.000 OA
ATOM     57  O   UNL     1     112.239 131.685 143.958  0.00  0.00    +0.000 OA
ATOM     58  O   UNL     1     111.969 130.108 144.360  0.00  0.00    +0.000 OA
ATOM     59  O   UNL     1     111.377 132.385 142.738  0.00  0.00    +0.000 OA
ATOM     60  C   UNL     1     111.673 131.246 143.549  0.00  0.00    +0.000 C 
ATOM     61  C   UNL     1     111.538 130.457 143.750  0.00  0.00    +0.000 C 
ATOM     62  C   UNL     1     111.242 131.596 142.939  0.00  0.00    +0.000 C 
ATOM     63  C   UNL     1     110.972 130.019 143.340  0.00  0.00    +0.000 C 
ATOM     64  C   UNL     1     110.676 131.157 142.529  0.00  0.00    +0.000 C 
ATOM     65  C   UNL     1     110.837 129.230 143.541  0.00  0.00    +0.000 C 
ENDBRANCH  55  64
ENDBRANCH  43  55
ENDBRANCH  34  38
ENDBRANCH   7  34
TORSDOF 12
ENDMDL
MODEL 5
REMARK VINA RESULT:     -10.5      3.853      5.267
REMARK  Name = 131752833
REMARK  12 active torsions:
REMARK  status: ('A' for Active; 'I' for Inactive)
REMARK    1  A    between atoms: O_1  and  C_28
REMARK    2  A    between atoms: O_1  and  C_31
REMARK    3  A    between atoms: O_3  and  C_27
REMARK    4  A    between atoms: O_3  and  C_34
REMARK    5  A    between atoms: O_8  and  C_36
REMARK    6  A    between atoms: O_8  and  C_45
REMARK    7  A    between atoms: O_18  and  C_50
REMARK    8  A    between atoms: O_18  and  C_57
REMARK    9  A    between atoms: C_32  and  C_42
REMARK   10  A    between atoms: C_38  and  C_43
REMARK   11  A    between atoms: C_41  and  C_44
REMARK   12  A    between atoms: C_51  and  C_56
REMARK                            x       y       z     vdW  Elec       q    Type
REMARK                         _______ _______ _______ _____ _____    ______ ____
ROOT
ATOM      1  O   UNL     1     113.015 129.893 140.673  0.00  0.00    +0.000 OA
ATOM      2  O   UNL     1     112.621 130.561 138.323  0.00  0.00    +0.000 OA
ATOM      3  O   UNL     1     114.156 130.538 138.928  0.00  0.00    +0.000 OA
ATOM      4  C   UNL     1     112.116 130.127 139.587  0.00  0.00    +0.000 C 
ATOM      5  C   UNL     1     112.753 130.338 139.106  0.00  0.00    +0.000 C 
ATOM      6  C   UNL     1     113.520 130.327 139.409  0.00  0.00    +0.000 C 
ATOM      7  C   UNL     1     112.248 129.904 140.371  0.00  0.00    +0.000 C 
ATOM      8  C   UNL     1     113.651 130.104 140.193  0.00  0.00    +0.000 C 
ENDROOT
BRANCH   8  10
ATOM      9  O   UNL     1     114.759 129.377 140.727  0.00  0.00    +0.000 OA
ATOM     10  C   UNL     1     114.418 130.092 140.495  0.00  0.00    +0.000 C 
ENDBRANCH   8  10
BRANCH   4  11
ATOM     11  O   UNL     1     111.349 130.138 139.285  0.00  0.00    +0.000 OA
BRANCH  11  16
ATOM     12  O   UNL     1     111.595 128.929 138.564  0.00  0.00    +0.000 OA
ATOM     13  O   UNL     1     109.174 128.714 138.097  0.00  0.00    +0.000 OA
ATOM     14  O   UNL     1     110.228 127.577 137.532  0.00  0.00    +0.000 OA
ATOM     15  C   UNL     1     110.261 129.426 138.691  0.00  0.00    +0.000 C 
ATOM     16  C   UNL     1     111.068 129.497 138.846  0.00  0.00    +0.000 C 
ATOM     17  C   UNL     1     109.981 128.786 138.253  0.00  0.00    +0.000 C 
ATOM     18  C   UNL     1     110.507 128.217 137.970  0.00  0.00    +0.000 C 
ATOM     19  C   UNL     1     111.314 128.289 138.126  0.00  0.00    +0.000 C 
BRANCH  19  21
ATOM     20  O   UNL     1     112.199 127.192 138.367  0.00  0.00    +0.000 OA
ATOM     21  C   UNL     1     111.842 127.720 137.843  0.00  0.00    +0.000 C 
ENDBRANCH  19  21
BRANCH  15  22
ATOM     22  O   UNL     1     109.734 129.995 138.974  0.00  0.00    +0.000 OA
BRANCH  22  27
ATOM     23  O   UNL     1     109.747 130.650 137.703  0.00  0.00    +0.000 OA
ATOM     24  O   UNL     1     108.500 130.972 139.466  0.00  0.00    +0.000 OA
ATOM     25  O   UNL     1     107.895 132.117 138.442  0.00  0.00    +0.000 OA
ATOM     26  O   UNL     1     108.525 132.283 136.927  0.00  0.00    +0.000 OA
ATOM     27  C   UNL     1     109.432 130.567 138.462  0.00  0.00    +0.000 C 
ATOM     28  C   UNL     1     108.815 131.056 138.707  0.00  0.00    +0.000 C 
ATOM     29  C   UNL     1     108.513 131.627 138.196  0.00  0.00    +0.000 C 
ATOM     30  C   UNL     1     108.828 131.711 137.438  0.00  0.00    +0.000 C 
ATOM     31  C   UNL     1     109.446 131.222 137.192  0.00  0.00    +0.000 C 
BRANCH  31  33
ATOM     32  O   UNL     1     110.504 131.648 136.333  0.00  0.00    +0.000 OA
ATOM     33  C   UNL     1     109.760 131.306 136.434  0.00  0.00    +0.000 C 
ENDBRANCH  31  33
ENDBRANCH  22  27
ENDBRANCH  15  22
ENDBRANCH  11  16
ENDBRANCH   4  11
BRANCH   7  34
ATOM     34  O   UNL     1     111.611 129.693 140.852  0.00  0.00    +0.000 OA
BRANCH  34  38
ATOM     35  O   UNL     1     111.535 129.526 143.026  0.00  0.00    +0.000 OA
ATOM     36  O   UNL     1     111.762 131.276 141.292  0.00  0.00    +0.000 OA
ATOM     37  O   UNL     1     111.841 132.305 142.300  0.00  0.00    +0.000 OA
ATOM     38  C   UNL     1     111.611 129.902 141.650  0.00  0.00    +0.000 A 
ATOM     39  C   UNL     1     111.535 129.317 142.228  0.00  0.00    +0.000 A 
ATOM     40  C   UNL     1     111.687 130.693 141.870  0.00  0.00    +0.000 A 
ATOM     41  C   UNL     1     111.686 130.900 142.669  0.00  0.00    +0.000 A 
ATOM     42  C   UNL     1     111.611 130.317 143.247  0.00  0.00    +0.000 A 
ATOM     43  C   UNL     1     111.688 131.343 144.318  0.00  0.00    +0.000 A 
ATOM     44  C   UNL     1     111.609 130.521 144.082  0.00  0.00    +0.000 A 
ATOM     45  C   UNL     1     111.766 131.728 142.885  0.00  0.00    +0.000 A 
ATOM     46  C   UNL     1     111.767 131.951 143.715  0.00  0.00    +0.000 A 
BRANCH  39  49
ATOM     47  O   UNL     1     109.896 127.116 141.432  0.00  0.00    +0.000 OA
ATOM     48  O   UNL     1     111.232 126.152 141.347  0.00  0.00    +0.000 OA
ATOM     49  C   UNL     1     111.459 128.526 142.008  0.00  0.00    +0.000 A 
ATOM     50  C   UNL     1     110.716 128.216 141.830  0.00  0.00    +0.000 A 
ATOM     51  C   UNL     1     112.128 128.043 141.966  0.00  0.00    +0.000 A 
ATOM     52  C   UNL     1     110.640 127.425 141.610  0.00  0.00    +0.000 A 
ATOM     53  C   UNL     1     112.052 127.252 141.746  0.00  0.00    +0.000 A 
ATOM     54  C   UNL     1     111.308 126.943 141.568  0.00  0.00    +0.000 A 
ENDBRANCH  39  49
BRANCH  43  55
ATOM     55  O   UNL     1     111.687 131.548 145.117  0.00  0.00    +0.000 OA
BRANCH  55  64
ATOM     56  O   UNL     1     110.274 131.648 145.295  0.00  0.00    +0.000 OA
ATOM     57  O   UNL     1     110.596 133.643 146.725  0.00  0.00    +0.000 OA
ATOM     58  O   UNL     1     109.074 133.079 146.427  0.00  0.00    +0.000 OA
ATOM     59  O   UNL     1     111.902 132.878 146.070  0.00  0.00    +0.000 OA
ATOM     60  C   UNL     1     110.488 132.978 146.248  0.00  0.00    +0.000 C 
ATOM     61  C   UNL     1     109.727 132.696 146.099  0.00  0.00    +0.000 C 
ATOM     62  C   UNL     1     111.142 132.596 145.921  0.00  0.00    +0.000 C 
ATOM     63  C   UNL     1     109.621 132.031 145.623  0.00  0.00    +0.000 C 
ATOM     64  C   UNL     1     111.034 131.931 145.444  0.00  0.00    +0.000 C 
ATOM     65  C   UNL     1     108.860 131.749 145.474  0.00  0.00    +0.000 C 
ENDBRANCH  55  64
ENDBRANCH  43  55
ENDBRANCH  34  38
ENDBRANCH   7  34
TORSDOF 12
ENDMDL
MODEL 6
REMARK VINA RESULT:     -10.5      1.846      2.890
REMARK  Name = 131752833
REMARK  12 active torsions:
REMARK  status: ('A' for Active; 'I' for Inactive)
REMARK    1  A    between atoms: O_1  and  C_28
REMARK    2  A    between atoms: O_1  and  C_31
REMARK    3  A    between atoms: O_3  and  C_27
REMARK    4  A    between atoms: O_3  and  C_34
REMARK    5  A    between atoms: O_8  and  C_36
REMARK    6  A    between atoms: O_8  and  C_45
REMARK    7  A    between atoms: O_18  and  C_50
REMARK    8  A    between atoms: O_18  and  C_57
REMARK    9  A    between atoms: C_32  and  C_42
REMARK   10  A    between atoms: C_38  and  C_43
REMARK   11  A    between atoms: C_41  and  C_44
REMARK   12  A    between atoms: C_51  and  C_56
REMARK                            x       y       z     vdW  Elec       q    Type
REMARK                         _______ _______ _______ _____ _____    ______ ____
ROOT
ATOM      1  O   UNL     1     110.422 129.907 141.205  0.00  0.00    +0.000 OA
ATOM      2  O   UNL     1     110.562 131.319 139.177  0.00  0.00    +0.000 OA
ATOM      3  O   UNL     1     110.733 131.999 140.671  0.00  0.00    +0.000 OA
ATOM      4  C   UNL     1     110.383 130.037 139.782  0.00  0.00    +0.000 C 
ATOM      5  C   UNL     1     110.515 130.849 139.853  0.00  0.00    +0.000 C 
ATOM      6  C   UNL     1     110.601 131.189 140.600  0.00  0.00    +0.000 C 
ATOM      7  C   UNL     1     110.336 129.566 140.458  0.00  0.00    +0.000 C 
ATOM      8  C   UNL     1     110.554 130.717 141.276  0.00  0.00    +0.000 C 
ENDROOT
BRANCH   8  10
ATOM      9  O   UNL     1     111.275 130.842 142.503  0.00  0.00    +0.000 OA
ATOM     10  C   UNL     1     110.639 131.057 142.022  0.00  0.00    +0.000 C 
ENDBRANCH   8  10
BRANCH   4  11
ATOM     11  O   UNL     1     110.297 129.697 139.035  0.00  0.00    +0.000 OA
BRANCH  11  16
ATOM     12  O   UNL     1     111.703 129.498 138.872  0.00  0.00    +0.000 OA
ATOM     13  O   UNL     1     111.428 129.573 136.413  0.00  0.00    +0.000 OA
ATOM     14  O   UNL     1     112.925 129.350 137.069  0.00  0.00    +0.000 OA
ATOM     15  C   UNL     1     110.863 129.635 137.724  0.00  0.00    +0.000 C 
ATOM     16  C   UNL     1     110.955 129.610 138.543  0.00  0.00    +0.000 C 
ATOM     17  C   UNL     1     111.519 129.548 137.233  0.00  0.00    +0.000 C 
ATOM     18  C   UNL     1     112.268 129.437 137.560  0.00  0.00    +0.000 C 
ATOM     19  C   UNL     1     112.359 129.412 138.380  0.00  0.00    +0.000 C 
BRANCH  19  21
ATOM     20  O   UNL     1     113.463 129.904 139.144  0.00  0.00    +0.000 OA
ATOM     21  C   UNL     1     113.109 129.300 138.708  0.00  0.00    +0.000 C 
ENDBRANCH  19  21
BRANCH  15  22
ATOM     22  O   UNL     1     110.114 129.747 137.396  0.00  0.00    +0.000 OA
BRANCH  22  27
ATOM     23  O   UNL     1     109.892 128.337 137.312  0.00  0.00    +0.000 OA
ATOM     24  O   UNL     1     108.919 130.001 136.287  0.00  0.00    +0.000 OA
ATOM     25  O   UNL     1     108.099 128.720 135.648  0.00  0.00    +0.000 OA
ATOM     26  O   UNL     1     108.475 127.183 136.118  0.00  0.00    +0.000 OA
ATOM     27  C   UNL     1     109.704 129.106 137.077  0.00  0.00    +0.000 C 
ATOM     28  C   UNL     1     109.107 129.233 136.523  0.00  0.00    +0.000 C 
ATOM     29  C   UNL     1     108.697 128.592 136.203  0.00  0.00    +0.000 C 
ATOM     30  C   UNL     1     108.885 127.824 136.438  0.00  0.00    +0.000 C 
ATOM     31  C   UNL     1     109.483 127.697 136.993  0.00  0.00    +0.000 C 
BRANCH  31  33
ATOM     32  O   UNL     1     109.351 126.622 137.924  0.00  0.00    +0.000 OA
ATOM     33  C   UNL     1     109.670 126.929 137.227  0.00  0.00    +0.000 C 
ENDBRANCH  31  33
ENDBRANCH  22  27
ENDBRANCH  15  22
ENDBRANCH  11  16
ENDBRANCH   4  11
BRANCH   7  34
ATOM     34  O   UNL     1     110.204 128.754 140.387  0.00  0.00    +0.000 OA
BRANCH  34  38
ATOM     35  O   UNL     1     109.395 127.357 141.855  0.00  0.00    +0.000 OA
ATOM     36  O   UNL     1     108.646 129.286 140.500  0.00  0.00    +0.000 OA
ATOM     37  O   UNL     1     107.317 129.196 141.053  0.00  0.00    +0.000 OA
ATOM     38  C   UNL     1     109.674 128.377 140.895  0.00  0.00    +0.000 A 
ATOM     39  C   UNL     1     109.925 127.734 141.347  0.00  0.00    +0.000 A 
ATOM     40  C   UNL     1     108.895 128.643 140.951  0.00  0.00    +0.000 A 
ATOM     41  C   UNL     1     108.367 128.265 141.460  0.00  0.00    +0.000 A 
ATOM     42  C   UNL     1     108.616 127.623 141.911  0.00  0.00    +0.000 A 
ATOM     43  C   UNL     1     107.263 127.493 142.508  0.00  0.00    +0.000 A 
ATOM     44  C   UNL     1     108.075 127.221 142.444  0.00  0.00    +0.000 A 
ATOM     45  C   UNL     1     107.558 128.552 141.509  0.00  0.00    +0.000 A 
ATOM     46  C   UNL     1     107.002 128.164 142.037  0.00  0.00    +0.000 A 
BRANCH  39  49
ATOM     47  O   UNL     1     111.917 126.173 140.020  0.00  0.00    +0.000 OA
ATOM     48  O   UNL     1     113.040 126.670 141.122  0.00  0.00    +0.000 OA
ATOM     49  C   UNL     1     110.704 127.468 141.291  0.00  0.00    +0.000 A 
ATOM     50  C   UNL     1     110.921 126.953 140.684  0.00  0.00    +0.000 A 
ATOM     51  C   UNL     1     111.266 127.716 141.842  0.00  0.00    +0.000 A 
ATOM     52  C   UNL     1     111.700 126.687 140.627  0.00  0.00    +0.000 A 
ATOM     53  C   UNL     1     112.045 127.450 141.786  0.00  0.00    +0.000 A 
ATOM     54  C   UNL     1     112.261 126.936 141.178  0.00  0.00    +0.000 A 
ENDBRANCH  39  49
BRANCH  43  55
ATOM     55  O   UNL     1     106.736 127.113 143.017  0.00  0.00    +0.000 OA
BRANCH  55  64
ATOM     56  O   UNL     1     106.159 126.244 142.041  0.00  0.00    +0.000 OA
ATOM     57  O   UNL     1     105.996 124.449 143.737  0.00  0.00    +0.000 OA
ATOM     58  O   UNL     1     105.472 124.177 142.196  0.00  0.00    +0.000 OA
ATOM     59  O   UNL     1     106.627 125.917 144.148  0.00  0.00    +0.000 OA
ATOM     60  C   UNL     1     106.050 125.047 143.172  0.00  0.00    +0.000 C 
ATOM     61  C   UNL     1     105.788 124.911 142.401  0.00  0.00    +0.000 C 
ATOM     62  C   UNL     1     106.366 125.781 143.377  0.00  0.00    +0.000 C 
ATOM     63  C   UNL     1     105.843 125.510 141.836  0.00  0.00    +0.000 C 
ATOM     64  C   UNL     1     106.420 126.379 142.812  0.00  0.00    +0.000 C 
ATOM     65  C   UNL     1     105.581 125.375 141.066  0.00  0.00    +0.000 C 
ENDBRANCH  55  64
ENDBRANCH  43  55
ENDBRANCH  34  38
ENDBRANCH   7  34
TORSDOF 12
ENDMDL
MODEL 7
REMARK VINA RESULT:     -10.5      1.089      2.653
REMARK  Name = 131752833
REMARK  12 active torsions:
REMARK  status: ('A' for Active; 'I' for Inactive)
REMARK    1  A    between atoms: O_1  and  C_28
REMARK    2  A    between atoms: O_1  and  C_31
REMARK    3  A    between atoms: O_3  and  C_27
REMARK    4  A    between atoms: O_3  and  C_34
REMARK    5  A    between atoms: O_8  and  C_36
REMARK    6  A    between atoms: O_8  and  C_45
REMARK    7  A    between atoms: O_18  and  C_50
REMARK    8  A    between atoms: O_18  and  C_57
REMARK    9  A    between atoms: C_32  and  C_42
REMARK   10  A    between atoms: C_38  and  C_43
REMARK   11  A    between atoms: C_41  and  C_44
REMARK   12  A    between atoms: C_51  and  C_56
REMARK                            x       y       z     vdW  Elec       q    Type
REMARK                         _______ _______ _______ _____ _____    ______ ____
ROOT
ATOM      1  O   UNL     1     111.283 125.561 137.869  0.00  0.00    +0.000 OA
ATOM      2  O   UNL     1     110.881 126.174 135.505  0.00  0.00    +0.000 OA
ATOM      3  O   UNL     1     111.283 124.623 135.898  0.00  0.00    +0.000 OA
ATOM      4  C   UNL     1     110.948 126.541 136.885  0.00  0.00    +0.000 C 
ATOM      5  C   UNL     1     111.015 125.970 136.293  0.00  0.00    +0.000 C 
ATOM      6  C   UNL     1     111.216 125.194 136.489  0.00  0.00    +0.000 C 
ATOM      7  C   UNL     1     111.082 126.336 137.672  0.00  0.00    +0.000 C 
ATOM      8  C   UNL     1     111.350 124.990 137.278  0.00  0.00    +0.000 C 
ENDROOT
BRANCH   8  10
ATOM      9  O   UNL     1     112.272 124.057 137.844  0.00  0.00    +0.000 OA
ATOM     10  C   UNL     1     111.552 124.215 137.474  0.00  0.00    +0.000 C 
ENDBRANCH   8  10
BRANCH   4  11
ATOM     11  O   UNL     1     110.746 127.317 136.688  0.00  0.00    +0.000 OA
BRANCH  11  16
ATOM     12  O   UNL     1     112.106 127.697 136.465  0.00  0.00    +0.000 OA
ATOM     13  O   UNL     1     111.353 129.499 134.946  0.00  0.00    +0.000 OA
ATOM     14  O   UNL     1     112.963 129.278 135.229  0.00  0.00    +0.000 OA
ATOM     15  C   UNL     1     111.050 128.409 135.816  0.00  0.00    +0.000 C 
ATOM     16  C   UNL     1     111.301 127.808 136.323  0.00  0.00    +0.000 C 
ATOM     17  C   UNL     1     111.604 128.898 135.452  0.00  0.00    +0.000 C 
ATOM     18  C   UNL     1     112.408 128.788 135.594  0.00  0.00    +0.000 C 
ATOM     19  C   UNL     1     112.659 128.187 136.100  0.00  0.00    +0.000 C 
BRANCH  19  21
ATOM     20  O   UNL     1     113.814 127.345 136.090  0.00  0.00    +0.000 OA
ATOM     21  C   UNL     1     113.465 128.076 136.242  0.00  0.00    +0.000 C 
ENDBRANCH  19  21
BRANCH  15  22
ATOM     22  O   UNL     1     110.244 128.519 135.675  0.00  0.00    +0.000 OA
BRANCH  22  27
ATOM     23  O   UNL     1     110.178 129.450 136.758  0.00  0.00    +0.000 OA
ATOM     24  O   UNL     1     108.679 128.863 135.283  0.00  0.00    +0.000 OA
ATOM     25  O   UNL     1     107.830 129.965 136.170  0.00  0.00    +0.000 OA
ATOM     26  O   UNL     1     108.547 130.724 137.448  0.00  0.00    +0.000 OA
ATOM     27  C   UNL     1     109.820 129.070 136.118  0.00  0.00    +0.000 C 
ATOM     28  C   UNL     1     109.037 129.242 135.923  0.00  0.00    +0.000 C 
ATOM     29  C   UNL     1     108.613 129.793 136.365  0.00  0.00    +0.000 C 
ATOM     30  C   UNL     1     108.971 130.173 137.004  0.00  0.00    +0.000 C 
ATOM     31  C   UNL     1     109.754 130.001 137.200  0.00  0.00    +0.000 C 
BRANCH  31  33
ATOM     32  O   UNL     1     110.667 130.976 137.706  0.00  0.00    +0.000 OA
ATOM     33  C   UNL     1     110.112 130.380 137.839  0.00  0.00    +0.000 C 
ENDBRANCH  31  33
ENDBRANCH  22  27
ENDBRANCH  15  22
ENDBRANCH  11  16
ENDBRANCH   4  11
BRANCH   7  34
ATOM     34  O   UNL     1     111.014 126.908 138.264  0.00  0.00    +0.000 OA
BRANCH  34  38
ATOM     35  O   UNL     1     110.571 126.664 140.387  0.00  0.00    +0.000 OA
ATOM     36  O   UNL     1     109.462 126.353 138.197  0.00  0.00    +0.000 OA
ATOM     37  O   UNL     1     108.256 125.894 138.841  0.00  0.00    +0.000 OA
ATOM     38  C   UNL     1     110.608 126.734 138.960  0.00  0.00    +0.000 A 
ATOM     39  C   UNL     1     110.978 126.838 139.691  0.00  0.00    +0.000 A 
ATOM     40  C   UNL     1     109.832 126.457 138.927  0.00  0.00    +0.000 A 
ATOM     41  C   UNL     1     109.426 126.283 139.624  0.00  0.00    +0.000 A 
ATOM     42  C   UNL     1     109.795 126.387 140.353  0.00  0.00    +0.000 A 
ATOM     43  C   UNL     1     108.574 125.920 141.058  0.00  0.00    +0.000 A 
ATOM     44  C   UNL     1     109.383 126.209 141.086  0.00  0.00    +0.000 A 
ATOM     45  C   UNL     1     108.618 125.995 139.575  0.00  0.00    +0.000 A 
ATOM     46  C   UNL     1     108.189 125.812 140.297  0.00  0.00    +0.000 A 
BRANCH  39  49
ATOM     47  O   UNL     1     112.832 129.013 139.664  0.00  0.00    +0.000 OA
ATOM     48  O   UNL     1     114.083 127.949 139.825  0.00  0.00    +0.000 OA
ATOM     49  C   UNL     1     111.754 127.116 139.724  0.00  0.00    +0.000 A 
ATOM     50  C   UNL     1     111.906 127.925 139.677  0.00  0.00    +0.000 A 
ATOM     51  C   UNL     1     112.380 126.583 139.805  0.00  0.00    +0.000 A 
ATOM     52  C   UNL     1     112.682 128.203 139.711  0.00  0.00    +0.000 A 
ATOM     53  C   UNL     1     113.156 126.861 139.839  0.00  0.00    +0.000 A 
ATOM     54  C   UNL     1     113.306 127.671 139.791  0.00  0.00    +0.000 A 
ENDBRANCH  39  49
BRANCH  43  55
ATOM     55  O   UNL     1     108.170 125.747 141.757  0.00  0.00    +0.000 OA
BRANCH  55  64
ATOM     56  O   UNL     1     107.736 127.078 142.039  0.00  0.00    +0.000 OA
ATOM     57  O   UNL     1     105.584 126.195 142.887  0.00  0.00    +0.000 OA
ATOM     58  O   UNL     1     105.866 127.821 142.887  0.00  0.00    +0.000 OA
ATOM     59  O   UNL     1     106.736 125.158 142.322  0.00  0.00    +0.000 OA
ATOM     60  C   UNL     1     106.301 126.489 142.604  0.00  0.00    +0.000 C 
ATOM     61  C   UNL     1     106.442 127.302 142.605  0.00  0.00    +0.000 C 
ATOM     62  C   UNL     1     106.877 125.971 142.322  0.00  0.00    +0.000 C 
ATOM     63  C   UNL     1     107.160 127.596 142.322  0.00  0.00    +0.000 C 
ATOM     64  C   UNL     1     107.594 126.265 142.039  0.00  0.00    +0.000 C 
ATOM     65  C   UNL     1     107.301 128.409 142.322  0.00  0.00    +0.000 C 
ENDBRANCH  55  64
ENDBRANCH  43  55
ENDBRANCH  34  38
ENDBRANCH   7  34
TORSDOF 12
ENDMDL
MODEL 8
REMARK VINA RESULT:     -10.5      2.332      6.396
REMARK  Name = 131752833
REMARK  12 active torsions:
REMARK  status: ('A' for Active; 'I' for Inactive)
REMARK    1  A    between atoms: O_1  and  C_28
REMARK    2  A    between atoms: O_1  and  C_31
REMARK    3  A    between atoms: O_3  and  C_27
REMARK    4  A    between atoms: O_3  and  C_34
REMARK    5  A    between atoms: O_8  and  C_36
REMARK    6  A    between atoms: O_8  and  C_45
REMARK    7  A    between atoms: O_18  and  C_50
REMARK    8  A    between atoms: O_18  and  C_57
REMARK    9  A    between atoms: C_32  and  C_42
REMARK   10  A    between atoms: C_38  and  C_43
REMARK   11  A    between atoms: C_41  and  C_44
REMARK   12  A    between atoms: C_51  and  C_56
REMARK                            x       y       z     vdW  Elec       q    Type
REMARK                         _______ _______ _______ _____ _____    ______ ____
ROOT
ATOM      1  O   UNL     1     111.115 129.191 141.919  0.00  0.00    +0.000 OA
ATOM      2  O   UNL     1     109.525 128.580 143.714  0.00  0.00    +0.000 OA
ATOM      3  O   UNL     1     110.981 129.255 144.096  0.00  0.00    +0.000 OA
ATOM      4  C   UNL     1     109.856 128.650 142.326  0.00  0.00    +0.000 C 
ATOM      5  C   UNL     1     110.055 128.784 143.116  0.00  0.00    +0.000 C 
ATOM      6  C   UNL     1     110.783 129.122 143.307  0.00  0.00    +0.000 C 
ATOM      7  C   UNL     1     110.386 128.854 141.728  0.00  0.00    +0.000 C 
ATOM      8  C   UNL     1     111.313 129.325 142.708  0.00  0.00    +0.000 C 
ENDROOT
BRANCH   8  10
ATOM      9  O   UNL     1     112.224 130.423 142.635  0.00  0.00    +0.000 OA
ATOM     10  C   UNL     1     112.041 129.663 142.898  0.00  0.00    +0.000 C 
ENDBRANCH   8  10
BRANCH   4  11
ATOM     11  O   UNL     1     109.128 128.312 142.135  0.00  0.00    +0.000 OA
BRANCH  11  16
ATOM     12  O   UNL     1     108.460 129.545 142.412  0.00  0.00    +0.000 OA
ATOM     13  O   UNL     1     106.413 128.681 141.322  0.00  0.00    +0.000 OA
ATOM     14  O   UNL     1     106.428 130.201 141.962  0.00  0.00    +0.000 OA
ATOM     15  C   UNL     1     107.770 128.497 141.728  0.00  0.00    +0.000 C 
ATOM     16  C   UNL     1     108.452 128.785 142.092  0.00  0.00    +0.000 C 
ATOM     17  C   UNL     1     107.096 128.969 141.685  0.00  0.00    +0.000 C 
ATOM     18  C   UNL     1     107.103 129.728 142.005  0.00  0.00    +0.000 C 
ATOM     19  C   UNL     1     107.785 130.016 142.368  0.00  0.00    +0.000 C 
BRANCH  19  21
ATOM     20  O   UNL     1     108.187 131.386 142.297  0.00  0.00    +0.000 OA
ATOM     21  C   UNL     1     107.792 130.777 142.689  0.00  0.00    +0.000 C 
ENDBRANCH  19  21
BRANCH  15  22
ATOM     22  O   UNL     1     107.764 127.736 141.408  0.00  0.00    +0.000 OA
BRANCH  22  27
ATOM     23  O   UNL     1     107.143 127.242 142.598  0.00  0.00    +0.000 OA
ATOM     24  O   UNL     1     107.703 126.225 140.749  0.00  0.00    +0.000 OA
ATOM     25  O   UNL     1     107.053 124.975 141.608  0.00  0.00    +0.000 OA
ATOM     26  O   UNL     1     106.463 125.237 143.127  0.00  0.00    +0.000 OA
ATOM     27  C   UNL     1     107.439 127.111 141.838  0.00  0.00    +0.000 C 
ATOM     28  C   UNL     1     107.408 126.355 141.509  0.00  0.00    +0.000 C 
ATOM     29  C   UNL     1     107.084 125.731 141.938  0.00  0.00    +0.000 C 
ATOM     30  C   UNL     1     106.788 125.861 142.697  0.00  0.00    +0.000 C 
ATOM     31  C   UNL     1     106.819 126.618 143.027  0.00  0.00    +0.000 C 
BRANCH  31  33
ATOM     32  O   UNL     1     107.043 126.810 144.424  0.00  0.00    +0.000 OA
ATOM     33  C   UNL     1     106.524 126.748 143.786  0.00  0.00    +0.000 C 
ENDBRANCH  31  33
ENDBRANCH  22  27
ENDBRANCH  15  22
ENDBRANCH  11  16
ENDBRANCH   4  11
BRANCH   7  34
ATOM     34  O   UNL     1     110.188 128.720 140.938  0.00  0.00    +0.000 OA
BRANCH  34  38
ATOM     35  O   UNL     1     111.491 128.625 139.190  0.00  0.00    +0.000 OA
ATOM     36  O   UNL     1     111.029 127.335 141.250  0.00  0.00    +0.000 OA
ATOM     37  O   UNL     1     112.028 126.357 140.896  0.00  0.00    +0.000 OA
ATOM     38  C   UNL     1     110.762 128.457 140.407  0.00  0.00    +0.000 A 
ATOM     39  C   UNL     1     110.916 128.888 139.720  0.00  0.00    +0.000 A 
ATOM     40  C   UNL     1     111.183 127.765 140.564  0.00  0.00    +0.000 A 
ATOM     41  C   UNL     1     111.758 127.503 140.032  0.00  0.00    +0.000 A 
ATOM     42  C   UNL     1     111.912 127.933 139.346  0.00  0.00    +0.000 A 
ATOM     43  C   UNL     1     112.950 126.951 138.942  0.00  0.00    +0.000 A 
ATOM     44  C   UNL     1     112.508 127.671 138.785  0.00  0.00    +0.000 A 
ATOM     45  C   UNL     1     112.189 126.781 140.207  0.00  0.00    +0.000 A 
ATOM     46  C   UNL     1     112.789 126.502 139.658  0.00  0.00    +0.000 A 
BRANCH  39  49
ATOM     47  O   UNL     1     108.596 130.193 138.681  0.00  0.00    +0.000 OA
ATOM     48  O   UNL     1     109.233 131.657 139.095  0.00  0.00    +0.000 OA
ATOM     49  C   UNL     1     110.496 129.580 139.564  0.00  0.00    +0.000 A 
ATOM     50  C   UNL     1     109.756 129.541 139.201  0.00  0.00    +0.000 A 
ATOM     51  C   UNL     1     110.815 130.313 139.771  0.00  0.00    +0.000 A 
ATOM     52  C   UNL     1     109.335 130.233 139.044  0.00  0.00    +0.000 A 
ATOM     53  C   UNL     1     110.394 131.005 139.615  0.00  0.00    +0.000 A 
ATOM     54  C   UNL     1     109.654 130.965 139.251  0.00  0.00    +0.000 A 
ENDBRANCH  39  49
BRANCH  43  55
ATOM     55  O   UNL     1     113.524 126.691 138.409  0.00  0.00    +0.000 OA
BRANCH  55  64
ATOM     56  O   UNL     1     112.645 125.988 137.531  0.00  0.00    +0.000 OA
ATOM     57  O   UNL     1     114.359 124.228 137.225  0.00  0.00    +0.000 OA
ATOM     58  O   UNL     1     112.908 124.110 136.447  0.00  0.00    +0.000 OA
ATOM     59  O   UNL     1     114.667 125.519 138.205  0.00  0.00    +0.000 OA
ATOM     60  C   UNL     1     113.788 124.814 137.326  0.00  0.00    +0.000 C 
ATOM     61  C   UNL     1     113.062 124.755 136.938  0.00  0.00    +0.000 C 
ATOM     62  C   UNL     1     113.942 125.460 137.817  0.00  0.00    +0.000 C 
ATOM     63  C   UNL     1     112.491 125.342 137.040  0.00  0.00    +0.000 C 
ATOM     64  C   UNL     1     113.370 126.046 137.919  0.00  0.00    +0.000 C 
ATOM     65  C   UNL     1     111.765 125.283 136.652  0.00  0.00    +0.000 C 
ENDBRANCH  55  64
ENDBRANCH  43  55
ENDBRANCH  34  38
ENDBRANCH   7  34
TORSDOF 12
ENDMDL
MODEL 9
REMARK VINA RESULT:     -10.3      2.572      5.382
REMARK  Name = 131752833
REMARK  12 active torsions:
REMARK  status: ('A' for Active; 'I' for Inactive)
REMARK    1  A    between atoms: O_1  and  C_28
REMARK    2  A    between atoms: O_1  and  C_31
REMARK    3  A    between atoms: O_3  and  C_27
REMARK    4  A    between atoms: O_3  and  C_34
REMARK    5  A    between atoms: O_8  and  C_36
REMARK    6  A    between atoms: O_8  and  C_45
REMARK    7  A    between atoms: O_18  and  C_50
REMARK    8  A    between atoms: O_18  and  C_57
REMARK    9  A    between atoms: C_32  and  C_42
REMARK   10  A    between atoms: C_38  and  C_43
REMARK   11  A    between atoms: C_41  and  C_44
REMARK   12  A    between atoms: C_51  and  C_56
REMARK                            x       y       z     vdW  Elec       q    Type
REMARK                         _______ _______ _______ _____ _____    ______ ____
ROOT
ATOM      1  O   UNL     1     112.016 130.556 137.716  0.00  0.00    +0.000 OA
ATOM      2  O   UNL     1     112.212 128.703 136.088  0.00  0.00    +0.000 OA
ATOM      3  O   UNL     1     113.181 130.031 135.947  0.00  0.00    +0.000 OA
ATOM      4  C   UNL     1     111.597 129.274 137.244  0.00  0.00    +0.000 C 
ATOM      5  C   UNL     1     112.147 129.321 136.630  0.00  0.00    +0.000 C 
ATOM      6  C   UNL     1     112.632 129.985 136.560  0.00  0.00    +0.000 C 
ATOM      7  C   UNL     1     111.532 129.892 137.787  0.00  0.00    +0.000 C 
ATOM      8  C   UNL     1     112.566 130.602 137.103  0.00  0.00    +0.000 C 
ENDROOT
BRANCH   8  10
ATOM      9  O   UNL     1     112.714 132.009 136.900  0.00  0.00    +0.000 OA
ATOM     10  C   UNL     1     113.050 131.267 137.033  0.00  0.00    +0.000 C 
ENDBRANCH   8  10
BRANCH   4  11
ATOM     11  O   UNL     1     111.113 128.610 137.315  0.00  0.00    +0.000 OA
BRANCH  11  16
ATOM     12  O   UNL     1     110.301 129.068 136.232  0.00  0.00    +0.000 OA
ATOM     13  O   UNL     1     108.615 127.336 136.764  0.00  0.00    +0.000 OA
ATOM     14  O   UNL     1     108.364 128.372 135.504  0.00  0.00    +0.000 OA
ATOM     15  C   UNL     1     109.863 127.973 137.039  0.00  0.00    +0.000 C 
ATOM     16  C   UNL     1     110.425 128.550 136.862  0.00  0.00    +0.000 C 
ATOM     17  C   UNL     1     109.177 127.913 136.587  0.00  0.00    +0.000 C 
ATOM     18  C   UNL     1     109.051 128.431 135.957  0.00  0.00    +0.000 C 
ATOM     19  C   UNL     1     109.613 129.008 135.780  0.00  0.00    +0.000 C 
BRANCH  19  21
ATOM     20  O   UNL     1     109.308 130.319 135.297  0.00  0.00    +0.000 OA
ATOM     21  C   UNL     1     109.488 129.527 135.150  0.00  0.00    +0.000 C 
ENDBRANCH  19  21
BRANCH  15  22
ATOM     22  O   UNL     1     109.989 127.455 137.669  0.00  0.00    +0.000 OA
BRANCH  22  27
ATOM     23  O   UNL     1     110.483 126.467 136.762  0.00  0.00    +0.000 OA
ATOM     24  O   UNL     1     110.390 126.486 138.943  0.00  0.00    +0.000 OA
ATOM     25  O   UNL     1     111.084 125.014 138.673  0.00  0.00    +0.000 OA
ATOM     26  O   UNL     1     111.378 124.510 137.129  0.00  0.00    +0.000 OA
ATOM     27  C   UNL     1     110.336 126.719 137.534  0.00  0.00    +0.000 C 
ATOM     28  C   UNL     1     110.537 126.234 138.171  0.00  0.00    +0.000 C 
ATOM     29  C   UNL     1     110.884 125.499 138.036  0.00  0.00    +0.000 C 
ATOM     30  C   UNL     1     111.031 125.247 137.264  0.00  0.00    +0.000 C 
ATOM     31  C   UNL     1     110.830 125.732 136.627  0.00  0.00    +0.000 C 
BRANCH  31  33
ATOM     32  O   UNL     1     110.353 125.225 135.380  0.00  0.00    +0.000 OA
ATOM     33  C   UNL     1     110.977 125.479 135.855  0.00  0.00    +0.000 C 
ENDBRANCH  31  33
ENDBRANCH  22  27
ENDBRANCH  15  22
ENDBRANCH  11  16
ENDBRANCH   4  11
BRANCH   7  34
ATOM     34  O   UNL     1     110.982 129.845 138.401  0.00  0.00    +0.000 OA
BRANCH  34  38
ATOM     35  O   UNL     1     110.919 130.959 140.276  0.00  0.00    +0.000 OA
ATOM     36  O   UNL     1     112.307 129.234 139.171  0.00  0.00    +0.000 OA
ATOM     37  O   UNL     1     113.193 129.178 140.308  0.00  0.00    +0.000 OA
ATOM     38  C   UNL     1     111.182 130.114 139.154  0.00  0.00    +0.000 A 
ATOM     39  C   UNL     1     110.719 130.690 139.523  0.00  0.00    +0.000 A 
ATOM     40  C   UNL     1     111.845 129.809 139.540  0.00  0.00    +0.000 A 
ATOM     41  C   UNL     1     112.044 130.079 140.294  0.00  0.00    +0.000 A 
ATOM     42  C   UNL     1     111.581 130.654 140.662  0.00  0.00    +0.000 A 
ATOM     43  C   UNL     1     112.467 130.629 141.853  0.00  0.00    +0.000 A 
ATOM     44  C   UNL     1     111.779 130.943 141.447  0.00  0.00    +0.000 A 
ATOM     45  C   UNL     1     112.736 129.753 140.684  0.00  0.00    +0.000 A 
ATOM     46  C   UNL     1     112.950 130.030 141.469  0.00  0.00    +0.000 A 
BRANCH  39  49
ATOM     47  O   UNL     1     109.496 132.738 137.949  0.00  0.00    +0.000 OA
ATOM     48  O   UNL     1     108.069 131.911 137.981  0.00  0.00    +0.000 OA
ATOM     49  C   UNL     1     110.056 130.995 139.137  0.00  0.00    +0.000 A 
ATOM     50  C   UNL     1     110.107 131.714 138.736  0.00  0.00    +0.000 A 
ATOM     51  C   UNL     1     109.342 130.582 139.153  0.00  0.00    +0.000 A 
ATOM     52  C   UNL     1     109.444 132.019 138.350  0.00  0.00    +0.000 A 
ATOM     53  C   UNL     1     108.679 130.887 138.768  0.00  0.00    +0.000 A 
ATOM     54  C   UNL     1     108.731 131.606 138.367  0.00  0.00    +0.000 A 
ENDBRANCH  39  49
BRANCH  43  55
ATOM     55  O   UNL     1     112.664 130.901 142.607  0.00  0.00    +0.000 OA
BRANCH  55  64
ATOM     56  O   UNL     1     112.055 129.849 143.357  0.00  0.00    +0.000 OA
ATOM     57  O   UNL     1     111.288 131.494 145.040  0.00  0.00    +0.000 OA
ATOM     58  O   UNL     1     110.934 129.893 145.230  0.00  0.00    +0.000 OA
ATOM     59  O   UNL     1     112.154 131.998 143.729  0.00  0.00    +0.000 OA
ATOM     60  C   UNL     1     111.544 130.946 144.479  0.00  0.00    +0.000 C 
ATOM     61  C   UNL     1     111.366 130.145 144.574  0.00  0.00    +0.000 C 
ATOM     62  C   UNL     1     111.976 131.197 143.824  0.00  0.00    +0.000 C 
ATOM     63  C   UNL     1     111.622 129.597 144.012  0.00  0.00    +0.000 C 
ATOM     64  C   UNL     1     112.232 130.649 143.263  0.00  0.00    +0.000 C 
ATOM     65  C   UNL     1     111.445 128.797 144.107  0.00  0.00    +0.000 C 
ENDBRANCH  55  64
ENDBRANCH  43  55
ENDBRANCH  34  38
ENDBRANCH   7  34
TORSDOF 12
ENDMDL
MODEL 10
REMARK VINA RESULT:     -10.3      1.016      3.015
REMARK  Name = 131752833
REMARK  12 active torsions:
REMARK  status: ('A' for Active; 'I' for Inactive)
REMARK    1  A    between atoms: O_1  and  C_28
REMARK    2  A    between atoms: O_1  and  C_31
REMARK    3  A    between atoms: O_3  and  C_27
REMARK    4  A    between atoms: O_3  and  C_34
REMARK    5  A    between atoms: O_8  and  C_36
REMARK    6  A    between atoms: O_8  and  C_45
REMARK    7  A    between atoms: O_18  and  C_50
REMARK    8  A    between atoms: O_18  and  C_57
REMARK    9  A    between atoms: C_32  and  C_42
REMARK   10  A    between atoms: C_38  and  C_43
REMARK   11  A    between atoms: C_41  and  C_44
REMARK   12  A    between atoms: C_51  and  C_56
REMARK                            x       y       z     vdW  Elec       q    Type
REMARK                         _______ _______ _______ _____ _____    ______ ____
ROOT
ATOM      1  O   UNL     1     109.870 127.517 137.274  0.00  0.00    +0.000 OA
ATOM      2  O   UNL     1     110.539 129.872 136.909  0.00  0.00    +0.000 OA
ATOM      3  O   UNL     1     109.280 129.230 136.057  0.00  0.00    +0.000 OA
ATOM      4  C   UNL     1     110.723 128.623 137.579  0.00  0.00    +0.000 C 
ATOM      5  C   UNL     1     110.316 129.087 137.031  0.00  0.00    +0.000 C 
ATOM      6  C   UNL     1     109.686 128.766 136.605  0.00  0.00    +0.000 C 
ATOM      7  C   UNL     1     110.500 127.838 137.700  0.00  0.00    +0.000 C 
ATOM      8  C   UNL     1     109.464 127.981 136.727  0.00  0.00    +0.000 C 
ENDROOT
BRANCH   8  10
ATOM      9  O   UNL     1     108.960 127.014 135.803  0.00  0.00    +0.000 OA
ATOM     10  C   UNL     1     108.834 127.660 136.301  0.00  0.00    +0.000 C 
ENDBRANCH   8  10
BRANCH   4  11
ATOM     11  O   UNL     1     111.352 128.944 138.005  0.00  0.00    +0.000 OA
BRANCH  11  16
ATOM     12  O   UNL     1     112.305 128.627 136.987  0.00  0.00    +0.000 OA
ATOM     13  O   UNL     1     113.767 130.457 137.787  0.00  0.00    +0.000 OA
ATOM     14  O   UNL     1     114.232 129.531 136.503  0.00  0.00    +0.000 OA
ATOM     15  C   UNL     1     112.560 129.701 137.896  0.00  0.00    +0.000 C 
ATOM     16  C   UNL     1     112.073 129.091 137.629  0.00  0.00    +0.000 C 
ATOM     17  C   UNL     1     113.279 129.847 137.520  0.00  0.00    +0.000 C 
ATOM     18  C   UNL     1     113.512 129.384 136.879  0.00  0.00    +0.000 C 
ATOM     19  C   UNL     1     113.024 128.775 136.612  0.00  0.00    +0.000 C 
BRANCH  19  21
ATOM     20  O   UNL     1     112.866 128.382 135.247  0.00  0.00    +0.000 OA
ATOM     21  C   UNL     1     113.257 128.311 135.970  0.00  0.00    +0.000 C 
ENDBRANCH  19  21
BRANCH  15  22
ATOM     22  O   UNL     1     112.327 130.163 138.538  0.00  0.00    +0.000 OA
BRANCH  22  27
ATOM     23  O   UNL     1     113.100 129.337 139.412  0.00  0.00    +0.000 OA
ATOM     24  O   UNL     1     111.840 131.072 139.826  0.00  0.00    +0.000 OA
ATOM     25  O   UNL     1     112.368 130.700 141.344  0.00  0.00    +0.000 OA
ATOM     26  O   UNL     1     113.384 129.420 141.574  0.00  0.00    +0.000 OA
ATOM     27  C   UNL     1     112.591 129.978 139.297  0.00  0.00    +0.000 C 
ATOM     28  C   UNL     1     112.348 130.431 139.941  0.00  0.00    +0.000 C 
ATOM     29  C   UNL     1     112.612 130.246 140.700  0.00  0.00    +0.000 C 
ATOM     30  C   UNL     1     113.120 129.606 140.815  0.00  0.00    +0.000 C 
ATOM     31  C   UNL     1     113.364 129.152 140.170  0.00  0.00    +0.000 C 
BRANCH  31  33
ATOM     32  O   UNL     1     113.566 127.748 140.333  0.00  0.00    +0.000 OA
ATOM     33  C   UNL     1     113.871 128.512 140.286  0.00  0.00    +0.000 C 
ENDBRANCH  31  33
ENDBRANCH  22  27
ENDBRANCH  15  22
ENDBRANCH  11  16
ENDBRANCH   4  11
BRANCH   7  34
ATOM     34  O   UNL     1     110.907 127.374 138.248  0.00  0.00    +0.000 OA
BRANCH  34  38
ATOM     35  O   UNL     1     110.209 125.626 139.353  0.00  0.00    +0.000 OA
ATOM     36  O   UNL     1     109.791 128.063 139.249  0.00  0.00    +0.000 OA
ATOM     37  O   UNL     1     108.801 127.967 140.293  0.00  0.00    +0.000 OA
ATOM     38  C   UNL     1     110.488 126.906 138.783  0.00  0.00    +0.000 A 
ATOM     39  C   UNL     1     110.628 126.093 138.818  0.00  0.00    +0.000 A 
ATOM     40  C   UNL     1     109.930 127.251 139.284  0.00  0.00    +0.000 A 
ATOM     41  C   UNL     1     109.512 126.782 139.819  0.00  0.00    +0.000 A 
ATOM     42  C   UNL     1     109.651 125.971 139.854  0.00  0.00    +0.000 A 
ATOM     43  C   UNL     1     108.640 125.825 140.931  0.00  0.00    +0.000 A 
ATOM     44  C   UNL     1     109.222 125.472 140.407  0.00  0.00    +0.000 A 
ATOM     45  C   UNL     1     108.934 127.154 140.335  0.00  0.00    +0.000 A 
ATOM     46  C   UNL     1     108.494 126.672 140.895  0.00  0.00    +0.000 A 
BRANCH  39  49
ATOM     47  O   UNL     1     111.252 124.612 136.455  0.00  0.00    +0.000 OA
ATOM     48  O   UNL     1     112.859 124.715 136.815  0.00  0.00    +0.000 OA
ATOM     49  C   UNL     1     111.185 125.749 138.317  0.00  0.00    +0.000 A 
ATOM     50  C   UNL     1     110.940 125.353 137.636  0.00  0.00    +0.000 A 
ATOM     51  C   UNL     1     111.990 125.800 138.497  0.00  0.00    +0.000 A 
ATOM     52  C   UNL     1     111.498 125.008 137.135  0.00  0.00    +0.000 A 
ATOM     53  C   UNL     1     112.547 125.455 137.996  0.00  0.00    +0.000 A 
ATOM     54  C   UNL     1     112.301 125.059 137.315  0.00  0.00    +0.000 A 
ENDBRANCH  39  49
BRANCH  43  55
ATOM     55  O   UNL     1     108.222 125.355 141.466  0.00  0.00    +0.000 OA
BRANCH  55  64
ATOM     56  O   UNL     1     107.166 124.954 140.592  0.00  0.00    +0.000 OA
ATOM     57  O   UNL     1     105.543 125.192 142.446  0.00  0.00    +0.000 OA
ATOM     58  O   UNL     1     105.026 124.712 140.954  0.00  0.00    +0.000 OA
ATOM     59  O   UNL     1     107.141 125.513 142.702  0.00  0.00    +0.000 OA
ATOM     60  C   UNL     1     106.084 125.112 141.828  0.00  0.00    +0.000 C 
ATOM     61  C   UNL     1     105.825 124.873 141.082  0.00  0.00    +0.000 C 
ATOM     62  C   UNL     1     106.883 125.273 141.956  0.00  0.00    +0.000 C 
ATOM     63  C   UNL     1     106.367 124.794 140.464  0.00  0.00    +0.000 C 
ATOM     64  C   UNL     1     107.423 125.194 141.338  0.00  0.00    +0.000 C 
ATOM     65  C   UNL     1     106.109 124.554 139.718  0.00  0.00    +0.000 C 
ENDBRANCH  55  64
ENDBRANCH  43  55
ENDBRANCH  34  38
ENDBRANCH   7  34
TORSDOF 12
ENDMDL
