MODEL 1
REMARK VINA RESULT:      -8.1      0.000      0.000
REMARK  Name = 12305452
REMARK  4 active torsions:
REMARK  status: ('A' for Active; 'I' for Inactive)
REMARK    1  A    between atoms: O_4  and  C_14
REMARK    2  A    between atoms: O_5  and  C_17
REMARK    3  A    between atoms: O_6  and  C_22
REMARK    4  A    between atoms: C_8  and  C_9
REMARK                            x       y       z     vdW  Elec       q    Type
REMARK                         _______ _______ _______ _____ _____    ______ ____
ROOT
ATOM      1  O   UNL     1     105.085 124.305 147.624  0.00  0.00    +0.000 OA
ATOM      2  O   UNL     1     106.388 125.653 146.008  0.00  0.00    +0.000 OA
ATOM      3  C   UNL     1     104.755 124.506 146.895  0.00  0.00    +0.000 A 
ATOM      4  C   UNL     1     106.283 125.002 147.275  0.00  0.00    +0.000 A 
ATOM      5  C   UNL     1     105.190 124.956 146.356  0.00  0.00    +0.000 A 
ATOM      6  C   UNL     1     105.848 124.552 147.815  0.00  0.00    +0.000 A 
ATOM      7  C   UNL     1     105.954 125.204 146.547  0.00  0.00    +0.000 A 
ATOM      8  C   UNL     1     106.180 124.336 148.578  0.00  0.00    +0.000 A 
ATOM      9  C   UNL     1     107.079 125.266 147.462  0.00  0.00    +0.000 A 
ATOM     10  C   UNL     1     106.974 124.591 148.781  0.00  0.00    +0.000 A 
ATOM     11  C   UNL     1     107.427 125.059 148.220  0.00  0.00    +0.000 A 
ENDROOT
BRANCH   3  14
ATOM     12  O   UNL     1     102.837 122.745 145.555  0.00  0.00    +0.000 OA
ATOM     13  O   UNL     1     101.788 123.396 146.042  0.00  0.00    +0.000 OA
ATOM     14  C   UNL     1     103.992 124.259 146.704  0.00  0.00    +0.000 A 
ATOM     15  C   UNL     1     103.117 123.360 146.020  0.00  0.00    +0.000 A 
ATOM     16  C   UNL     1     102.465 123.764 146.323  0.00  0.00    +0.000 A 
ATOM     17  C   UNL     1     103.880 123.607 146.211  0.00  0.00    +0.000 A 
ATOM     18  C   UNL     1     103.340 124.663 147.007  0.00  0.00    +0.000 A 
ATOM     19  C   UNL     1     102.575 124.416 146.817  0.00  0.00    +0.000 A 
ATOM     20  C   UNL     1     102.018 122.768 145.568  0.00  0.00    +0.000 C 
BRANCH  19  21
ATOM     21  O   UNL     1     101.924 124.820 147.119  0.00  0.00    +0.000 OA
ATOM     22  C   UNL     1     101.971 125.184 147.858  0.00  0.00    +0.000 C 
ENDBRANCH  19  21
ENDBRANCH   3  14
BRANCH   5  23
ATOM     23  O   UNL     1     104.861 125.158 145.627  0.00  0.00    +0.000 OA
ATOM     24  C   UNL     1     105.278 125.643 145.106  0.00  0.00    +0.000 C 
ENDBRANCH   5  23
BRANCH  10  25
ATOM     25  O   UNL     1     107.301 124.388 149.511  0.00  0.00    +0.000 OA
ATOM     26  C   UNL     1     108.120 124.385 149.610  0.00  0.00    +0.000 C 
ENDBRANCH  10  25
TORSDOF 4
ENDMDL
MODEL 2
REMARK VINA RESULT:      -8.1      1.053      4.548
REMARK  Name = 12305452
REMARK  4 active torsions:
REMARK  status: ('A' for Active; 'I' for Inactive)
REMARK    1  A    between atoms: O_4  and  C_14
REMARK    2  A    between atoms: O_5  and  C_17
REMARK    3  A    between atoms: O_6  and  C_22
REMARK    4  A    between atoms: C_8  and  C_9
REMARK                            x       y       z     vdW  Elec       q    Type
REMARK                         _______ _______ _______ _____ _____    ______ ____
ROOT
ATOM      1  O   UNL     1     104.382 124.287 146.701  0.00  0.00    +0.000 OA
ATOM      2  O   UNL     1     102.902 125.755 148.035  0.00  0.00    +0.000 OA
ATOM      3  C   UNL     1     104.704 124.908 147.138  0.00  0.00    +0.000 A 
ATOM      4  C   UNL     1     103.075 124.644 147.153  0.00  0.00    +0.000 A 
ATOM      5  C   UNL     1     104.210 125.398 147.584  0.00  0.00    +0.000 A 
ATOM      6  C   UNL     1     103.568 124.155 146.708  0.00  0.00    +0.000 A 
ATOM      7  C   UNL     1     103.395 125.265 147.590  0.00  0.00    +0.000 A 
ATOM      8  C   UNL     1     103.246 123.504 146.248  0.00  0.00    +0.000 A 
ATOM      9  C   UNL     1     102.224 124.517 147.169  0.00  0.00    +0.000 A 
ATOM     10  C   UNL     1     102.399 123.362 146.252  0.00  0.00    +0.000 A 
ATOM     11  C   UNL     1     101.884 123.872 146.715  0.00  0.00    +0.000 A 
ENDROOT
BRANCH   3  14
ATOM     12  O   UNL     1     107.394 124.705 148.278  0.00  0.00    +0.000 OA
ATOM     13  O   UNL     1     107.952 125.352 147.262  0.00  0.00    +0.000 OA
ATOM     14  C   UNL     1     105.518 125.040 147.131  0.00  0.00    +0.000 A 
ATOM     15  C   UNL     1     106.799 124.903 147.748  0.00  0.00    +0.000 A 
ATOM     16  C   UNL     1     107.146 125.304 147.117  0.00  0.00    +0.000 A 
ATOM     17  C   UNL     1     105.985 124.771 147.756  0.00  0.00    +0.000 A 
ATOM     18  C   UNL     1     105.865 125.442 146.500  0.00  0.00    +0.000 A 
ATOM     19  C   UNL     1     106.680 125.574 146.493  0.00  0.00    +0.000 A 
ATOM     20  C   UNL     1     108.104 124.982 147.978  0.00  0.00    +0.000 C 
BRANCH  19  21
ATOM     21  O   UNL     1     107.026 125.976 145.862  0.00  0.00    +0.000 OA
ATOM     22  C   UNL     1     106.560 126.237 145.233  0.00  0.00    +0.000 C 
ENDBRANCH  19  21
ENDBRANCH   3  14
BRANCH   5  23
ATOM     23  O   UNL     1     104.531 126.019 148.021  0.00  0.00    +0.000 OA
ATOM     24  C   UNL     1     104.034 126.582 148.363  0.00  0.00    +0.000 C 
ENDBRANCH   5  23
BRANCH  10  25
ATOM     25  O   UNL     1     102.080 122.739 145.813  0.00  0.00    +0.000 OA
ATOM     26  C   UNL     1     101.399 122.858 145.363  0.00  0.00    +0.000 C 
ENDBRANCH  10  25
TORSDOF 4
ENDMDL
MODEL 3
REMARK VINA RESULT:      -7.9     11.818     13.699
REMARK  Name = 12305452
REMARK  4 active torsions:
REMARK  status: ('A' for Active; 'I' for Inactive)
REMARK    1  A    between atoms: O_4  and  C_14
REMARK    2  A    between atoms: O_5  and  C_17
REMARK    3  A    between atoms: O_6  and  C_22
REMARK    4  A    between atoms: C_8  and  C_9
REMARK                            x       y       z     vdW  Elec       q    Type
REMARK                         _______ _______ _______ _____ _____    ______ ____
ROOT
ATOM      1  O   UNL     1     113.130 127.344 136.069  0.00  0.00    +0.000 OA
ATOM      2  O   UNL     1     112.366 128.724 137.976  0.00  0.00    +0.000 OA
ATOM      3  C   UNL     1     112.594 127.033 136.614  0.00  0.00    +0.000 A 
ATOM      4  C   UNL     1     113.156 128.574 136.796  0.00  0.00    +0.000 A 
ATOM      5  C   UNL     1     112.339 127.493 137.251  0.00  0.00    +0.000 A 
ATOM      6  C   UNL     1     113.411 128.114 136.160  0.00  0.00    +0.000 A 
ATOM      7  C   UNL     1     112.620 128.264 137.341  0.00  0.00    +0.000 A 
ATOM      8  C   UNL     1     113.969 128.426 135.585  0.00  0.00    +0.000 A 
ATOM      9  C   UNL     1     113.441 129.378 136.901  0.00  0.00    +0.000 A 
ATOM     10  C   UNL     1     114.264 129.228 135.674  0.00  0.00    +0.000 A 
ATOM     11  C   UNL     1     113.999 129.707 136.337  0.00  0.00    +0.000 A 
ENDROOT
BRANCH   3  14
ATOM     12  O   UNL     1     112.689 124.145 137.089  0.00  0.00    +0.000 OA
ATOM     13  O   UNL     1     111.608 123.914 136.355  0.00  0.00    +0.000 OA
ATOM     14  C   UNL     1     112.314 126.263 136.524  0.00  0.00    +0.000 A 
ATOM     15  C   UNL     1     112.424 124.865 136.800  0.00  0.00    +0.000 A 
ATOM     16  C   UNL     1     111.752 124.722 136.343  0.00  0.00    +0.000 A 
ATOM     17  C   UNL     1     112.705 125.635 136.890  0.00  0.00    +0.000 A 
ATOM     18  C   UNL     1     111.642 126.120 136.068  0.00  0.00    +0.000 A 
ATOM     19  C   UNL     1     111.360 125.349 135.977  0.00  0.00    +0.000 A 
ATOM     20  C   UNL     1     112.186 123.559 136.815  0.00  0.00    +0.000 C 
BRANCH  19  21
ATOM     21  O   UNL     1     110.689 125.206 135.521  0.00  0.00    +0.000 OA
ATOM     22  C   UNL     1     110.434 125.769 134.974  0.00  0.00    +0.000 C 
ENDBRANCH  19  21
ENDBRANCH   3  14
BRANCH   5  23
ATOM     23  O   UNL     1     111.804 127.183 137.796  0.00  0.00    +0.000 OA
ATOM     24  C   UNL     1     111.529 127.651 138.417  0.00  0.00    +0.000 C 
ENDBRANCH   5  23
BRANCH  10  25
ATOM     25  O   UNL     1     114.800 129.536 135.127  0.00  0.00    +0.000 OA
ATOM     26  C   UNL     1     115.040 130.323 135.183  0.00  0.00    +0.000 C 
ENDBRANCH  10  25
TORSDOF 4
ENDMDL
MODEL 4
REMARK VINA RESULT:      -7.9     11.302     13.367
REMARK  Name = 12305452
REMARK  4 active torsions:
REMARK  status: ('A' for Active; 'I' for Inactive)
REMARK    1  A    between atoms: O_4  and  C_14
REMARK    2  A    between atoms: O_5  and  C_17
REMARK    3  A    between atoms: O_6  and  C_22
REMARK    4  A    between atoms: C_8  and  C_9
REMARK                            x       y       z     vdW  Elec       q    Type
REMARK                         _______ _______ _______ _____ _____    ______ ____
ROOT
ATOM      1  O   UNL     1     112.163 126.980 136.175  0.00  0.00    +0.000 OA
ATOM      2  O   UNL     1     110.290 127.402 134.612  0.00  0.00    +0.000 OA
ATOM      3  C   UNL     1     111.556 126.425 136.100  0.00  0.00    +0.000 A 
ATOM      4  C   UNL     1     111.521 127.814 135.209  0.00  0.00    +0.000 A 
ATOM      5  C   UNL     1     110.931 126.566 135.578  0.00  0.00    +0.000 A 
ATOM      6  C   UNL     1     112.146 127.674 135.730  0.00  0.00    +0.000 A 
ATOM      7  C   UNL     1     110.914 127.261 135.133  0.00  0.00    +0.000 A 
ATOM      8  C   UNL     1     112.784 128.243 135.818  0.00  0.00    +0.000 A 
ATOM      9  C   UNL     1     111.492 128.534 134.739  0.00  0.00    +0.000 A 
ATOM     10  C   UNL     1     112.771 128.968 135.357  0.00  0.00    +0.000 A 
ATOM     11  C   UNL     1     112.121 129.114 134.814  0.00  0.00    +0.000 A 
ENDROOT
BRANCH   3  14
ATOM     12  O   UNL     1     112.173 123.590 136.496  0.00  0.00    +0.000 OA
ATOM     13  O   UNL     1     111.697 123.585 137.735  0.00  0.00    +0.000 OA
ATOM     14  C   UNL     1     111.573 125.732 136.544  0.00  0.00    +0.000 A 
ATOM     15  C   UNL     1     111.902 124.346 136.665  0.00  0.00    +0.000 A 
ATOM     16  C   UNL     1     111.607 124.343 137.435  0.00  0.00    +0.000 A 
ATOM     17  C   UNL     1     111.886 125.040 136.220  0.00  0.00    +0.000 A 
ATOM     18  C   UNL     1     111.277 125.728 137.314  0.00  0.00    +0.000 A 
ATOM     19  C   UNL     1     111.294 125.033 137.760  0.00  0.00    +0.000 A 
ATOM     20  C   UNL     1     112.046 123.121 137.155  0.00  0.00    +0.000 C 
BRANCH  19  21
ATOM     21  O   UNL     1     110.998 125.030 138.529  0.00  0.00    +0.000 OA
ATOM     22  C   UNL     1     110.840 125.743 138.914  0.00  0.00    +0.000 C 
ENDBRANCH  19  21
ENDBRANCH   3  14
BRANCH   5  23
ATOM     23  O   UNL     1     110.325 126.013 135.502  0.00  0.00    +0.000 OA
ATOM     24  C   UNL     1     109.707 126.148 134.972  0.00  0.00    +0.000 C 
ENDBRANCH   5  23
BRANCH  10  25
ATOM     25  O   UNL     1     113.379 129.520 135.435  0.00  0.00    +0.000 OA
ATOM     26  C   UNL     1     114.044 129.473 134.948  0.00  0.00    +0.000 C 
ENDBRANCH  10  25
TORSDOF 4
ENDMDL
MODEL 5
REMARK VINA RESULT:      -7.8     13.184     15.017
REMARK  Name = 12305452
REMARK  4 active torsions:
REMARK  status: ('A' for Active; 'I' for Inactive)
REMARK    1  A    between atoms: O_4  and  C_14
REMARK    2  A    between atoms: O_5  and  C_17
REMARK    3  A    between atoms: O_6  and  C_22
REMARK    4  A    between atoms: C_8  and  C_9
REMARK                            x       y       z     vdW  Elec       q    Type
REMARK                         _______ _______ _______ _____ _____    ______ ____
ROOT
ATOM      1  O   UNL     1     113.686 127.702 136.400  0.00  0.00    +0.000 OA
ATOM      2  O   UNL     1     111.382 127.661 135.496  0.00  0.00    +0.000 OA
ATOM      3  C   UNL     1     113.377 128.371 136.030  0.00  0.00    +0.000 A 
ATOM      4  C   UNL     1     112.459 127.006 136.168  0.00  0.00    +0.000 A 
ATOM      5  C   UNL     1     112.608 128.358 135.728  0.00  0.00    +0.000 A 
ATOM      6  C   UNL     1     113.228 127.020 136.469  0.00  0.00    +0.000 A 
ATOM      7  C   UNL     1     112.150 127.675 135.797  0.00  0.00    +0.000 A 
ATOM      8  C   UNL     1     113.562 126.329 136.857  0.00  0.00    +0.000 A 
ATOM      9  C   UNL     1     111.972 126.301 136.233  0.00  0.00    +0.000 A 
ATOM     10  C   UNL     1     113.089 125.616 136.932  0.00  0.00    +0.000 A 
ATOM     11  C   UNL     1     112.289 125.602 136.618  0.00  0.00    +0.000 A 
ENDROOT
BRANCH   3  14
ATOM     12  O   UNL     1     115.271 130.117 134.637  0.00  0.00    +0.000 OA
ATOM     13  O   UNL     1     115.254 131.028 135.602  0.00  0.00    +0.000 OA
ATOM     14  C   UNL     1     113.834 129.054 135.961  0.00  0.00    +0.000 A 
ATOM     15  C   UNL     1     114.761 129.853 135.223  0.00  0.00    +0.000 A 
ATOM     16  C   UNL     1     114.751 130.419 135.823  0.00  0.00    +0.000 A 
ATOM     17  C   UNL     1     114.303 129.171 135.292  0.00  0.00    +0.000 A 
ATOM     18  C   UNL     1     113.824 129.620 136.561  0.00  0.00    +0.000 A 
ATOM     19  C   UNL     1     114.282 130.303 136.492  0.00  0.00    +0.000 A 
ATOM     20  C   UNL     1     115.574 130.841 134.871  0.00  0.00    +0.000 C 
BRANCH  19  21
ATOM     21  O   UNL     1     114.272 130.868 137.091  0.00  0.00    +0.000 OA
ATOM     22  C   UNL     1     114.049 130.655 137.857  0.00  0.00    +0.000 C 
ENDBRANCH  19  21
ENDBRANCH   3  14
BRANCH   5  23
ATOM     23  O   UNL     1     112.299 129.027 135.358  0.00  0.00    +0.000 OA
ATOM     24  C   UNL     1     111.531 129.013 135.056  0.00  0.00    +0.000 C 
ENDBRANCH   5  23
BRANCH  10  25
ATOM     25  O   UNL     1     113.401 124.948 137.303  0.00  0.00    +0.000 OA
ATOM     26  C   UNL     1     113.504 124.249 136.877  0.00  0.00    +0.000 C 
ENDBRANCH  10  25
TORSDOF 4
ENDMDL
MODEL 6
REMARK VINA RESULT:      -7.8      1.047      4.289
REMARK  Name = 12305452
REMARK  4 active torsions:
REMARK  status: ('A' for Active; 'I' for Inactive)
REMARK    1  A    between atoms: O_4  and  C_14
REMARK    2  A    between atoms: O_5  and  C_17
REMARK    3  A    between atoms: O_6  and  C_22
REMARK    4  A    between atoms: C_8  and  C_9
REMARK                            x       y       z     vdW  Elec       q    Type
REMARK                         _______ _______ _______ _____ _____    ______ ____
ROOT
ATOM      1  O   UNL     1     103.468 124.751 147.149  0.00  0.00    +0.000 OA
ATOM      2  O   UNL     1     102.741 122.785 145.833  0.00  0.00    +0.000 OA
ATOM      3  C   UNL     1     103.974 124.422 146.587  0.00  0.00    +0.000 A 
ATOM      4  C   UNL     1     102.478 123.770 146.833  0.00  0.00    +0.000 A 
ATOM      5  C   UNL     1     103.732 123.765 146.148  0.00  0.00    +0.000 A 
ATOM      6  C   UNL     1     102.720 124.426 147.272  0.00  0.00    +0.000 A 
ATOM      7  C   UNL     1     102.984 123.440 146.272  0.00  0.00    +0.000 A 
ATOM      8  C   UNL     1     102.202 124.779 147.861  0.00  0.00    +0.000 A 
ATOM      9  C   UNL     1     101.701 123.422 146.953  0.00  0.00    +0.000 A 
ATOM     10  C   UNL     1     101.423 124.444 147.994  0.00  0.00    +0.000 A 
ATOM     11  C   UNL     1     101.170 123.761 147.537  0.00  0.00    +0.000 A 
ENDROOT
BRANCH   3  14
ATOM     12  O   UNL     1     105.877 126.130 145.160  0.00  0.00    +0.000 OA
ATOM     13  O   UNL     1     106.884 125.802 145.960  0.00  0.00    +0.000 OA
ATOM     14  C   UNL     1     104.722 124.747 146.463  0.00  0.00    +0.000 A 
ATOM     15  C   UNL     1     105.592 125.601 145.718  0.00  0.00    +0.000 A 
ATOM     16  C   UNL     1     106.218 125.398 146.216  0.00  0.00    +0.000 A 
ATOM     17  C   UNL     1     104.845 125.276 145.842  0.00  0.00    +0.000 A 
ATOM     18  C   UNL     1     105.347 124.543 146.960  0.00  0.00    +0.000 A 
ATOM     19  C   UNL     1     106.096 124.869 146.837  0.00  0.00    +0.000 A 
ATOM     20  C   UNL     1     106.673 126.254 145.309  0.00  0.00    +0.000 C 
BRANCH  19  21
ATOM     21  O   UNL     1     106.721 124.665 147.334  0.00  0.00    +0.000 OA
ATOM     22  C   UNL     1     106.590 124.566 148.143  0.00  0.00    +0.000 C 
ENDBRANCH  19  21
ENDBRANCH   3  14
BRANCH   5  23
ATOM     23  O   UNL     1     104.237 123.436 145.586  0.00  0.00    +0.000 OA
ATOM     24  C   UNL     1     104.025 122.739 145.198  0.00  0.00    +0.000 C 
ENDBRANCH   5  23
BRANCH  10  25
ATOM     25  O   UNL     1     100.919 124.776 148.557  0.00  0.00    +0.000 OA
ATOM     26  C   UNL     1     100.819 124.410 149.289  0.00  0.00    +0.000 C 
ENDBRANCH  10  25
TORSDOF 4
ENDMDL
MODEL 7
REMARK VINA RESULT:      -7.7      2.341      4.344
REMARK  Name = 12305452
REMARK  4 active torsions:
REMARK  status: ('A' for Active; 'I' for Inactive)
REMARK    1  A    between atoms: O_4  and  C_14
REMARK    2  A    between atoms: O_5  and  C_17
REMARK    3  A    between atoms: O_6  and  C_22
REMARK    4  A    between atoms: C_8  and  C_9
REMARK                            x       y       z     vdW  Elec       q    Type
REMARK                         _______ _______ _______ _____ _____    ______ ____
ROOT
ATOM      1  O   UNL     1     106.228 124.988 145.942  0.00  0.00    +0.000 OA
ATOM      2  O   UNL     1     106.576 127.382 145.423  0.00  0.00    +0.000 OA
ATOM      3  C   UNL     1     106.459 125.509 146.538  0.00  0.00    +0.000 A 
ATOM      4  C   UNL     1     106.229 126.063 145.000  0.00  0.00    +0.000 A 
ATOM      5  C   UNL     1     106.576 126.308 146.365  0.00  0.00    +0.000 A 
ATOM      6  C   UNL     1     106.112 125.263 145.174  0.00  0.00    +0.000 A 
ATOM      7  C   UNL     1     106.460 126.584 145.596  0.00  0.00    +0.000 A 
ATOM      8  C   UNL     1     105.871 124.710 144.562  0.00  0.00    +0.000 A 
ATOM      9  C   UNL     1     106.112 126.363 144.203  0.00  0.00    +0.000 A 
ATOM     10  C   UNL     1     105.750 124.992 143.760  0.00  0.00    +0.000 A 
ATOM     11  C   UNL     1     105.871 125.824 143.579  0.00  0.00    +0.000 A 
ENDROOT
BRANCH   3  14
ATOM     12  O   UNL     1     108.127 124.575 148.756  0.00  0.00    +0.000 OA
ATOM     13  O   UNL     1     107.088 124.405 149.563  0.00  0.00    +0.000 OA
ATOM     14  C   UNL     1     106.575 125.233 147.306  0.00  0.00    +0.000 A 
ATOM     15  C   UNL     1     107.451 124.787 148.343  0.00  0.00    +0.000 A 
ATOM     16  C   UNL     1     106.805 124.681 148.844  0.00  0.00    +0.000 A 
ATOM     17  C   UNL     1     107.336 125.063 147.574  0.00  0.00    +0.000 A 
ATOM     18  C   UNL     1     105.928 125.127 147.808  0.00  0.00    +0.000 A 
ATOM     19  C   UNL     1     106.043 124.851 148.577  0.00  0.00    +0.000 A 
ATOM     20  C   UNL     1     107.903 124.340 149.508  0.00  0.00    +0.000 C 
BRANCH  19  21
ATOM     21  O   UNL     1     105.397 124.745 149.078  0.00  0.00    +0.000 OA
ATOM     22  C   UNL     1     104.630 124.771 148.774  0.00  0.00    +0.000 C 
ENDBRANCH  19  21
ENDBRANCH   3  14
BRANCH   5  23
ATOM     23  O   UNL     1     106.807 126.829 146.960  0.00  0.00    +0.000 OA
ATOM     24  C   UNL     1     106.840 127.640 146.809  0.00  0.00    +0.000 C 
ENDBRANCH   5  23
BRANCH  10  25
ATOM     25  O   UNL     1     105.518 124.468 143.166  0.00  0.00    +0.000 OA
ATOM     26  C   UNL     1     105.796 124.568 142.396  0.00  0.00    +0.000 C 
ENDBRANCH  10  25
TORSDOF 4
ENDMDL
MODEL 8
REMARK VINA RESULT:      -7.6      9.626     11.490
REMARK  Name = 12305452
REMARK  4 active torsions:
REMARK  status: ('A' for Active; 'I' for Inactive)
REMARK    1  A    between atoms: O_4  and  C_14
REMARK    2  A    between atoms: O_5  and  C_17
REMARK    3  A    between atoms: O_6  and  C_22
REMARK    4  A    between atoms: C_8  and  C_9
REMARK                            x       y       z     vdW  Elec       q    Type
REMARK                         _______ _______ _______ _____ _____    ______ ____
ROOT
ATOM      1  O   UNL     1     112.435 126.226 138.683  0.00  0.00    +0.000 OA
ATOM      2  O   UNL     1     110.718 126.246 140.466  0.00  0.00    +0.000 OA
ATOM      3  C   UNL     1     111.671 125.957 138.523  0.00  0.00    +0.000 A 
ATOM      4  C   UNL     1     112.053 126.508 140.031  0.00  0.00    +0.000 A 
ATOM      5  C   UNL     1     111.099 125.964 139.118  0.00  0.00    +0.000 A 
ATOM      6  C   UNL     1     112.626 126.501 139.437  0.00  0.00    +0.000 A 
ATOM      7  C   UNL     1     111.291 126.239 139.872  0.00  0.00    +0.000 A 
ATOM      8  C   UNL     1     113.425 126.778 139.591  0.00  0.00    +0.000 A 
ATOM      9  C   UNL     1     112.241 126.792 140.821  0.00  0.00    +0.000 A 
ATOM     10  C   UNL     1     113.630 127.066 140.373  0.00  0.00    +0.000 A 
ATOM     11  C   UNL     1     113.034 127.073 140.993  0.00  0.00    +0.000 A 
ENDROOT
BRANCH   3  14
ATOM     12  O   UNL     1     110.584 126.275 135.823  0.00  0.00    +0.000 OA
ATOM     13  O   UNL     1     110.848 125.018 135.489  0.00  0.00    +0.000 OA
ATOM     14  C   UNL     1     111.480 125.681 137.770  0.00  0.00    +0.000 A 
ATOM     15  C   UNL     1     110.933 125.912 136.470  0.00  0.00    +0.000 A 
ATOM     16  C   UNL     1     111.097 125.130 136.263  0.00  0.00    +0.000 A 
ATOM     17  C   UNL     1     111.124 126.187 137.223  0.00  0.00    +0.000 A 
ATOM     18  C   UNL     1     111.644 124.900 137.563  0.00  0.00    +0.000 A 
ATOM     19  C   UNL     1     111.453 124.624 136.808  0.00  0.00    +0.000 A 
ATOM     20  C   UNL     1     110.532 125.725 135.219  0.00  0.00    +0.000 C 
BRANCH  19  21
ATOM     21  O   UNL     1     111.617 123.844 136.601  0.00  0.00    +0.000 OA
ATOM     22  C   UNL     1     112.198 123.422 137.008  0.00  0.00    +0.000 C 
ENDBRANCH  19  21
ENDBRANCH   3  14
BRANCH   5  23
ATOM     23  O   UNL     1     110.336 125.695 138.959  0.00  0.00    +0.000 OA
ATOM     24  C   UNL     1     109.734 125.810 139.511  0.00  0.00    +0.000 C 
ENDBRANCH   5  23
BRANCH  10  25
ATOM     25  O   UNL     1     114.395 127.334 140.530  0.00  0.00    +0.000 OA
ATOM     26  C   UNL     1     114.521 128.122 140.741  0.00  0.00    +0.000 C 
ENDBRANCH  10  25
TORSDOF 4
ENDMDL
MODEL 9
REMARK VINA RESULT:      -7.6     12.844     13.608
REMARK  Name = 12305452
REMARK  4 active torsions:
REMARK  status: ('A' for Active; 'I' for Inactive)
REMARK    1  A    between atoms: O_4  and  C_14
REMARK    2  A    between atoms: O_5  and  C_17
REMARK    3  A    between atoms: O_6  and  C_22
REMARK    4  A    between atoms: C_8  and  C_9
REMARK                            x       y       z     vdW  Elec       q    Type
REMARK                         _______ _______ _______ _____ _____    ______ ____
ROOT
ATOM      1  O   UNL     1     112.247 126.521 136.458  0.00  0.00    +0.000 OA
ATOM      2  O   UNL     1     110.624 124.990 135.387  0.00  0.00    +0.000 OA
ATOM      3  C   UNL     1     111.587 126.827 136.068  0.00  0.00    +0.000 A 
ATOM      4  C   UNL     1     111.825 125.195 136.133  0.00  0.00    +0.000 A 
ATOM      5  C   UNL     1     111.046 126.316 135.711  0.00  0.00    +0.000 A 
ATOM      6  C   UNL     1     112.367 125.706 136.490  0.00  0.00    +0.000 A 
ATOM      7  C   UNL     1     111.165 125.500 135.744  0.00  0.00    +0.000 A 
ATOM      8  C   UNL     1     113.058 125.400 136.899  0.00  0.00    +0.000 A 
ATOM      9  C   UNL     1     111.938 124.343 136.160  0.00  0.00    +0.000 A 
ATOM     10  C   UNL     1     113.187 124.551 136.937  0.00  0.00    +0.000 A 
ATOM     11  C   UNL     1     112.623 124.019 136.565  0.00  0.00    +0.000 A 
ENDROOT
BRANCH   3  14
ATOM     12  O   UNL     1     110.400 129.334 137.006  0.00  0.00    +0.000 OA
ATOM     13  O   UNL     1     111.009 130.056 136.074  0.00  0.00    +0.000 OA
ATOM     14  C   UNL     1     111.468 127.642 136.035  0.00  0.00    +0.000 A 
ATOM     15  C   UNL     1     110.852 128.824 136.549  0.00  0.00    +0.000 A 
ATOM     16  C   UNL     1     111.230 129.274 135.969  0.00  0.00    +0.000 A 
ATOM     17  C   UNL     1     110.971 128.009 136.582  0.00  0.00    +0.000 A 
ATOM     18  C   UNL     1     111.847 128.091 135.456  0.00  0.00    +0.000 A 
ATOM     19  C   UNL     1     111.728 128.907 135.423  0.00  0.00    +0.000 A 
ATOM     20  C   UNL     1     110.496 130.093 136.713  0.00  0.00    +0.000 C 
BRANCH  19  21
ATOM     21  O   UNL     1     112.106 129.356 134.844  0.00  0.00    +0.000 OA
ATOM     22  C   UNL     1     112.876 129.168 134.614  0.00  0.00    +0.000 C 
ENDBRANCH  19  21
ENDBRANCH   3  14
BRANCH   5  23
ATOM     23  O   UNL     1     110.386 126.621 135.322  0.00  0.00    +0.000 OA
ATOM     24  C   UNL     1     109.933 126.134 134.835  0.00  0.00    +0.000 C 
ENDBRANCH   5  23
BRANCH  10  25
ATOM     25  O   UNL     1     113.848 124.249 137.327  0.00  0.00    +0.000 OA
ATOM     26  C   UNL     1     114.583 124.612 137.236  0.00  0.00    +0.000 C 
ENDBRANCH  10  25
TORSDOF 4
ENDMDL
MODEL 10
REMARK VINA RESULT:      -7.6     11.198     13.388
REMARK  Name = 12305452
REMARK  4 active torsions:
REMARK  status: ('A' for Active; 'I' for Inactive)
REMARK    1  A    between atoms: O_4  and  C_14
REMARK    2  A    between atoms: O_5  and  C_17
REMARK    3  A    between atoms: O_6  and  C_22
REMARK    4  A    between atoms: C_8  and  C_9
REMARK                            x       y       z     vdW  Elec       q    Type
REMARK                         _______ _______ _______ _____ _____    ______ ____
ROOT
ATOM      1  O   UNL     1     111.039 127.157 135.931  0.00  0.00    +0.000 OA
ATOM      2  O   UNL     1     113.203 128.353 135.835  0.00  0.00    +0.000 OA
ATOM      3  C   UNL     1     111.719 126.805 136.239  0.00  0.00    +0.000 A 
ATOM      4  C   UNL     1     111.803 128.306 135.559  0.00  0.00    +0.000 A 
ATOM      5  C   UNL     1     112.441 127.204 136.207  0.00  0.00    +0.000 A 
ATOM      6  C   UNL     1     111.080 127.907 135.592  0.00  0.00    +0.000 A 
ATOM      7  C   UNL     1     112.482 127.955 135.867  0.00  0.00    +0.000 A 
ATOM      8  C   UNL     1     110.365 128.263 135.274  0.00  0.00    +0.000 A 
ATOM      9  C   UNL     1     111.859 129.089 135.208  0.00  0.00    +0.000 A 
ATOM     10  C   UNL     1     110.402 129.045 134.919  0.00  0.00    +0.000 A 
ATOM     11  C   UNL     1     111.154 129.460 134.886  0.00  0.00    +0.000 A 
ENDROOT
BRANCH   3  14
ATOM     12  O   UNL     1     111.998 123.890 136.180  0.00  0.00    +0.000 OA
ATOM     13  O   UNL     1     111.607 123.754 137.441  0.00  0.00    +0.000 OA
ATOM     14  C   UNL     1     111.677 126.055 136.579  0.00  0.00    +0.000 A 
ATOM     15  C   UNL     1     111.837 124.638 136.475  0.00  0.00    +0.000 A 
ATOM     16  C   UNL     1     111.594 124.554 137.259  0.00  0.00    +0.000 A 
ATOM     17  C   UNL     1     111.878 125.388 136.135  0.00  0.00    +0.000 A 
ATOM     18  C   UNL     1     111.434 125.970 137.363  0.00  0.00    +0.000 A 
ATOM     19  C   UNL     1     111.392 125.219 137.703  0.00  0.00    +0.000 A 
ATOM     20  C   UNL     1     111.857 123.345 136.775  0.00  0.00    +0.000 C 
BRANCH  19  21
ATOM     21  O   UNL     1     111.150 125.134 138.486  0.00  0.00    +0.000 OA
ATOM     22  C   UNL     1     110.757 125.753 138.866  0.00  0.00    +0.000 C 
ENDBRANCH  19  21
ENDBRANCH   3  14
BRANCH   5  23
ATOM     23  O   UNL     1     113.120 126.852 136.514  0.00  0.00    +0.000 OA
ATOM     24  C   UNL     1     113.834 127.265 136.514  0.00  0.00    +0.000 C 
ENDBRANCH   5  23
BRANCH  10  25
ATOM     25  O   UNL     1     109.721 129.394 134.612  0.00  0.00    +0.000 OA
ATOM     26  C   UNL     1     109.412 130.074 134.963  0.00  0.00    +0.000 C 
ENDBRANCH  10  25
TORSDOF 4
ENDMDL
