MODEL 1
REMARK VINA RESULT:      -8.3      0.000      0.000
REMARK  Name = 42608089
REMARK  4 active torsions:
REMARK  status: ('A' for Active; 'I' for Inactive)
REMARK    1  A    between atoms: O_2  and  C_14
REMARK    2  A    between atoms: O_4  and  C_15
REMARK    3  A    between atoms: O_5  and  C_22
REMARK    4  A    between atoms: C_7  and  C_12
REMARK                            x       y       z     vdW  Elec       q    Type
REMARK                         _______ _______ _______ _____ _____    ______ ____
ROOT
ATOM      1  O   UNL     1     104.331 124.147 146.618  0.00  0.00    +0.000 OA
ATOM      2  O   UNL     1     102.768 125.520 148.061  0.00  0.00    +0.000 OA
ATOM      3  C   UNL     1     104.658 124.743 147.144  0.00  0.00    +0.000 C 
ATOM      4  C   UNL     1     104.130 125.210 147.635  0.00  0.00    +0.000 C 
ATOM      5  C   UNL     1     102.974 124.475 147.061  0.00  0.00    +0.000 A 
ATOM      6  C   UNL     1     103.481 124.026 146.590  0.00  0.00    +0.000 A 
ATOM      7  C   UNL     1     103.282 125.075 147.593  0.00  0.00    +0.000 C 
ATOM      8  C   UNL     1     103.173 123.453 146.083  0.00  0.00    +0.000 A 
ATOM      9  C   UNL     1     102.159 124.350 147.026  0.00  0.00    +0.000 A 
ATOM     10  C   UNL     1     102.359 123.328 146.047  0.00  0.00    +0.000 A 
ATOM     11  C   UNL     1     101.852 123.777 146.519  0.00  0.00    +0.000 A 
ATOM     12  C   UNL     1     103.680 123.004 145.612  0.00  0.00    +0.000 C 
ENDROOT
BRANCH   3  14
ATOM     13  O   UNL     1     107.078 125.641 145.916  0.00  0.00    +0.000 OA
ATOM     14  C   UNL     1     105.473 124.866 147.177  0.00  0.00    +0.000 A 
ATOM     15  C   UNL     1     105.868 125.192 146.531  0.00  0.00    +0.000 A 
ATOM     16  C   UNL     1     105.894 124.663 147.857  0.00  0.00    +0.000 A 
ATOM     17  C   UNL     1     106.683 125.315 146.563  0.00  0.00    +0.000 A 
ATOM     18  C   UNL     1     106.709 124.786 147.891  0.00  0.00    +0.000 A 
ATOM     19  C   UNL     1     107.104 125.112 147.244  0.00  0.00    +0.000 A 
BRANCH  19  20
ATOM     20  O   UNL     1     107.918 125.235 147.277  0.00  0.00    +0.000 OA
ATOM     21  C   UNL     1     108.343 125.004 147.945  0.00  0.00    +0.000 C 
ENDBRANCH  19  20
ENDBRANCH   3  14
BRANCH   9  22
ATOM     22  O   UNL     1     101.651 124.799 147.497  0.00  0.00    +0.000 OA
ATOM     23  C   UNL     1     101.065 124.427 147.941  0.00  0.00    +0.000 C 
ENDBRANCH   9  22
BRANCH  10  24
ATOM     24  O   UNL     1     102.050 122.754 145.541  0.00  0.00    +0.000 OA
ATOM     25  C   UNL     1     101.262 122.793 145.304  0.00  0.00    +0.000 C 
ENDBRANCH  10  24
TORSDOF 4
ENDMDL
MODEL 2
REMARK VINA RESULT:      -8.0      0.687      1.859
REMARK  Name = 42608089
REMARK  4 active torsions:
REMARK  status: ('A' for Active; 'I' for Inactive)
REMARK    1  A    between atoms: O_2  and  C_14
REMARK    2  A    between atoms: O_4  and  C_15
REMARK    3  A    between atoms: O_5  and  C_22
REMARK    4  A    between atoms: C_7  and  C_12
REMARK                            x       y       z     vdW  Elec       q    Type
REMARK                         _______ _______ _______ _____ _____    ______ ____
ROOT
ATOM      1  O   UNL     1     104.086 124.938 147.436  0.00  0.00    +0.000 OA
ATOM      2  O   UNL     1     103.332 123.486 145.504  0.00  0.00    +0.000 OA
ATOM      3  C   UNL     1     104.671 124.638 146.881  0.00  0.00    +0.000 C 
ATOM      4  C   UNL     1     104.417 124.146 146.225  0.00  0.00    +0.000 C 
ATOM      5  C   UNL     1     103.015 124.268 146.696  0.00  0.00    +0.000 A 
ATOM      6  C   UNL     1     103.258 124.741 147.327  0.00  0.00    +0.000 A 
ATOM      7  C   UNL     1     103.583 123.959 146.132  0.00  0.00    +0.000 C 
ATOM      8  C   UNL     1     102.701 125.032 147.862  0.00  0.00    +0.000 A 
ATOM      9  C   UNL     1     102.215 124.085 146.601  0.00  0.00    +0.000 A 
ATOM     10  C   UNL     1     101.903 124.849 147.768  0.00  0.00    +0.000 A 
ATOM     11  C   UNL     1     101.660 124.376 147.137  0.00  0.00    +0.000 A 
ATOM     12  C   UNL     1     102.944 125.505 148.493  0.00  0.00    +0.000 C 
ENDROOT
BRANCH   3  14
ATOM     13  O   UNL     1     107.078 125.813 145.884  0.00  0.00    +0.000 OA
ATOM     14  C   UNL     1     105.469 124.822 146.978  0.00  0.00    +0.000 A 
ATOM     15  C   UNL     1     105.874 125.225 146.383  0.00  0.00    +0.000 A 
ATOM     16  C   UNL     1     105.862 124.604 147.669  0.00  0.00    +0.000 A 
ATOM     17  C   UNL     1     106.672 125.410 146.479  0.00  0.00    +0.000 A 
ATOM     18  C   UNL     1     106.661 124.788 147.766  0.00  0.00    +0.000 A 
ATOM     19  C   UNL     1     107.066 125.191 147.171  0.00  0.00    +0.000 A 
BRANCH  19  20
ATOM     20  O   UNL     1     107.864 125.375 147.268  0.00  0.00    +0.000 OA
ATOM     21  C   UNL     1     108.282 125.072 147.911  0.00  0.00    +0.000 C 
ENDBRANCH  19  20
ENDBRANCH   3  14
BRANCH   9  22
ATOM     22  O   UNL     1     101.972 123.612 145.971  0.00  0.00    +0.000 OA
ATOM     23  C   UNL     1     101.169 123.479 145.841  0.00  0.00    +0.000 C 
ENDBRANCH   9  22
BRANCH  10  24
ATOM     24  O   UNL     1     101.346 125.140 148.303  0.00  0.00    +0.000 OA
ATOM     25  C   UNL     1     100.887 124.618 148.746  0.00  0.00    +0.000 C 
ENDBRANCH  10  24
TORSDOF 4
ENDMDL
MODEL 3
REMARK VINA RESULT:      -7.9      9.266      9.948
REMARK  Name = 42608089
REMARK  4 active torsions:
REMARK  status: ('A' for Active; 'I' for Inactive)
REMARK    1  A    between atoms: O_2  and  C_14
REMARK    2  A    between atoms: O_4  and  C_15
REMARK    3  A    between atoms: O_5  and  C_22
REMARK    4  A    between atoms: C_7  and  C_12
REMARK                            x       y       z     vdW  Elec       q    Type
REMARK                         _______ _______ _______ _____ _____    ______ ____
ROOT
ATOM      1  O   UNL     1     102.873 132.001 141.164  0.00  0.00    +0.000 OA
ATOM      2  O   UNL     1     100.710 132.253 142.457  0.00  0.00    +0.000 OA
ATOM      3  C   UNL     1     102.480 131.300 141.469  0.00  0.00    +0.000 C 
ATOM      4  C   UNL     1     101.746 131.382 141.908  0.00  0.00    +0.000 C 
ATOM      5  C   UNL     1     101.822 132.854 141.725  0.00  0.00    +0.000 A 
ATOM      6  C   UNL     1     102.526 132.775 141.303  0.00  0.00    +0.000 A 
ATOM      7  C   UNL     1     101.415 132.165 142.036  0.00  0.00    +0.000 C 
ATOM      8  C   UNL     1     102.908 133.445 141.009  0.00  0.00    +0.000 A 
ATOM      9  C   UNL     1     101.498 133.603 141.852  0.00  0.00    +0.000 A 
ATOM     10  C   UNL     1     102.585 134.193 141.135  0.00  0.00    +0.000 A 
ATOM     11  C   UNL     1     101.880 134.272 141.557  0.00  0.00    +0.000 A 
ATOM     12  C   UNL     1     103.613 133.366 140.587  0.00  0.00    +0.000 C 
ENDROOT
BRANCH   3  14
ATOM     13  O   UNL     1     102.745 128.962 139.846  0.00  0.00    +0.000 OA
ATOM     14  C   UNL     1     102.805 130.552 141.341  0.00  0.00    +0.000 A 
ATOM     15  C   UNL     1     102.613 130.131 140.658  0.00  0.00    +0.000 A 
ATOM     16  C   UNL     1     103.323 130.227 141.894  0.00  0.00    +0.000 A 
ATOM     17  C   UNL     1     102.938 129.384 140.529  0.00  0.00    +0.000 A 
ATOM     18  C   UNL     1     103.648 129.479 141.766  0.00  0.00    +0.000 A 
ATOM     19  C   UNL     1     103.456 129.057 141.083  0.00  0.00    +0.000 A 
BRANCH  19  20
ATOM     20  O   UNL     1     103.780 128.311 140.954  0.00  0.00    +0.000 OA
ATOM     21  C   UNL     1     104.425 128.059 141.403  0.00  0.00    +0.000 C 
ENDBRANCH  19  20
ENDBRANCH   3  14
BRANCH   9  22
ATOM     22  O   UNL     1     100.793 133.682 142.273  0.00  0.00    +0.000 OA
ATOM     23  C   UNL     1     100.710 134.287 142.827  0.00  0.00    +0.000 C 
ENDBRANCH   9  22
BRANCH  10  24
ATOM     24  O   UNL     1     102.966 134.863 140.841  0.00  0.00    +0.000 OA
ATOM     25  C   UNL     1     102.526 135.516 140.599  0.00  0.00    +0.000 C 
ENDBRANCH  10  24
TORSDOF 4
ENDMDL
MODEL 4
REMARK VINA RESULT:      -7.9     13.204     14.522
REMARK  Name = 42608089
REMARK  4 active torsions:
REMARK  status: ('A' for Active; 'I' for Inactive)
REMARK    1  A    between atoms: O_2  and  C_14
REMARK    2  A    between atoms: O_4  and  C_15
REMARK    3  A    between atoms: O_5  and  C_22
REMARK    4  A    between atoms: C_7  and  C_12
REMARK                            x       y       z     vdW  Elec       q    Type
REMARK                         _______ _______ _______ _____ _____    ______ ____
ROOT
ATOM      1  O   UNL     1     113.591 127.328 136.267  0.00  0.00    +0.000 OA
ATOM      2  O   UNL     1     111.116 127.380 135.736  0.00  0.00    +0.000 OA
ATOM      3  C   UNL     1     113.225 128.071 136.036  0.00  0.00    +0.000 C 
ATOM      4  C   UNL     1     112.386 128.092 135.855  0.00  0.00    +0.000 C 
ATOM      5  C   UNL     1     112.305 126.636 136.140  0.00  0.00    +0.000 A 
ATOM      6  C   UNL     1     113.112 126.616 136.314  0.00  0.00    +0.000 A 
ATOM      7  C   UNL     1     111.922 127.369 135.907  0.00  0.00    +0.000 C 
ATOM      8  C   UNL     1     113.468 125.906 136.536  0.00  0.00    +0.000 A 
ATOM      9  C   UNL     1     111.855 125.946 136.189  0.00  0.00    +0.000 A 
ATOM     10  C   UNL     1     113.018 125.216 136.585  0.00  0.00    +0.000 A 
ATOM     11  C   UNL     1     112.212 125.236 136.411  0.00  0.00    +0.000 A 
ATOM     12  C   UNL     1     114.274 125.886 136.710  0.00  0.00    +0.000 C 
ENDROOT
BRANCH   3  14
ATOM     13  O   UNL     1     114.201 130.478 137.228  0.00  0.00    +0.000 OA
ATOM     14  C   UNL     1     113.677 128.759 135.988  0.00  0.00    +0.000 A 
ATOM     15  C   UNL     1     113.713 129.274 136.631  0.00  0.00    +0.000 A 
ATOM     16  C   UNL     1     114.093 128.933 135.298  0.00  0.00    +0.000 A 
ATOM     17  C   UNL     1     114.165 129.963 136.585  0.00  0.00    +0.000 A 
ATOM     18  C   UNL     1     114.545 129.621 135.250  0.00  0.00    +0.000 A 
ATOM     19  C   UNL     1     114.581 130.137 135.893  0.00  0.00    +0.000 A 
BRANCH  19  20
ATOM     20  O   UNL     1     115.033 130.824 135.846  0.00  0.00    +0.000 OA
ATOM     21  C   UNL     1     115.433 131.008 135.148  0.00  0.00    +0.000 C 
ENDBRANCH  19  20
ENDBRANCH   3  14
BRANCH   9  22
ATOM     22  O   UNL     1     111.049 125.966 136.015  0.00  0.00    +0.000 OA
ATOM     23  C   UNL     1     110.706 125.356 135.579  0.00  0.00    +0.000 C 
ENDBRANCH   9  22
BRANCH  10  24
ATOM     24  O   UNL     1     113.374 124.506 136.807  0.00  0.00    +0.000 OA
ATOM     25  C   UNL     1     112.912 123.837 136.942  0.00  0.00    +0.000 C 
ENDBRANCH  10  24
TORSDOF 4
ENDMDL
MODEL 5
REMARK VINA RESULT:      -7.7      0.936      4.795
REMARK  Name = 42608089
REMARK  4 active torsions:
REMARK  status: ('A' for Active; 'I' for Inactive)
REMARK    1  A    between atoms: O_2  and  C_14
REMARK    2  A    between atoms: O_4  and  C_15
REMARK    3  A    between atoms: O_5  and  C_22
REMARK    4  A    between atoms: C_7  and  C_12
REMARK                            x       y       z     vdW  Elec       q    Type
REMARK                         _______ _______ _______ _____ _____    ______ ____
ROOT
ATOM      1  O   UNL     1     104.720 124.333 147.633  0.00  0.00    +0.000 OA
ATOM      2  O   UNL     1     106.137 125.383 145.817  0.00  0.00    +0.000 OA
ATOM      3  C   UNL     1     104.398 124.411 146.840  0.00  0.00    +0.000 C 
ATOM      4  C   UNL     1     104.876 124.767 146.222  0.00  0.00    +0.000 C 
ATOM      5  C   UNL     1     105.975 124.953 147.203  0.00  0.00    +0.000 A 
ATOM      6  C   UNL     1     105.515 124.611 147.797  0.00  0.00    +0.000 A 
ATOM      7  C   UNL     1     105.671 125.040 146.405  0.00  0.00    +0.000 C 
ATOM      8  C   UNL     1     105.820 124.534 148.560  0.00  0.00    +0.000 A 
ATOM      9  C   UNL     1     106.739 125.217 147.373  0.00  0.00    +0.000 A 
ATOM     10  C   UNL     1     106.582 124.797 148.730  0.00  0.00    +0.000 A 
ATOM     11  C   UNL     1     107.042 125.139 148.136  0.00  0.00    +0.000 A 
ATOM     12  C   UNL     1     105.360 124.192 149.154  0.00  0.00    +0.000 C 
ENDROOT
BRANCH   3  14
ATOM     13  O   UNL     1     101.566 124.710 147.087  0.00  0.00    +0.000 OA
ATOM     14  C   UNL     1     103.634 124.147 146.673  0.00  0.00    +0.000 A 
ATOM     15  C   UNL     1     102.982 124.560 146.963  0.00  0.00    +0.000 A 
ATOM     16  C   UNL     1     103.522 123.469 146.217  0.00  0.00    +0.000 A 
ATOM     17  C   UNL     1     102.218 124.297 146.797  0.00  0.00    +0.000 A 
ATOM     18  C   UNL     1     102.759 123.205 146.050  0.00  0.00    +0.000 A 
ATOM     19  C   UNL     1     102.107 123.618 146.340  0.00  0.00    +0.000 A 
BRANCH  19  20
ATOM     20  O   UNL     1     101.344 123.354 146.174  0.00  0.00    +0.000 OA
ATOM     21  C   UNL     1     101.208 122.874 145.517  0.00  0.00    +0.000 C 
ENDBRANCH  19  20
ENDBRANCH   3  14
BRANCH   9  22
ATOM     22  O   UNL     1     107.199 125.559 146.779  0.00  0.00    +0.000 OA
ATOM     23  C   UNL     1     107.705 126.185 146.959  0.00  0.00    +0.000 C 
ENDBRANCH   9  22
BRANCH  10  24
ATOM     24  O   UNL     1     106.886 124.719 149.493  0.00  0.00    +0.000 OA
ATOM     25  C   UNL     1     107.660 124.458 149.605  0.00  0.00    +0.000 C 
ENDBRANCH  10  24
TORSDOF 4
ENDMDL
MODEL 6
REMARK VINA RESULT:      -7.7     13.414     14.957
REMARK  Name = 42608089
REMARK  4 active torsions:
REMARK  status: ('A' for Active; 'I' for Inactive)
REMARK    1  A    between atoms: O_2  and  C_14
REMARK    2  A    between atoms: O_4  and  C_15
REMARK    3  A    between atoms: O_5  and  C_22
REMARK    4  A    between atoms: C_7  and  C_12
REMARK                            x       y       z     vdW  Elec       q    Type
REMARK                         _______ _______ _______ _____ _____    ______ ____
ROOT
ATOM      1  O   UNL     1     113.884 127.851 136.086  0.00  0.00    +0.000 OA
ATOM      2  O   UNL     1     112.764 129.166 137.937  0.00  0.00    +0.000 OA
ATOM      3  C   UNL     1     113.461 127.430 136.705  0.00  0.00    +0.000 C 
ATOM      4  C   UNL     1     113.080 127.873 137.334  0.00  0.00    +0.000 C 
ATOM      5  C   UNL     1     113.554 129.134 136.709  0.00  0.00    +0.000 A 
ATOM      6  C   UNL     1     113.920 128.708 136.105  0.00  0.00    +0.000 A 
ATOM      7  C   UNL     1     113.127 128.732 137.336  0.00  0.00    +0.000 C 
ATOM      8  C   UNL     1     114.328 129.107 135.508  0.00  0.00    +0.000 A 
ATOM      9  C   UNL     1     113.596 129.959 136.717  0.00  0.00    +0.000 A 
ATOM     10  C   UNL     1     114.369 129.930 135.515  0.00  0.00    +0.000 A 
ATOM     11  C   UNL     1     114.003 130.356 136.120  0.00  0.00    +0.000 A 
ATOM     12  C   UNL     1     114.694 128.681 134.904  0.00  0.00    +0.000 C 
ENDROOT
BRANCH   3  14
ATOM     13  O   UNL     1     114.674 124.888 137.190  0.00  0.00    +0.000 OA
ATOM     14  C   UNL     1     113.421 126.606 136.695  0.00  0.00    +0.000 A 
ATOM     15  C   UNL     1     114.067 126.159 136.947  0.00  0.00    +0.000 A 
ATOM     16  C   UNL     1     112.736 126.229 136.432  0.00  0.00    +0.000 A 
ATOM     17  C   UNL     1     114.028 125.335 136.937  0.00  0.00    +0.000 A 
ATOM     18  C   UNL     1     112.696 125.405 136.422  0.00  0.00    +0.000 A 
ATOM     19  C   UNL     1     113.342 124.957 136.675  0.00  0.00    +0.000 A 
BRANCH  19  20
ATOM     20  O   UNL     1     113.303 124.134 136.665  0.00  0.00    +0.000 OA
ATOM     21  C   UNL     1     112.569 123.757 136.654  0.00  0.00    +0.000 C 
ENDBRANCH  19  20
ENDBRANCH   3  14
BRANCH   9  22
ATOM     22  O   UNL     1     113.230 130.385 137.321  0.00  0.00    +0.000 OA
ATOM     23  C   UNL     1     112.892 131.120 137.161  0.00  0.00    +0.000 C 
ENDBRANCH   9  22
BRANCH  10  24
ATOM     24  O   UNL     1     114.777 130.329 134.919  0.00  0.00    +0.000 OA
ATOM     25  C   UNL     1     115.321 130.917 135.112  0.00  0.00    +0.000 C 
ENDBRANCH  10  24
TORSDOF 4
ENDMDL
MODEL 7
REMARK VINA RESULT:      -7.7     12.692     14.362
REMARK  Name = 42608089
REMARK  4 active torsions:
REMARK  status: ('A' for Active; 'I' for Inactive)
REMARK    1  A    between atoms: O_2  and  C_14
REMARK    2  A    between atoms: O_4  and  C_15
REMARK    3  A    between atoms: O_5  and  C_22
REMARK    4  A    between atoms: C_7  and  C_12
REMARK                            x       y       z     vdW  Elec       q    Type
REMARK                         _______ _______ _______ _____ _____    ______ ____
ROOT
ATOM      1  O   UNL     1     112.437 127.952 135.751  0.00  0.00    +0.000 OA
ATOM      2  O   UNL     1     113.372 125.944 136.977  0.00  0.00    +0.000 OA
ATOM      3  C   UNL     1     113.219 128.001 136.104  0.00  0.00    +0.000 C 
ATOM      4  C   UNL     1     113.539 127.321 136.521  0.00  0.00    +0.000 C 
ATOM      5  C   UNL     1     112.293 126.572 136.219  0.00  0.00    +0.000 A 
ATOM      6  C   UNL     1     111.986 127.224 135.819  0.00  0.00    +0.000 A 
ATOM      7  C   UNL     1     113.073 126.601 136.579  0.00  0.00    +0.000 C 
ATOM      8  C   UNL     1     111.236 127.183 135.478  0.00  0.00    +0.000 A 
ATOM      9  C   UNL     1     111.850 125.877 136.278  0.00  0.00    +0.000 A 
ATOM     10  C   UNL     1     110.793 126.490 135.536  0.00  0.00    +0.000 A 
ATOM     11  C   UNL     1     111.101 125.837 135.936  0.00  0.00    +0.000 A 
ATOM     12  C   UNL     1     110.929 127.836 135.077  0.00  0.00    +0.000 C 
ENDROOT
BRANCH   3  14
ATOM     13  O   UNL     1     113.917 130.584 137.110  0.00  0.00    +0.000 OA
ATOM     14  C   UNL     1     113.660 128.696 136.044  0.00  0.00    +0.000 A 
ATOM     15  C   UNL     1     113.569 129.292 136.607  0.00  0.00    +0.000 A 
ATOM     16  C   UNL     1     114.192 128.795 135.422  0.00  0.00    +0.000 A 
ATOM     17  C   UNL     1     114.009 129.987 136.548  0.00  0.00    +0.000 A 
ATOM     18  C   UNL     1     114.633 129.490 135.361  0.00  0.00    +0.000 A 
ATOM     19  C   UNL     1     114.541 130.086 135.924  0.00  0.00    +0.000 A 
BRANCH  19  20
ATOM     20  O   UNL     1     114.981 130.781 135.864  0.00  0.00    +0.000 OA
ATOM     21  C   UNL     1     115.481 130.897 135.219  0.00  0.00    +0.000 C 
ENDBRANCH  19  20
ENDBRANCH   3  14
BRANCH   9  22
ATOM     22  O   UNL     1     112.158 125.224 136.678  0.00  0.00    +0.000 OA
ATOM     23  C   UNL     1     111.653 124.719 137.091  0.00  0.00    +0.000 C 
ENDBRANCH   9  22
BRANCH  10  24
ATOM     24  O   UNL     1     110.043 126.448 135.195  0.00  0.00    +0.000 OA
ATOM     25  C   UNL     1     109.835 125.797 134.734  0.00  0.00    +0.000 C 
ENDBRANCH  10  24
TORSDOF 4
ENDMDL
MODEL 8
REMARK VINA RESULT:      -7.7     12.713     13.798
REMARK  Name = 42608089
REMARK  4 active torsions:
REMARK  status: ('A' for Active; 'I' for Inactive)
REMARK    1  A    between atoms: O_2  and  C_14
REMARK    2  A    between atoms: O_4  and  C_15
REMARK    3  A    between atoms: O_5  and  C_22
REMARK    4  A    between atoms: C_7  and  C_12
REMARK                            x       y       z     vdW  Elec       q    Type
REMARK                         _______ _______ _______ _____ _____    ______ ____
ROOT
ATOM      1  O   UNL     1     111.733 126.912 136.246  0.00  0.00    +0.000 OA
ATOM      2  O   UNL     1     110.913 124.583 135.687  0.00  0.00    +0.000 OA
ATOM      3  C   UNL     1     110.981 126.816 135.840  0.00  0.00    +0.000 C 
ATOM      4  C   UNL     1     110.700 126.027 135.649  0.00  0.00    +0.000 C 
ATOM      5  C   UNL     1     111.924 125.460 136.272  0.00  0.00    +0.000 A 
ATOM      6  C   UNL     1     112.194 126.218 136.455  0.00  0.00    +0.000 A 
ATOM      7  C   UNL     1     111.175 125.344 135.867  0.00  0.00    +0.000 C 
ATOM      8  C   UNL     1     112.915 126.315 136.844  0.00  0.00    +0.000 A 
ATOM      9  C   UNL     1     112.375 124.800 136.478  0.00  0.00    +0.000 A 
ATOM     10  C   UNL     1     113.365 125.657 137.050  0.00  0.00    +0.000 A 
ATOM     11  C   UNL     1     113.096 124.899 136.867  0.00  0.00    +0.000 A 
ATOM     12  C   UNL     1     113.184 127.073 137.027  0.00  0.00    +0.000 C 
ENDROOT
BRANCH   3  14
ATOM     13  O   UNL     1     108.897 128.676 136.445  0.00  0.00    +0.000 OA
ATOM     14  C   UNL     1     110.532 127.477 135.635  0.00  0.00    +0.000 A 
ATOM     15  C   UNL     1     109.940 127.746 136.142  0.00  0.00    +0.000 A 
ATOM     16  C   UNL     1     110.675 127.870 134.924  0.00  0.00    +0.000 A 
ATOM     17  C   UNL     1     109.490 128.407 135.938  0.00  0.00    +0.000 A 
ATOM     18  C   UNL     1     110.227 128.531 134.719  0.00  0.00    +0.000 A 
ATOM     19  C   UNL     1     109.634 128.800 135.226  0.00  0.00    +0.000 A 
BRANCH  19  20
ATOM     20  O   UNL     1     109.185 129.460 135.022  0.00  0.00    +0.000 OA
ATOM     21  C   UNL     1     109.535 130.086 134.614  0.00  0.00    +0.000 C 
ENDBRANCH  19  20
ENDBRANCH   3  14
BRANCH   9  22
ATOM     22  O   UNL     1     112.105 124.042 136.295  0.00  0.00    +0.000 OA
ATOM     23  C   UNL     1     112.092 123.457 136.876  0.00  0.00    +0.000 C 
ENDBRANCH   9  22
BRANCH  10  24
ATOM     24  O   UNL     1     114.086 125.754 137.439  0.00  0.00    +0.000 OA
ATOM     25  C   UNL     1     114.651 125.155 137.418  0.00  0.00    +0.000 C 
ENDBRANCH  10  24
TORSDOF 4
ENDMDL
MODEL 9
REMARK VINA RESULT:      -7.5      2.198      4.144
REMARK  Name = 42608089
REMARK  4 active torsions:
REMARK  status: ('A' for Active; 'I' for Inactive)
REMARK    1  A    between atoms: O_2  and  C_14
REMARK    2  A    between atoms: O_4  and  C_15
REMARK    3  A    between atoms: O_5  and  C_22
REMARK    4  A    between atoms: C_7  and  C_12
REMARK                            x       y       z     vdW  Elec       q    Type
REMARK                         _______ _______ _______ _____ _____    ______ ____
ROOT
ATOM      1  O   UNL     1     106.505 125.309 146.472  0.00  0.00    +0.000 OA
ATOM      2  O   UNL     1     104.273 124.647 147.468  0.00  0.00    +0.000 OA
ATOM      3  C   UNL     1     105.805 125.311 145.974  0.00  0.00    +0.000 C 
ATOM      4  C   UNL     1     105.046 125.087 146.309  0.00  0.00    +0.000 C 
ATOM      5  C   UNL     1     105.709 124.868 147.620  0.00  0.00    +0.000 A 
ATOM      6  C   UNL     1     106.438 125.083 147.298  0.00  0.00    +0.000 A 
ATOM      7  C   UNL     1     104.998 124.864 147.138  0.00  0.00    +0.000 C 
ATOM      8  C   UNL     1     107.114 125.083 147.772  0.00  0.00    +0.000 A 
ATOM      9  C   UNL     1     105.656 124.652 148.415  0.00  0.00    +0.000 A 
ATOM     10  C   UNL     1     107.061 124.867 148.566  0.00  0.00    +0.000 A 
ATOM     11  C   UNL     1     106.333 124.652 148.887  0.00  0.00    +0.000 A 
ATOM     12  C   UNL     1     107.842 125.298 147.450  0.00  0.00    +0.000 C 
ENDROOT
BRANCH   3  14
ATOM     13  O   UNL     1     106.024 124.579 143.220  0.00  0.00    +0.000 OA
ATOM     14  C   UNL     1     105.860 125.527 145.180  0.00  0.00    +0.000 A 
ATOM     15  C   UNL     1     105.914 124.946 144.597  0.00  0.00    +0.000 A 
ATOM     16  C   UNL     1     105.861 126.324 144.968  0.00  0.00    +0.000 A 
ATOM     17  C   UNL     1     105.970 125.160 143.803  0.00  0.00    +0.000 A 
ATOM     18  C   UNL     1     105.916 126.540 144.173  0.00  0.00    +0.000 A 
ATOM     19  C   UNL     1     105.971 125.958 143.591  0.00  0.00    +0.000 A 
BRANCH  19  20
ATOM     20  O   UNL     1     106.026 126.173 142.797  0.00  0.00    +0.000 OA
ATOM     21  C   UNL     1     105.949 126.965 142.578  0.00  0.00    +0.000 C 
ENDBRANCH  19  20
ENDBRANCH   3  14
BRANCH   9  22
ATOM     22  O   UNL     1     104.928 124.437 148.737  0.00  0.00    +0.000 OA
ATOM     23  C   UNL     1     104.709 124.714 149.482  0.00  0.00    +0.000 C 
ENDBRANCH   9  22
BRANCH  10  24
ATOM     24  O   UNL     1     107.737 124.867 149.039  0.00  0.00    +0.000 OA
ATOM     25  C   UNL     1     107.840 124.283 149.612  0.00  0.00    +0.000 C 
ENDBRANCH  10  24
TORSDOF 4
ENDMDL
MODEL 10
REMARK VINA RESULT:      -7.5     12.788     13.941
REMARK  Name = 42608089
REMARK  4 active torsions:
REMARK  status: ('A' for Active; 'I' for Inactive)
REMARK    1  A    between atoms: O_2  and  C_14
REMARK    2  A    between atoms: O_4  and  C_15
REMARK    3  A    between atoms: O_5  and  C_22
REMARK    4  A    between atoms: C_7  and  C_12
REMARK                            x       y       z     vdW  Elec       q    Type
REMARK                         _______ _______ _______ _____ _____    ______ ____
ROOT
ATOM      1  O   UNL     1     111.704 126.486 136.108  0.00  0.00    +0.000 OA
ATOM      2  O   UNL     1     114.163 126.714 136.669  0.00  0.00    +0.000 OA
ATOM      3  C   UNL     1     112.068 127.265 136.098  0.00  0.00    +0.000 C 
ATOM      4  C   UNL     1     112.902 127.345 136.288  0.00  0.00    +0.000 C 
ATOM      5  C   UNL     1     112.980 125.876 136.489  0.00  0.00    +0.000 A 
ATOM      6  C   UNL     1     112.179 125.799 136.307  0.00  0.00    +0.000 A 
ATOM      7  C   UNL     1     113.361 126.646 136.485  0.00  0.00    +0.000 C 
ATOM      8  C   UNL     1     111.824 125.054 136.315  0.00  0.00    +0.000 A 
ATOM      9  C   UNL     1     113.426 125.208 136.679  0.00  0.00    +0.000 A 
ATOM     10  C   UNL     1     112.270 124.387 136.505  0.00  0.00    +0.000 A 
ATOM     11  C   UNL     1     113.071 124.464 136.687  0.00  0.00    +0.000 A 
ATOM     12  C   UNL     1     111.023 124.977 136.133  0.00  0.00    +0.000 C 
ENDROOT
BRANCH   3  14
ATOM     13  O   UNL     1     110.431 129.462 136.914  0.00  0.00    +0.000 OA
ATOM     14  C   UNL     1     111.620 127.931 135.908  0.00  0.00    +0.000 A 
ATOM     15  C   UNL     1     111.250 128.364 136.505  0.00  0.00    +0.000 A 
ATOM     16  C   UNL     1     111.542 128.166 135.121  0.00  0.00    +0.000 A 
ATOM     17  C   UNL     1     110.802 129.030 136.317  0.00  0.00    +0.000 A 
ATOM     18  C   UNL     1     111.094 128.832 134.931  0.00  0.00    +0.000 A 
ATOM     19  C   UNL     1     110.723 129.264 135.529  0.00  0.00    +0.000 A 
BRANCH  19  20
ATOM     20  O   UNL     1     110.276 129.929 135.339  0.00  0.00    +0.000 OA
ATOM     21  C   UNL     1     109.888 129.972 134.612  0.00  0.00    +0.000 C 
ENDBRANCH  19  20
ENDBRANCH   3  14
BRANCH   9  22
ATOM     22  O   UNL     1     114.227 125.285 136.862  0.00  0.00    +0.000 OA
ATOM     23  C   UNL     1     114.616 124.684 137.271  0.00  0.00    +0.000 C 
ENDBRANCH   9  22
BRANCH  10  24
ATOM     24  O   UNL     1     111.915 123.642 136.512  0.00  0.00    +0.000 OA
ATOM     25  C   UNL     1     112.010 123.146 137.164  0.00  0.00    +0.000 C 
ENDBRANCH  10  24
TORSDOF 4
ENDMDL
