MODEL 1
REMARK VINA RESULT:      -9.4      0.000      0.000
REMARK  Name = 44258650
REMARK  2 active torsions:
REMARK  status: ('A' for Active; 'I' for Inactive)
REMARK    1  A    between atoms: O_2  and  C_15
REMARK    2  A    between atoms: C_11  and  C_16
REMARK                            x       y       z     vdW  Elec       q    Type
REMARK                         _______ _______ _______ _____ _____    ______ ____
ROOT
ATOM      1  O   UNL     1     104.734 123.689 139.277  0.00  0.00    +0.000 OA
ATOM      2  O   UNL     1     105.738 125.957 140.769  0.00  0.00    +0.000 OA
ATOM      3  O   UNL     1     105.863 122.743 140.033  0.00  0.00    +0.000 OA
ATOM      4  O   UNL     1     106.914 123.378 141.135  0.00  0.00    +0.000 OA
ATOM      5  O   UNL     1     104.644 126.154 139.848  0.00  0.00    +0.000 OA
ATOM      6  C   UNL     1     105.244 124.836 140.033  0.00  0.00    +0.000 A 
ATOM      7  C   UNL     1     105.275 124.032 139.849  0.00  0.00    +0.000 A 
ATOM      8  C   UNL     1     104.152 124.190 138.891  0.00  0.00    +0.000 A 
ATOM      9  C   UNL     1     105.769 125.153 140.585  0.00  0.00    +0.000 A 
ATOM     10  C   UNL     1     105.832 123.546 140.217  0.00  0.00    +0.000 A 
ATOM     11  C   UNL     1     104.669 125.351 139.658  0.00  0.00    +0.000 A 
ATOM     12  C   UNL     1     106.325 124.668 140.952  0.00  0.00    +0.000 A 
ATOM     13  C   UNL     1     104.119 125.027 139.083  0.00  0.00    +0.000 A 
ATOM     14  C   UNL     1     106.357 123.864 140.768  0.00  0.00    +0.000 A 
ENDROOT
BRANCH   8  17
ATOM     15  O   UNL     1     101.484 123.532 138.105  0.00  0.00    +0.000 OA
ATOM     16  O   UNL     1     102.055 122.908 136.689  0.00  0.00    +0.000 OA
ATOM     17  C   UNL     1     103.628 123.869 138.340  0.00  0.00    +0.000 A 
ATOM     18  C   UNL     1     102.818 123.861 138.498  0.00  0.00    +0.000 A 
ATOM     19  C   UNL     1     103.914 123.557 137.632  0.00  0.00    +0.000 A 
ATOM     20  C   UNL     1     102.294 123.541 137.948  0.00  0.00    +0.000 A 
ATOM     21  C   UNL     1     103.389 123.236 137.081  0.00  0.00    +0.000 A 
ATOM     22  C   UNL     1     102.580 123.228 137.238  0.00  0.00    +0.000 A 
ENDBRANCH   8  17
BRANCH  12  23
ATOM     23  O   UNL     1     106.851 124.986 141.503  0.00  0.00    +0.000 OA
ATOM     24  C   UNL     1     107.583 125.273 141.258  0.00  0.00    +0.000 C 
ENDBRANCH  12  23
TORSDOF 2
ENDMDL
MODEL 2
REMARK VINA RESULT:      -9.3      6.979      9.108
REMARK  Name = 44258650
REMARK  2 active torsions:
REMARK  status: ('A' for Active; 'I' for Inactive)
REMARK    1  A    between atoms: O_2  and  C_15
REMARK    2  A    between atoms: C_11  and  C_16
REMARK                            x       y       z     vdW  Elec       q    Type
REMARK                         _______ _______ _______ _____ _____    ______ ____
ROOT
ATOM      1  O   UNL     1     105.247 124.218 147.153  0.00  0.00    +0.000 OA
ATOM      2  O   UNL     1     102.514 125.098 147.523  0.00  0.00    +0.000 OA
ATOM      3  O   UNL     1     104.737 123.304 145.870  0.00  0.00    +0.000 OA
ATOM      4  O   UNL     1     103.152 123.280 145.412  0.00  0.00    +0.000 OA
ATOM      5  O   UNL     1     103.535 125.590 148.417  0.00  0.00    +0.000 OA
ATOM      6  C   UNL     1     103.862 124.662 147.339  0.00  0.00    +0.000 A 
ATOM      7  C   UNL     1     104.419 124.213 146.925  0.00  0.00    +0.000 A 
ATOM      8  C   UNL     1     105.500 124.696 147.822  0.00  0.00    +0.000 A 
ATOM      9  C   UNL     1     103.070 124.649 147.110  0.00  0.00    +0.000 A 
ATOM     10  C   UNL     1     104.181 123.753 146.283  0.00  0.00    +0.000 A 
ATOM     11  C   UNL     1     104.097 125.145 148.009  0.00  0.00    +0.000 A 
ATOM     12  C   UNL     1     102.833 124.189 146.468  0.00  0.00    +0.000 A 
ATOM     13  C   UNL     1     104.921 125.163 148.253  0.00  0.00    +0.000 A 
ATOM     14  C   UNL     1     103.389 123.740 146.054  0.00  0.00    +0.000 A 
ENDROOT
BRANCH   8  17
ATOM     15  O   UNL     1     108.199 125.500 147.343  0.00  0.00    +0.000 OA
ATOM     16  O   UNL     1     108.673 124.738 148.727  0.00  0.00    +0.000 OA
ATOM     17  C   UNL     1     106.293 124.706 148.048  0.00  0.00    +0.000 A 
ATOM     18  C   UNL     1     106.850 125.098 147.582  0.00  0.00    +0.000 A 
ATOM     19  C   UNL     1     106.530 124.325 148.741  0.00  0.00    +0.000 A 
ATOM     20  C   UNL     1     107.643 125.109 147.808  0.00  0.00    +0.000 A 
ATOM     21  C   UNL     1     107.323 124.336 148.967  0.00  0.00    +0.000 A 
ATOM     22  C   UNL     1     107.880 124.727 148.502  0.00  0.00    +0.000 A 
ENDBRANCH   8  17
BRANCH  12  23
ATOM     23  O   UNL     1     102.040 124.176 146.239  0.00  0.00    +0.000 OA
ATOM     24  C   UNL     1     101.541 123.580 146.512  0.00  0.00    +0.000 C 
ENDBRANCH  12  23
TORSDOF 2
ENDMDL
MODEL 3
REMARK VINA RESULT:      -8.9      5.475      8.260
REMARK  Name = 44258650
REMARK  2 active torsions:
REMARK  status: ('A' for Active; 'I' for Inactive)
REMARK    1  A    between atoms: O_2  and  C_15
REMARK    2  A    between atoms: C_11  and  C_16
REMARK                            x       y       z     vdW  Elec       q    Type
REMARK                         _______ _______ _______ _____ _____    ______ ____
ROOT
ATOM      1  O   UNL     1     106.616 125.139 146.203  0.00  0.00    +0.000 OA
ATOM      2  O   UNL     1     105.869 127.525 144.744  0.00  0.00    +0.000 OA
ATOM      3  O   UNL     1     106.177 124.242 144.881  0.00  0.00    +0.000 OA
ATOM      4  O   UNL     1     105.595 124.960 143.514  0.00  0.00    +0.000 OA
ATOM      5  O   UNL     1     106.376 127.657 146.089  0.00  0.00    +0.000 OA
ATOM      6  C   UNL     1     106.237 126.346 145.463  0.00  0.00    +0.000 A 
ATOM      7  C   UNL     1     106.314 125.524 145.497  0.00  0.00    +0.000 A 
ATOM      8  C   UNL     1     106.840 125.615 146.883  0.00  0.00    +0.000 A 
ATOM      9  C   UNL     1     105.946 126.704 144.779  0.00  0.00    +0.000 A 
ATOM     10  C   UNL     1     106.100 125.063 144.847  0.00  0.00    +0.000 A 
ATOM     11  C   UNL     1     106.456 126.837 146.132  0.00  0.00    +0.000 A 
ATOM     12  C   UNL     1     105.732 126.243 144.130  0.00  0.00    +0.000 A 
ATOM     13  C   UNL     1     106.760 126.470 146.847  0.00  0.00    +0.000 A 
ATOM     14  C   UNL     1     105.809 125.421 144.164  0.00  0.00    +0.000 A 
ENDROOT
BRANCH   8  17
ATOM     15  O   UNL     1     106.374 124.286 149.369  0.00  0.00    +0.000 OA
ATOM     16  O   UNL     1     108.001 124.169 149.612  0.00  0.00    +0.000 OA
ATOM     17  C   UNL     1     107.131 125.253 147.565  0.00  0.00    +0.000 A 
ATOM     18  C   UNL     1     106.608 124.950 148.126  0.00  0.00    +0.000 A 
ATOM     19  C   UNL     1     107.945 125.195 147.686  0.00  0.00    +0.000 A 
ATOM     20  C   UNL     1     106.897 124.589 148.808  0.00  0.00    +0.000 A 
ATOM     21  C   UNL     1     108.235 124.833 148.369  0.00  0.00    +0.000 A 
ATOM     22  C   UNL     1     107.712 124.530 148.929  0.00  0.00    +0.000 A 
ENDBRANCH   8  17
BRANCH  12  23
ATOM     23  O   UNL     1     105.441 126.601 143.446  0.00  0.00    +0.000 OA
ATOM     24  C   UNL     1     105.947 126.759 142.815  0.00  0.00    +0.000 C 
ENDBRANCH  12  23
TORSDOF 2
ENDMDL
MODEL 4
REMARK VINA RESULT:      -8.8      6.618      7.644
REMARK  Name = 44258650
REMARK  2 active torsions:
REMARK  status: ('A' for Active; 'I' for Inactive)
REMARK    1  A    between atoms: O_2  and  C_15
REMARK    2  A    between atoms: C_11  and  C_16
REMARK                            x       y       z     vdW  Elec       q    Type
REMARK                         _______ _______ _______ _____ _____    ______ ____
ROOT
ATOM      1  O   UNL     1     104.657 124.291 147.253  0.00  0.00    +0.000 OA
ATOM      2  O   UNL     1     107.153 125.257 146.151  0.00  0.00    +0.000 OA
ATOM      3  O   UNL     1     105.260 124.579 148.768  0.00  0.00    +0.000 OA
ATOM      4  O   UNL     1     106.776 125.192 148.984  0.00  0.00    +0.000 OA
ATOM      5  O   UNL     1     106.116 124.814 145.251  0.00  0.00    +0.000 OA
ATOM      6  C   UNL     1     105.921 124.780 146.697  0.00  0.00    +0.000 A 
ATOM      7  C   UNL     1     105.448 124.611 147.352  0.00  0.00    +0.000 A 
ATOM      8  C   UNL     1     104.354 124.146 146.461  0.00  0.00    +0.000 A 
ATOM      9  C   UNL     1     106.680 125.087 146.805  0.00  0.00    +0.000 A 
ATOM     10  C   UNL     1     105.733 124.748 148.114  0.00  0.00    +0.000 A 
ATOM     11  C   UNL     1     105.636 124.642 145.899  0.00  0.00    +0.000 A 
ATOM     12  C   UNL     1     106.965 125.224 147.567  0.00  0.00    +0.000 A 
ATOM     13  C   UNL     1     104.847 124.322 145.780  0.00  0.00    +0.000 A 
ATOM     14  C   UNL     1     106.491 125.055 148.222  0.00  0.00    +0.000 A 
ENDROOT
BRANCH   8  17
ATOM     15  O   UNL     1     101.520 124.419 146.701  0.00  0.00    +0.000 OA
ATOM     16  O   UNL     1     101.319 122.920 146.042  0.00  0.00    +0.000 OA
ATOM     17  C   UNL     1     103.595 123.839 146.357  0.00  0.00    +0.000 A 
ATOM     18  C   UNL     1     102.936 124.282 146.581  0.00  0.00    +0.000 A 
ATOM     19  C   UNL     1     103.495 123.089 146.027  0.00  0.00    +0.000 A 
ATOM     20  C   UNL     1     102.178 123.976 146.476  0.00  0.00    +0.000 A 
ATOM     21  C   UNL     1     102.736 122.783 145.922  0.00  0.00    +0.000 A 
ATOM     22  C   UNL     1     102.078 123.225 146.147  0.00  0.00    +0.000 A 
ENDBRANCH   8  17
BRANCH  12  23
ATOM     23  O   UNL     1     107.723 125.531 147.675  0.00  0.00    +0.000 OA
ATOM     24  C   UNL     1     108.340 125.036 147.907  0.00  0.00    +0.000 C 
ENDBRANCH  12  23
TORSDOF 2
ENDMDL
MODEL 5
REMARK VINA RESULT:      -8.6      5.822      7.386
REMARK  Name = 44258650
REMARK  2 active torsions:
REMARK  status: ('A' for Active; 'I' for Inactive)
REMARK    1  A    between atoms: O_2  and  C_15
REMARK    2  A    between atoms: C_11  and  C_16
REMARK                            x       y       z     vdW  Elec       q    Type
REMARK                         _______ _______ _______ _____ _____    ______ ____
ROOT
ATOM      1  O   UNL     1     102.996 130.467 142.279  0.00  0.00    +0.000 OA
ATOM      2  O   UNL     1     103.900 128.237 140.671  0.00  0.00    +0.000 OA
ATOM      3  O   UNL     1     103.929 129.897 143.523  0.00  0.00    +0.000 OA
ATOM      4  O   UNL     1     104.834 128.527 143.356  0.00  0.00    +0.000 OA
ATOM      5  O   UNL     1     102.979 129.187 140.095  0.00  0.00    +0.000 OA
ATOM      6  C   UNL     1     103.455 129.337 141.466  0.00  0.00    +0.000 A 
ATOM      7  C   UNL     1     103.462 129.753 142.180  0.00  0.00    +0.000 A 
ATOM      8  C   UNL     1     102.514 130.753 141.627  0.00  0.00    +0.000 A 
ATOM      9  C   UNL     1     103.907 128.652 141.384  0.00  0.00    +0.000 A 
ATOM     10  C   UNL     1     103.922 129.482 142.810  0.00  0.00    +0.000 A 
ATOM     11  C   UNL     1     102.980 129.608 140.804  0.00  0.00    +0.000 A 
ATOM     12  C   UNL     1     104.367 128.382 142.013  0.00  0.00    +0.000 A 
ATOM     13  C   UNL     1     102.507 130.321 140.884  0.00  0.00    +0.000 A 
ATOM     14  C   UNL     1     104.374 128.798 142.727  0.00  0.00    +0.000 A 
ENDROOT
BRANCH   8  17
ATOM     15  O   UNL     1     102.270 133.594 141.443  0.00  0.00    +0.000 OA
ATOM     16  O   UNL     1     100.710 133.495 141.970  0.00  0.00    +0.000 OA
ATOM     17  C   UNL     1     102.063 131.439 141.713  0.00  0.00    +0.000 A 
ATOM     18  C   UNL     1     102.392 132.174 141.535  0.00  0.00    +0.000 A 
ATOM     19  C   UNL     1     101.283 131.388 141.977  0.00  0.00    +0.000 A 
ATOM     20  C   UNL     1     101.941 132.859 141.621  0.00  0.00    +0.000 A 
ATOM     21  C   UNL     1     100.832 132.074 142.062  0.00  0.00    +0.000 A 
ATOM     22  C   UNL     1     101.160 132.809 141.885  0.00  0.00    +0.000 A 
ENDBRANCH   8  17
BRANCH  12  23
ATOM     23  O   UNL     1     104.819 127.697 141.930  0.00  0.00    +0.000 OA
ATOM     24  C   UNL     1     105.635 127.752 141.823  0.00  0.00    +0.000 C 
ENDBRANCH  12  23
TORSDOF 2
ENDMDL
MODEL 6
REMARK VINA RESULT:      -8.6      6.628      8.069
REMARK  Name = 44258650
REMARK  2 active torsions:
REMARK  status: ('A' for Active; 'I' for Inactive)
REMARK    1  A    between atoms: O_2  and  C_15
REMARK    2  A    between atoms: C_11  and  C_16
REMARK                            x       y       z     vdW  Elec       q    Type
REMARK                         _______ _______ _______ _____ _____    ______ ____
ROOT
ATOM      1  O   UNL     1     110.033 126.704 136.192  0.00  0.00    +0.000 OA
ATOM      2  O   UNL     1     110.604 129.227 134.893  0.00  0.00    +0.000 OA
ATOM      3  O   UNL     1     108.458 127.190 136.355  0.00  0.00    +0.000 OA
ATOM      4  O   UNL     1     107.954 128.661 135.803  0.00  0.00    +0.000 OA
ATOM      5  O   UNL     1     111.672 128.273 135.068  0.00  0.00    +0.000 OA
ATOM      6  C   UNL     1     110.320 127.982 135.534  0.00  0.00    +0.000 A 
ATOM      7  C   UNL     1     109.783 127.473 135.900  0.00  0.00    +0.000 A 
ATOM      8  C   UNL     1     110.853 126.462 136.101  0.00  0.00    +0.000 A 
ATOM      9  C   UNL     1     110.067 128.718 135.258  0.00  0.00    +0.000 A 
ATOM     10  C   UNL     1     108.994 127.700 135.990  0.00  0.00    +0.000 A 
ATOM     11  C   UNL     1     111.142 127.758 135.435  0.00  0.00    +0.000 A 
ATOM     12  C   UNL     1     109.280 128.944 135.348  0.00  0.00    +0.000 A 
ATOM     13  C   UNL     1     111.412 126.993 135.720  0.00  0.00    +0.000 A 
ATOM     14  C   UNL     1     108.743 128.434 135.714  0.00  0.00    +0.000 A 
ENDROOT
BRANCH   8  17
ATOM     15  O   UNL     1     111.598 124.758 138.270  0.00  0.00    +0.000 OA
ATOM     16  O   UNL     1     111.850 123.519 137.210  0.00  0.00    +0.000 OA
ATOM     17  C   UNL     1     111.102 125.726 136.378  0.00  0.00    +0.000 A 
ATOM     18  C   UNL     1     111.226 125.610 137.186  0.00  0.00    +0.000 A 
ATOM     19  C   UNL     1     111.228 125.107 135.848  0.00  0.00    +0.000 A 
ATOM     20  C   UNL     1     111.475 124.875 137.463  0.00  0.00    +0.000 A 
ATOM     21  C   UNL     1     111.477 124.371 136.126  0.00  0.00    +0.000 A 
ATOM     22  C   UNL     1     111.600 124.254 136.932  0.00  0.00    +0.000 A 
ENDBRANCH   8  17
BRANCH  12  23
ATOM     23  O   UNL     1     109.027 129.680 135.072  0.00  0.00    +0.000 OA
ATOM     24  C   UNL     1     108.974 130.319 135.590  0.00  0.00    +0.000 C 
ENDBRANCH  12  23
TORSDOF 2
ENDMDL
MODEL 7
REMARK VINA RESULT:      -8.5      6.902      8.619
REMARK  Name = 44258650
REMARK  2 active torsions:
REMARK  status: ('A' for Active; 'I' for Inactive)
REMARK    1  A    between atoms: O_2  and  C_15
REMARK    2  A    between atoms: C_11  and  C_16
REMARK                            x       y       z     vdW  Elec       q    Type
REMARK                         _______ _______ _______ _____ _____    ______ ____
ROOT
ATOM      1  O   UNL     1     104.138 124.811 147.098  0.00  0.00    +0.000 OA
ATOM      2  O   UNL     1     102.409 122.871 145.824  0.00  0.00    +0.000 OA
ATOM      3  O   UNL     1     102.799 125.480 147.807  0.00  0.00    +0.000 OA
ATOM      4  O   UNL     1     101.291 124.866 147.538  0.00  0.00    +0.000 OA
ATOM      5  O   UNL     1     103.830 122.809 145.578  0.00  0.00    +0.000 OA
ATOM      6  C   UNL     1     103.261 123.829 146.454  0.00  0.00    +0.000 A 
ATOM      7  C   UNL     1     103.358 124.482 146.950  0.00  0.00    +0.000 A 
ATOM      8  C   UNL     1     104.826 124.455 146.725  0.00  0.00    +0.000 A 
ATOM      9  C   UNL     1     102.506 123.523 146.320  0.00  0.00    +0.000 A 
ATOM     10  C   UNL     1     102.702 124.827 147.311  0.00  0.00    +0.000 A 
ATOM     11  C   UNL     1     103.936 123.461 146.073  0.00  0.00    +0.000 A 
ATOM     12  C   UNL     1     101.850 123.868 146.680  0.00  0.00    +0.000 A 
ATOM     13  C   UNL     1     104.724 123.775 146.208  0.00  0.00    +0.000 A 
ATOM     14  C   UNL     1     101.948 124.521 147.177  0.00  0.00    +0.000 A 
ENDROOT
BRANCH   8  17
ATOM     15  O   UNL     1     107.089 125.948 145.821  0.00  0.00    +0.000 OA
ATOM     16  O   UNL     1     107.837 125.690 147.269  0.00  0.00    +0.000 OA
ATOM     17  C   UNL     1     105.579 124.764 146.861  0.00  0.00    +0.000 A 
ATOM     18  C   UNL     1     105.958 125.202 146.273  0.00  0.00    +0.000 A 
ATOM     19  C   UNL     1     105.953 124.635 147.585  0.00  0.00    +0.000 A 
ATOM     20  C   UNL     1     106.710 125.510 146.409  0.00  0.00    +0.000 A 
ATOM     21  C   UNL     1     106.706 124.944 147.721  0.00  0.00    +0.000 A 
ATOM     22  C   UNL     1     107.085 125.381 147.134  0.00  0.00    +0.000 A 
ENDBRANCH   8  17
BRANCH  12  23
ATOM     23  O   UNL     1     101.096 123.562 146.546  0.00  0.00    +0.000 OA
ATOM     24  C   UNL     1     100.764 123.031 147.083  0.00  0.00    +0.000 C 
ENDBRANCH  12  23
TORSDOF 2
ENDMDL
MODEL 8
REMARK VINA RESULT:      -8.5      6.547      7.931
REMARK  Name = 44258650
REMARK  2 active torsions:
REMARK  status: ('A' for Active; 'I' for Inactive)
REMARK    1  A    between atoms: O_2  and  C_15
REMARK    2  A    between atoms: C_11  and  C_16
REMARK                            x       y       z     vdW  Elec       q    Type
REMARK                         _______ _______ _______ _____ _____    ______ ____
ROOT
ATOM      1  O   UNL     1     110.596 127.230 135.940  0.00  0.00    +0.000 OA
ATOM      2  O   UNL     1     108.039 128.573 135.751  0.00  0.00    +0.000 OA
ATOM      3  O   UNL     1     111.321 128.623 135.415  0.00  0.00    +0.000 OA
ATOM      4  O   UNL     1     110.435 129.969 135.063  0.00  0.00    +0.000 OA
ATOM      5  O   UNL     1     108.077 127.200 136.195  0.00  0.00    +0.000 OA
ATOM      6  C   UNL     1     109.302 127.912 135.844  0.00  0.00    +0.000 A 
ATOM      7  C   UNL     1     110.123 127.924 135.760  0.00  0.00    +0.000 A 
ATOM      8  C   UNL     1     110.208 126.512 136.212  0.00  0.00    +0.000 A 
ATOM      9  C   UNL     1     108.859 128.586 135.667  0.00  0.00    +0.000 A 
ATOM     10  C   UNL     1     110.501 128.610 135.499  0.00  0.00    +0.000 A 
ATOM     11  C   UNL     1     108.898 127.204 136.114  0.00  0.00    +0.000 A 
ATOM     12  C   UNL     1     109.237 129.271 135.407  0.00  0.00    +0.000 A 
ATOM     13  C   UNL     1     109.353 126.499 136.299  0.00  0.00    +0.000 A 
ATOM     14  C   UNL     1     110.058 129.283 135.323  0.00  0.00    +0.000 A 
ENDROOT
BRANCH   8  17
ATOM     15  O   UNL     1     111.493 124.827 138.128  0.00  0.00    +0.000 OA
ATOM     16  O   UNL     1     111.989 123.825 136.915  0.00  0.00    +0.000 OA
ATOM     17  C   UNL     1     110.653 125.840 136.387  0.00  0.00    +0.000 A 
ATOM     18  C   UNL     1     110.851 125.669 137.170  0.00  0.00    +0.000 A 
ATOM     19  C   UNL     1     110.901 125.339 135.780  0.00  0.00    +0.000 A 
ATOM     20  C   UNL     1     111.296 124.998 137.346  0.00  0.00    +0.000 A 
ATOM     21  C   UNL     1     111.347 124.667 135.957  0.00  0.00    +0.000 A 
ATOM     22  C   UNL     1     111.544 124.496 136.738  0.00  0.00    +0.000 A 
ENDBRANCH   8  17
BRANCH  12  23
ATOM     23  O   UNL     1     108.794 129.945 135.231  0.00  0.00    +0.000 OA
ATOM     24  C   UNL     1     108.685 130.528 135.802  0.00  0.00    +0.000 C 
ENDBRANCH  12  23
TORSDOF 2
ENDMDL
MODEL 9
REMARK VINA RESULT:      -8.5      6.955      8.145
REMARK  Name = 44258650
REMARK  2 active torsions:
REMARK  status: ('A' for Active; 'I' for Inactive)
REMARK    1  A    between atoms: O_2  and  C_15
REMARK    2  A    between atoms: C_11  and  C_16
REMARK                            x       y       z     vdW  Elec       q    Type
REMARK                         _______ _______ _______ _____ _____    ______ ____
ROOT
ATOM      1  O   UNL     1     111.693 126.270 136.272  0.00  0.00    +0.000 OA
ATOM      2  O   UNL     1     113.180 123.806 136.585  0.00  0.00    +0.000 OA
ATOM      3  O   UNL     1     113.123 127.099 136.378  0.00  0.00    +0.000 OA
ATOM      4  O   UNL     1     114.558 126.310 136.582  0.00  0.00    +0.000 OA
ATOM      5  O   UNL     1     111.746 123.744 136.432  0.00  0.00    +0.000 OA
ATOM      6  C   UNL     1     112.448 125.023 136.430  0.00  0.00    +0.000 A 
ATOM      7  C   UNL     1     112.434 125.848 136.378  0.00  0.00    +0.000 A 
ATOM      8  C   UNL     1     110.957 125.829 136.218  0.00  0.00    +0.000 A 
ATOM      9  C   UNL     1     113.166 124.629 136.533  0.00  0.00    +0.000 A 
ATOM     10  C   UNL     1     113.137 126.276 136.429  0.00  0.00    +0.000 A 
ATOM     11  C   UNL     1     111.723 124.567 136.379  0.00  0.00    +0.000 A 
ATOM     12  C   UNL     1     113.868 125.058 136.584  0.00  0.00    +0.000 A 
ATOM     13  C   UNL     1     110.972 124.971 136.272  0.00  0.00    +0.000 A 
ATOM     14  C   UNL     1     113.854 125.882 136.532  0.00  0.00    +0.000 A 
ENDROOT
BRANCH   8  17
ATOM     15  O   UNL     1     108.806 127.369 137.297  0.00  0.00    +0.000 OA
ATOM     16  O   UNL     1     108.094 127.417 135.810  0.00  0.00    +0.000 OA
ATOM     17  C   UNL     1     110.241 126.226 136.116  0.00  0.00    +0.000 A 
ATOM     18  C   UNL     1     109.881 126.599 136.757  0.00  0.00    +0.000 A 
ATOM     19  C   UNL     1     109.886 126.250 135.372  0.00  0.00    +0.000 A 
ATOM     20  C   UNL     1     109.166 126.996 136.655  0.00  0.00    +0.000 A 
ATOM     21  C   UNL     1     109.169 126.647 135.270  0.00  0.00    +0.000 A 
ATOM     22  C   UNL     1     108.810 127.020 135.911  0.00  0.00    +0.000 A 
ENDBRANCH   8  17
BRANCH  12  23
ATOM     23  O   UNL     1     114.586 124.664 136.686  0.00  0.00    +0.000 OA
ATOM     24  C   UNL     1     114.914 124.592 137.439  0.00  0.00    +0.000 C 
ENDBRANCH  12  23
TORSDOF 2
ENDMDL
MODEL 10
REMARK VINA RESULT:      -8.4      6.889      7.567
REMARK  Name = 44258650
REMARK  2 active torsions:
REMARK  status: ('A' for Active; 'I' for Inactive)
REMARK    1  A    between atoms: O_2  and  C_15
REMARK    2  A    between atoms: C_11  and  C_16
REMARK                            x       y       z     vdW  Elec       q    Type
REMARK                         _______ _______ _______ _____ _____    ______ ____
ROOT
ATOM      1  O   UNL     1     110.418 127.059 136.578  0.00  0.00    +0.000 OA
ATOM      2  O   UNL     1     111.130 124.393 135.705  0.00  0.00    +0.000 OA
ATOM      3  O   UNL     1     110.999 126.679 138.081  0.00  0.00    +0.000 OA
ATOM      4  O   UNL     1     111.634 125.190 138.403  0.00  0.00    +0.000 OA
ATOM      5  O   UNL     1     110.523 125.299 134.760  0.00  0.00    +0.000 OA
ATOM      6  C   UNL     1     110.780 125.709 136.138  0.00  0.00    +0.000 A 
ATOM      7  C   UNL     1     110.747 126.281 136.732  0.00  0.00    +0.000 A 
ATOM      8  C   UNL     1     110.120 127.245 135.793  0.00  0.00    +0.000 A 
ATOM      9  C   UNL     1     111.098 124.964 136.299  0.00  0.00    +0.000 A 
ATOM     10  C   UNL     1     111.032 126.107 137.487  0.00  0.00    +0.000 A 
ATOM     11  C   UNL     1     110.486 125.877 135.349  0.00  0.00    +0.000 A 
ATOM     12  C   UNL     1     111.382 124.792 137.053  0.00  0.00    +0.000 A 
ATOM     13  C   UNL     1     110.154 126.650 135.174  0.00  0.00    +0.000 A 
ATOM     14  C   UNL     1     111.349 125.364 137.648  0.00  0.00    +0.000 A 
ENDROOT
BRANCH   8  17
ATOM     15  O   UNL     1     107.925 129.072 135.896  0.00  0.00    +0.000 OA
ATOM     16  O   UNL     1     108.850 130.225 135.162  0.00  0.00    +0.000 OA
ATOM     17  C   UNL     1     109.802 127.990 135.635  0.00  0.00    +0.000 A 
ATOM     18  C   UNL     1     109.022 128.159 135.844  0.00  0.00    +0.000 A 
ATOM     19  C   UNL     1     110.265 128.567 135.269  0.00  0.00    +0.000 A 
ATOM     20  C   UNL     1     108.705 128.903 135.687  0.00  0.00    +0.000 A 
ATOM     21  C   UNL     1     109.947 129.312 135.111  0.00  0.00    +0.000 A 
ATOM     22  C   UNL     1     109.168 129.480 135.320  0.00  0.00    +0.000 A 
ENDBRANCH   8  17
BRANCH  12  23
ATOM     23  O   UNL     1     111.700 124.047 137.214  0.00  0.00    +0.000 OA
ATOM     24  C   UNL     1     112.500 123.901 137.076  0.00  0.00    +0.000 C 
ENDBRANCH  12  23
TORSDOF 2
ENDMDL
