MODEL 1
REMARK VINA RESULT:     -11.6      0.000      0.000
REMARK  Name = 44258748
REMARK  8 active torsions:
REMARK  status: ('A' for Active; 'I' for Inactive)
REMARK    1  A    between atoms: O_1  and  C_20
REMARK    2  A    between atoms: O_1  and  C_25
REMARK    3  A    between atoms: O_3  and  C_23
REMARK    4  A    between atoms: O_3  and  C_33
REMARK    5  A    between atoms: O_13  and  C_35
REMARK    6  A    between atoms: O_13  and  C_38
REMARK    7  A    between atoms: C_28  and  C_33
REMARK    8  A    between atoms: C_39  and  C_42
REMARK                            x       y       z     vdW  Elec       q    Type
REMARK                         _______ _______ _______ _____ _____    ______ ____
ROOT
ATOM      1  O   UNL     1     111.364 128.096 137.146  0.00  0.00    +0.000 OA
ATOM      2  O   UNL     1     109.294 128.557 137.664  0.00  0.00    +0.000 OA
ATOM      3  O   UNL     1     109.224 128.616 136.016  0.00  0.00    +0.000 OA
ATOM      4  O   UNL     1     110.580 128.329 135.122  0.00  0.00    +0.000 OA
ATOM      5  C   UNL     1     110.686 128.239 137.593  0.00  0.00    +0.000 C 
ATOM      6  C   UNL     1     109.972 128.413 137.217  0.00  0.00    +0.000 C 
ATOM      7  C   UNL     1     109.938 128.443 136.393  0.00  0.00    +0.000 C 
ATOM      8  C   UNL     1     110.616 128.299 135.946  0.00  0.00    +0.000 C 
ATOM      9  C   UNL     1     111.329 128.126 136.322  0.00  0.00    +0.000 C 
ENDROOT
BRANCH   9  10
ATOM     10  O   UNL     1     112.007 127.982 135.875  0.00  0.00    +0.000 OA
BRANCH  10  15
ATOM     11  O   UNL     1     113.906 127.134 136.536  0.00  0.00    +0.000 OA
ATOM     12  O   UNL     1     111.573 126.412 136.136  0.00  0.00    +0.000 OA
ATOM     13  O   UNL     1     111.894 125.061 136.531  0.00  0.00    +0.000 OA
ATOM     14  O   UNL     1     114.627 124.430 137.345  0.00  0.00    +0.000 OA
ATOM     15  C   UNL     1     112.568 127.438 136.139  0.00  0.00    +0.000 A 
ATOM     16  C   UNL     1     113.346 127.678 136.272  0.00  0.00    +0.000 A 
ATOM     17  C   UNL     1     112.351 126.653 136.270  0.00  0.00    +0.000 A 
ATOM     18  C   UNL     1     112.912 126.108 136.534  0.00  0.00    +0.000 A 
ATOM     19  C   UNL     1     113.690 126.349 136.668  0.00  0.00    +0.000 A 
ATOM     20  C   UNL     1     112.674 125.294 136.667  0.00  0.00    +0.000 A 
ATOM     21  C   UNL     1     114.283 125.792 136.943  0.00  0.00    +0.000 A 
ATOM     22  C   UNL     1     113.254 124.721 136.942  0.00  0.00    +0.000 A 
ATOM     23  C   UNL     1     114.064 124.972 137.081  0.00  0.00    +0.000 A 
BRANCH  16  25
ATOM     24  O   UNL     1     114.211 130.819 135.746  0.00  0.00    +0.000 OA
ATOM     25  C   UNL     1     113.562 128.464 136.141  0.00  0.00    +0.000 A 
ATOM     26  C   UNL     1     113.684 128.971 136.780  0.00  0.00    +0.000 A 
ATOM     27  C   UNL     1     113.656 128.742 135.370  0.00  0.00    +0.000 A 
ATOM     28  C   UNL     1     113.901 129.756 136.649  0.00  0.00    +0.000 A 
ATOM     29  C   UNL     1     113.872 129.527 135.238  0.00  0.00    +0.000 A 
ATOM     30  C   UNL     1     113.994 130.034 135.878  0.00  0.00    +0.000 A 
ENDBRANCH  16  25
ENDBRANCH  10  15
ENDBRANCH   9  10
BRANCH   5  31
ATOM     31  C   UNL     1     110.721 128.210 138.417  0.00  0.00    +0.000 C 
BRANCH  31  32
ATOM     32  O   UNL     1     111.183 128.754 138.831  0.00  0.00    +0.000 OA
BRANCH  32  39
ATOM     33  O   UNL     1     111.826 127.748 139.616  0.00  0.00    +0.000 OA
ATOM     34  O   UNL     1     111.430 129.853 140.036  0.00  0.00    +0.000 OA
ATOM     35  O   UNL     1     112.716 127.841 141.606  0.00  0.00    +0.000 OA
ATOM     36  C   UNL     1     112.073 128.847 140.821  0.00  0.00    +0.000 C 
ATOM     37  C   UNL     1     111.690 129.074 140.127  0.00  0.00    +0.000 C 
ATOM     38  C   UNL     1     112.333 128.068 140.912  0.00  0.00    +0.000 C 
ATOM     39  C   UNL     1     111.566 128.525 139.525  0.00  0.00    +0.000 C 
ATOM     40  C   UNL     1     112.209 127.519 140.310  0.00  0.00    +0.000 C 
ATOM     41  C   UNL     1     112.469 126.742 140.401  0.00  0.00    +0.000 C 
BRANCH  36  42
ATOM     42  O   UNL     1     112.197 129.396 141.424  0.00  0.00    +0.000 OA
BRANCH  42  47
ATOM     43  O   UNL     1     113.473 129.740 140.881  0.00  0.00    +0.000 OA
ATOM     44  O   UNL     1     112.246 130.736 142.386  0.00  0.00    +0.000 OA
ATOM     45  O   UNL     1     113.546 131.750 142.324  0.00  0.00    +0.000 OA
ATOM     46  O   UNL     1     114.798 131.424 141.300  0.00  0.00    +0.000 OA
ATOM     47  C   UNL     1     112.848 129.903 141.392  0.00  0.00    +0.000 C 
ATOM     48  C   UNL     1     112.872 130.573 141.874  0.00  0.00    +0.000 C 
ATOM     49  C   UNL     1     113.522 131.080 141.843  0.00  0.00    +0.000 C 
ATOM     50  C   UNL     1     114.147 130.917 141.331  0.00  0.00    +0.000 C 
ATOM     51  C   UNL     1     114.123 130.247 140.849  0.00  0.00    +0.000 C 
ATOM     52  C   UNL     1     114.749 130.084 140.337  0.00  0.00    +0.000 C 
ENDBRANCH  42  47
ENDBRANCH  36  42
ENDBRANCH  32  39
ENDBRANCH  31  32
ENDBRANCH   5  31
TORSDOF 8
ENDMDL
MODEL 2
REMARK VINA RESULT:     -11.6      1.833      5.350
REMARK  Name = 44258748
REMARK  8 active torsions:
REMARK  status: ('A' for Active; 'I' for Inactive)
REMARK    1  A    between atoms: O_1  and  C_20
REMARK    2  A    between atoms: O_1  and  C_25
REMARK    3  A    between atoms: O_3  and  C_23
REMARK    4  A    between atoms: O_3  and  C_33
REMARK    5  A    between atoms: O_13  and  C_35
REMARK    6  A    between atoms: O_13  and  C_38
REMARK    7  A    between atoms: C_28  and  C_33
REMARK    8  A    between atoms: C_39  and  C_42
REMARK                            x       y       z     vdW  Elec       q    Type
REMARK                         _______ _______ _______ _____ _____    ______ ____
ROOT
ATOM      1  O   UNL     1     113.125 129.338 139.049  0.00  0.00    +0.000 OA
ATOM      2  O   UNL     1     114.011 128.782 140.966  0.00  0.00    +0.000 OA
ATOM      3  O   UNL     1     114.845 130.164 140.626  0.00  0.00    +0.000 OA
ATOM      4  O   UNL     1     114.534 130.996 139.236  0.00  0.00    +0.000 OA
ATOM      5  C   UNL     1     113.281 128.922 139.744  0.00  0.00    +0.000 C 
ATOM      6  C   UNL     1     113.855 129.198 140.270  0.00  0.00    +0.000 C 
ATOM      7  C   UNL     1     114.272 129.889 140.100  0.00  0.00    +0.000 C 
ATOM      8  C   UNL     1     114.116 130.305 139.405  0.00  0.00    +0.000 C 
ATOM      9  C   UNL     1     113.543 130.030 138.880  0.00  0.00    +0.000 C 
ENDROOT
BRANCH   9  10
ATOM     10  O   UNL     1     113.387 130.445 138.185  0.00  0.00    +0.000 OA
BRANCH  10  15
ATOM     11  O   UNL     1     111.685 130.255 136.831  0.00  0.00    +0.000 OA
ATOM     12  O   UNL     1     112.173 131.049 139.124  0.00  0.00    +0.000 OA
ATOM     13  O   UNL     1     110.788 131.401 139.327  0.00  0.00    +0.000 OA
ATOM     14  O   UNL     1     108.874 130.941 137.169  0.00  0.00    +0.000 OA
ATOM     15  C   UNL     1     112.617 130.483 137.890  0.00  0.00    +0.000 A 
ATOM     16  C   UNL     1     112.455 130.218 137.125  0.00  0.00    +0.000 A 
ATOM     17  C   UNL     1     112.010 130.785 138.360  0.00  0.00    +0.000 A 
ATOM     18  C   UNL     1     111.240 130.822 138.065  0.00  0.00    +0.000 A 
ATOM     19  C   UNL     1     111.078 130.557 137.300  0.00  0.00    +0.000 A 
ATOM     20  C   UNL     1     110.616 131.139 138.563  0.00  0.00    +0.000 A 
ATOM     21  C   UNL     1     110.281 130.591 136.982  0.00  0.00    +0.000 A 
ATOM     22  C   UNL     1     109.812 131.180 138.262  0.00  0.00    +0.000 A 
ATOM     23  C   UNL     1     109.643 130.905 137.466  0.00  0.00    +0.000 A 
BRANCH  16  25
ATOM     24  O   UNL     1     114.885 129.008 135.249  0.00  0.00    +0.000 OA
ATOM     25  C   UNL     1     113.062 129.916 136.656  0.00  0.00    +0.000 A 
ATOM     26  C   UNL     1     113.638 130.421 136.350  0.00  0.00    +0.000 A 
ATOM     27  C   UNL     1     113.094 129.108 136.493  0.00  0.00    +0.000 A 
ATOM     28  C   UNL     1     114.246 130.119 135.881  0.00  0.00    +0.000 A 
ATOM     29  C   UNL     1     113.701 128.805 136.024  0.00  0.00    +0.000 A 
ATOM     30  C   UNL     1     114.277 129.311 135.718  0.00  0.00    +0.000 A 
ENDBRANCH  16  25
ENDBRANCH  10  15
ENDBRANCH   9  10
BRANCH   5  31
ATOM     31  C   UNL     1     112.864 128.231 139.915  0.00  0.00    +0.000 C 
BRANCH  31  32
ATOM     32  O   UNL     1     112.853 127.611 139.371  0.00  0.00    +0.000 OA
BRANCH  32  39
ATOM     33  O   UNL     1     111.560 127.218 139.835  0.00  0.00    +0.000 OA
ATOM     34  O   UNL     1     112.929 126.255 138.434  0.00  0.00    +0.000 OA
ATOM     35  O   UNL     1     110.343 125.469 139.363  0.00  0.00    +0.000 OA
ATOM     36  C   UNL     1     111.636 125.862 138.898  0.00  0.00    +0.000 C 
ATOM     37  C   UNL     1     112.263 126.398 138.901  0.00  0.00    +0.000 C 
ATOM     38  C   UNL     1     110.970 126.005 139.365  0.00  0.00    +0.000 C 
ATOM     39  C   UNL     1     112.225 127.076 139.369  0.00  0.00    +0.000 C 
ATOM     40  C   UNL     1     110.932 126.683 139.833  0.00  0.00    +0.000 C 
ATOM     41  C   UNL     1     110.267 126.825 140.299  0.00  0.00    +0.000 C 
BRANCH  36  42
ATOM     42  O   UNL     1     111.674 125.184 138.430  0.00  0.00    +0.000 OA
BRANCH  42  47
ATOM     43  O   UNL     1     111.044 125.880 137.353  0.00  0.00    +0.000 OA
ATOM     44  O   UNL     1     111.980 123.909 137.427  0.00  0.00    +0.000 OA
ATOM     45  O   UNL     1     111.503 123.969 135.849  0.00  0.00    +0.000 OA
ATOM     46  O   UNL     1     110.720 125.303 135.273  0.00  0.00    +0.000 OA
ATOM     47  C   UNL     1     111.435 125.214 137.641  0.00  0.00    +0.000 C 
ATOM     48  C   UNL     1     111.588 124.577 137.139  0.00  0.00    +0.000 C 
ATOM     49  C   UNL     1     111.350 124.606 136.350  0.00  0.00    +0.000 C 
ATOM     50  C   UNL     1     110.959 125.273 136.063  0.00  0.00    +0.000 C 
ATOM     51  C   UNL     1     110.806 125.910 136.564  0.00  0.00    +0.000 C 
ATOM     52  C   UNL     1     110.415 126.577 136.276  0.00  0.00    +0.000 C 
ENDBRANCH  42  47
ENDBRANCH  36  42
ENDBRANCH  32  39
ENDBRANCH  31  32
ENDBRANCH   5  31
TORSDOF 8
ENDMDL
MODEL 3
REMARK VINA RESULT:     -11.6      2.089      3.943
REMARK  Name = 44258748
REMARK  8 active torsions:
REMARK  status: ('A' for Active; 'I' for Inactive)
REMARK    1  A    between atoms: O_1  and  C_20
REMARK    2  A    between atoms: O_1  and  C_25
REMARK    3  A    between atoms: O_3  and  C_23
REMARK    4  A    between atoms: O_3  and  C_33
REMARK    5  A    between atoms: O_13  and  C_35
REMARK    6  A    between atoms: O_13  and  C_38
REMARK    7  A    between atoms: C_28  and  C_33
REMARK    8  A    between atoms: C_39  and  C_42
REMARK                            x       y       z     vdW  Elec       q    Type
REMARK                         _______ _______ _______ _____ _____    ______ ____
ROOT
ATOM      1  O   UNL     1     111.659 126.588 136.231  0.00  0.00    +0.000 OA
ATOM      2  O   UNL     1     110.284 127.091 134.612  0.00  0.00    +0.000 OA
ATOM      3  O   UNL     1     110.077 125.456 134.700  0.00  0.00    +0.000 OA
ATOM      4  O   UNL     1     110.925 124.576 135.808  0.00  0.00    +0.000 OA
ATOM      5  C   UNL     1     111.235 127.028 135.677  0.00  0.00    +0.000 C 
ATOM      6  C   UNL     1     110.708 126.651 135.166  0.00  0.00    +0.000 C 
ATOM      7  C   UNL     1     110.605 125.834 135.211  0.00  0.00    +0.000 C 
ATOM      8  C   UNL     1     111.029 125.394 135.765  0.00  0.00    +0.000 C 
ATOM      9  C   UNL     1     111.556 125.771 136.275  0.00  0.00    +0.000 C 
ENDROOT
BRANCH   9  10
ATOM     10  O   UNL     1     111.980 125.331 136.829  0.00  0.00    +0.000 OA
BRANCH  10  15
ATOM     11  O   UNL     1     113.036 126.071 138.590  0.00  0.00    +0.000 OA
ATOM     12  O   UNL     1     110.713 125.704 137.818  0.00  0.00    +0.000 OA
ATOM     13  O   UNL     1     110.189 126.201 139.068  0.00  0.00    +0.000 OA
ATOM     14  O   UNL     1     112.050 127.085 141.137  0.00  0.00    +0.000 OA
ATOM     15  C   UNL     1     112.121 125.640 137.581  0.00  0.00    +0.000 A 
ATOM     16  C   UNL     1     112.895 125.763 137.839  0.00  0.00    +0.000 A 
ATOM     17  C   UNL     1     111.487 125.827 138.075  0.00  0.00    +0.000 A 
ATOM     18  C   UNL     1     111.628 126.136 138.828  0.00  0.00    +0.000 A 
ATOM     19  C   UNL     1     112.402 126.258 139.085  0.00  0.00    +0.000 A 
ATOM     20  C   UNL     1     110.960 126.326 139.333  0.00  0.00    +0.000 A 
ATOM     21  C   UNL     1     112.562 126.579 139.865  0.00  0.00    +0.000 A 
ATOM     22  C   UNL     1     111.100 126.649 140.118  0.00  0.00    +0.000 A 
ATOM     23  C   UNL     1     111.907 126.776 140.386  0.00  0.00    +0.000 A 
BRANCH  16  25
ATOM     24  O   UNL     1     115.427 125.018 135.858  0.00  0.00    +0.000 OA
ATOM     25  C   UNL     1     113.528 125.576 137.343  0.00  0.00    +0.000 A 
ATOM     26  C   UNL     1     113.736 124.788 137.219  0.00  0.00    +0.000 A 
ATOM     27  C   UNL     1     113.953 126.178 136.973  0.00  0.00    +0.000 A 
ATOM     28  C   UNL     1     114.369 124.601 136.724  0.00  0.00    +0.000 A 
ATOM     29  C   UNL     1     114.586 125.992 136.478  0.00  0.00    +0.000 A 
ATOM     30  C   UNL     1     114.794 125.203 136.353  0.00  0.00    +0.000 A 
ENDBRANCH  16  25
ENDBRANCH  10  15
ENDBRANCH   9  10
BRANCH   5  31
ATOM     31  C   UNL     1     111.338 127.846 135.632  0.00  0.00    +0.000 C 
BRANCH  31  32
ATOM     32  O   UNL     1     111.096 128.327 136.257  0.00  0.00    +0.000 OA
BRANCH  32  39
ATOM     33  O   UNL     1     112.289 129.105 136.377  0.00  0.00    +0.000 OA
ATOM     34  O   UNL     1     110.188 129.677 136.530  0.00  0.00    +0.000 OA
ATOM     35  O   UNL     1     112.573 131.233 136.769  0.00  0.00    +0.000 OA
ATOM     36  C   UNL     1     111.381 130.455 136.649  0.00  0.00    +0.000 C 
ATOM     37  C   UNL     1     111.012 129.729 136.521  0.00  0.00    +0.000 C 
ATOM     38  C   UNL     1     112.205 130.507 136.641  0.00  0.00    +0.000 C 
ATOM     39  C   UNL     1     111.466 129.053 136.385  0.00  0.00    +0.000 C 
ATOM     40  C   UNL     1     112.659 129.831 136.504  0.00  0.00    +0.000 C 
ATOM     41  C   UNL     1     113.481 129.883 136.496  0.00  0.00    +0.000 C 
BRANCH  36  42
ATOM     42  O   UNL     1     110.927 131.131 136.785  0.00  0.00    +0.000 OA
BRANCH  42  47
ATOM     43  O   UNL     1     110.836 130.815 138.176  0.00  0.00    +0.000 OA
ATOM     44  O   UNL     1     110.351 132.646 137.092  0.00  0.00    +0.000 OA
ATOM     45  O   UNL     1     109.972 133.088 138.636  0.00  0.00    +0.000 OA
ATOM     46  O   UNL     1     110.169 132.014 139.873  0.00  0.00    +0.000 OA
ATOM     47  C   UNL     1     110.737 131.351 137.558  0.00  0.00    +0.000 C 
ATOM     48  C   UNL     1     110.450 132.109 137.711  0.00  0.00    +0.000 C 
ATOM     49  C   UNL     1     110.260 132.330 138.483  0.00  0.00    +0.000 C 
ATOM     50  C   UNL     1     110.359 131.793 139.101  0.00  0.00    +0.000 C 
ATOM     51  C   UNL     1     110.647 131.035 138.947  0.00  0.00    +0.000 C 
ATOM     52  C   UNL     1     110.745 130.499 139.567  0.00  0.00    +0.000 C 
ENDBRANCH  42  47
ENDBRANCH  36  42
ENDBRANCH  32  39
ENDBRANCH  31  32
ENDBRANCH   5  31
TORSDOF 8
ENDMDL
MODEL 4
REMARK VINA RESULT:     -11.6      1.616      3.660
REMARK  Name = 44258748
REMARK  8 active torsions:
REMARK  status: ('A' for Active; 'I' for Inactive)
REMARK    1  A    between atoms: O_1  and  C_20
REMARK    2  A    between atoms: O_1  and  C_25
REMARK    3  A    between atoms: O_3  and  C_23
REMARK    4  A    between atoms: O_3  and  C_33
REMARK    5  A    between atoms: O_13  and  C_35
REMARK    6  A    between atoms: O_13  and  C_38
REMARK    7  A    between atoms: C_28  and  C_33
REMARK    8  A    between atoms: C_39  and  C_42
REMARK                            x       y       z     vdW  Elec       q    Type
REMARK                         _______ _______ _______ _____ _____    ______ ____
ROOT
ATOM      1  O   UNL     1     111.688 126.464 136.639  0.00  0.00    +0.000 OA
ATOM      2  O   UNL     1     110.079 126.773 135.197  0.00  0.00    +0.000 OA
ATOM      3  O   UNL     1     110.225 125.130 135.153  0.00  0.00    +0.000 OA
ATOM      4  O   UNL     1     111.346 124.376 136.100  0.00  0.00    +0.000 OA
ATOM      5  C   UNL     1     111.128 126.841 136.166  0.00  0.00    +0.000 C 
ATOM      6  C   UNL     1     110.640 126.396 135.670  0.00  0.00    +0.000 C 
ATOM      7  C   UNL     1     110.713 125.575 135.649  0.00  0.00    +0.000 C 
ATOM      8  C   UNL     1     111.274 125.198 136.122  0.00  0.00    +0.000 C 
ATOM      9  C   UNL     1     111.761 125.642 136.617  0.00  0.00    +0.000 C 
ENDROOT
BRANCH   9  10
ATOM     10  O   UNL     1     112.322 125.265 137.090  0.00  0.00    +0.000 OA
BRANCH  10  15
ATOM     11  O   UNL     1     113.621 126.142 138.609  0.00  0.00    +0.000 OA
ATOM     12  O   UNL     1     111.225 125.624 138.270  0.00  0.00    +0.000 OA
ATOM     13  O   UNL     1     110.897 126.155 139.571  0.00  0.00    +0.000 OA
ATOM     14  O   UNL     1     113.033 127.231 141.247  0.00  0.00    +0.000 OA
ATOM     15  C   UNL     1     112.572 125.618 137.794  0.00  0.00    +0.000 A 
ATOM     16  C   UNL     1     113.371 125.790 137.907  0.00  0.00    +0.000 A 
ATOM     17  C   UNL     1     112.024 125.797 138.383  0.00  0.00    +0.000 A 
ATOM     18  C   UNL     1     112.274 126.150 139.086  0.00  0.00    +0.000 A 
ATOM     19  C   UNL     1     113.073 126.322 139.199  0.00  0.00    +0.000 A 
ATOM     20  C   UNL     1     111.694 126.332 139.692  0.00  0.00    +0.000 A 
ATOM     21  C   UNL     1     113.346 126.689 139.926  0.00  0.00    +0.000 A 
ATOM     22  C   UNL     1     111.948 126.699 140.427  0.00  0.00    +0.000 A 
ATOM     23  C   UNL     1     112.780 126.878 140.545  0.00  0.00    +0.000 A 
BRANCH  16  25
ATOM     24  O   UNL     1     115.562 125.069 135.547  0.00  0.00    +0.000 OA
ATOM     25  C   UNL     1     113.919 125.611 137.317  0.00  0.00    +0.000 A 
ATOM     26  C   UNL     1     114.210 126.207 136.828  0.00  0.00    +0.000 A 
ATOM     27  C   UNL     1     114.176 124.833 137.216  0.00  0.00    +0.000 A 
ATOM     28  C   UNL     1     114.758 126.027 136.238  0.00  0.00    +0.000 A 
ATOM     29  C   UNL     1     114.723 124.652 136.626  0.00  0.00    +0.000 A 
ATOM     30  C   UNL     1     115.015 125.250 136.137  0.00  0.00    +0.000 A 
ENDBRANCH  16  25
ENDBRANCH  10  15
ENDBRANCH   9  10
BRANCH   5  31
ATOM     31  C   UNL     1     111.054 127.662 136.187  0.00  0.00    +0.000 C 
BRANCH  31  32
ATOM     32  O   UNL     1     111.724 128.139 136.118  0.00  0.00    +0.000 OA
BRANCH  32  39
ATOM     33  O   UNL     1     110.983 129.360 136.084  0.00  0.00    +0.000 OA
ATOM     34  O   UNL     1     112.999 128.931 136.802  0.00  0.00    +0.000 OA
ATOM     35  O   UNL     1     111.518 131.374 136.734  0.00  0.00    +0.000 OA
ATOM     36  C   UNL     1     112.259 130.153 136.768  0.00  0.00    +0.000 C 
ATOM     37  C   UNL     1     112.310 129.344 136.614  0.00  0.00    +0.000 C 
ATOM     38  C   UNL     1     111.569 130.566 136.580  0.00  0.00    +0.000 C 
ATOM     39  C   UNL     1     111.672 128.948 136.272  0.00  0.00    +0.000 C 
ATOM     40  C   UNL     1     110.931 130.169 136.237  0.00  0.00    +0.000 C 
ATOM     41  C   UNL     1     110.242 130.582 136.049  0.00  0.00    +0.000 C 
BRANCH  36  42
ATOM     42  O   UNL     1     112.896 130.549 137.110  0.00  0.00    +0.000 OA
BRANCH  42  47
ATOM     43  O   UNL     1     112.367 130.394 138.429  0.00  0.00    +0.000 OA
ATOM     44  O   UNL     1     114.409 130.742 137.740  0.00  0.00    +0.000 OA
ATOM     45  O   UNL     1     114.637 130.683 139.373  0.00  0.00    +0.000 OA
ATOM     46  O   UNL     1     113.351 130.431 140.377  0.00  0.00    +0.000 OA
ATOM     47  C   UNL     1     113.009 130.520 137.927  0.00  0.00    +0.000 C 
ATOM     48  C   UNL     1     113.766 130.616 138.242  0.00  0.00    +0.000 C 
ATOM     49  C   UNL     1     113.880 130.587 139.058  0.00  0.00    +0.000 C 
ATOM     50  C   UNL     1     113.237 130.461 139.559  0.00  0.00    +0.000 C 
ATOM     51  C   UNL     1     112.481 130.364 139.245  0.00  0.00    +0.000 C 
ATOM     52  C   UNL     1     111.838 130.238 139.747  0.00  0.00    +0.000 C 
ENDBRANCH  42  47
ENDBRANCH  36  42
ENDBRANCH  32  39
ENDBRANCH  31  32
ENDBRANCH   5  31
TORSDOF 8
ENDMDL
MODEL 5
REMARK VINA RESULT:     -11.6      1.520      3.158
REMARK  Name = 44258748
REMARK  8 active torsions:
REMARK  status: ('A' for Active; 'I' for Inactive)
REMARK    1  A    between atoms: O_1  and  C_20
REMARK    2  A    between atoms: O_1  and  C_25
REMARK    3  A    between atoms: O_3  and  C_23
REMARK    4  A    between atoms: O_3  and  C_33
REMARK    5  A    between atoms: O_13  and  C_35
REMARK    6  A    between atoms: O_13  and  C_38
REMARK    7  A    between atoms: C_28  and  C_33
REMARK    8  A    between atoms: C_39  and  C_42
REMARK                            x       y       z     vdW  Elec       q    Type
REMARK                         _______ _______ _______ _____ _____    ______ ____
ROOT
ATOM      1  O   UNL     1     111.216 126.653 136.954  0.00  0.00    +0.000 OA
ATOM      2  O   UNL     1     111.246 124.531 137.468  0.00  0.00    +0.000 OA
ATOM      3  O   UNL     1     111.136 124.452 135.824  0.00  0.00    +0.000 OA
ATOM      4  O   UNL     1     111.080 125.839 134.933  0.00  0.00    +0.000 OA
ATOM      5  C   UNL     1     111.244 125.959 137.400  0.00  0.00    +0.000 C 
ATOM      6  C   UNL     1     111.218 125.225 137.023  0.00  0.00    +0.000 C 
ATOM      7  C   UNL     1     111.163 125.186 136.201  0.00  0.00    +0.000 C 
ATOM      8  C   UNL     1     111.135 125.880 135.755  0.00  0.00    +0.000 C 
ATOM      9  C   UNL     1     111.161 126.613 136.132  0.00  0.00    +0.000 C 
ENDROOT
BRANCH   9  10
ATOM     10  O   UNL     1     111.133 127.307 135.686  0.00  0.00    +0.000 OA
BRANCH  10  15
ATOM     11  O   UNL     1     111.693 129.328 136.291  0.00  0.00    +0.000 OA
ATOM     12  O   UNL     1     112.774 127.159 135.784  0.00  0.00    +0.000 OA
ATOM     13  O   UNL     1     114.079 127.716 136.048  0.00  0.00    +0.000 OA
ATOM     14  O   UNL     1     114.295 130.518 136.839  0.00  0.00    +0.000 OA
ATOM     15  C   UNL     1     111.594 127.956 135.904  0.00  0.00    +0.000 A 
ATOM     16  C   UNL     1     111.233 128.679 136.073  0.00  0.00    +0.000 A 
ATOM     17  C   UNL     1     112.414 127.882 135.953  0.00  0.00    +0.000 A 
ATOM     18  C   UNL     1     112.874 128.532 136.171  0.00  0.00    +0.000 A 
ATOM     19  C   UNL     1     112.514 129.255 136.340  0.00  0.00    +0.000 A 
ATOM     20  C   UNL     1     113.727 128.442 136.218  0.00  0.00    +0.000 A 
ATOM     21  C   UNL     1     112.982 129.938 136.568  0.00  0.00    +0.000 A 
ATOM     22  C   UNL     1     114.212 129.115 136.445  0.00  0.00    +0.000 A 
ATOM     23  C   UNL     1     113.837 129.868 136.621  0.00  0.00    +0.000 A 
BRANCH  16  25
ATOM     24  O   UNL     1     107.952 128.971 135.879  0.00  0.00    +0.000 OA
ATOM     25  C   UNL     1     110.413 128.752 136.024  0.00  0.00    +0.000 A 
ATOM     26  C   UNL     1     110.044 128.777 135.287  0.00  0.00    +0.000 A 
ATOM     27  C   UNL     1     109.962 128.800 136.713  0.00  0.00    +0.000 A 
ATOM     28  C   UNL     1     109.224 128.850 135.238  0.00  0.00    +0.000 A 
ATOM     29  C   UNL     1     109.141 128.873 136.665  0.00  0.00    +0.000 A 
ATOM     30  C   UNL     1     108.772 128.898 135.927  0.00  0.00    +0.000 A 
ENDBRANCH  16  25
ENDBRANCH  10  15
ENDBRANCH   9  10
BRANCH   5  31
ATOM     31  C   UNL     1     111.299 125.998 138.222  0.00  0.00    +0.000 C 
BRANCH  31  32
ATOM     32  O   UNL     1     112.011 126.215 138.578  0.00  0.00    +0.000 OA
BRANCH  32  39
ATOM     33  O   UNL     1     111.361 126.360 139.843  0.00  0.00    +0.000 OA
ATOM     34  O   UNL     1     113.331 127.011 139.165  0.00  0.00    +0.000 OA
ATOM     35  O   UNL     1     112.032 127.301 141.694  0.00  0.00    +0.000 OA
ATOM     36  C   UNL     1     112.682 127.156 140.430  0.00  0.00    +0.000 C 
ATOM     37  C   UNL     1     112.676 126.884 139.651  0.00  0.00    +0.000 C 
ATOM     38  C   UNL     1     112.026 127.029 140.915  0.00  0.00    +0.000 C 
ATOM     39  C   UNL     1     112.016 126.486 139.358  0.00  0.00    +0.000 C 
ATOM     40  C   UNL     1     111.366 126.631 140.622  0.00  0.00    +0.000 C 
ATOM     41  C   UNL     1     110.711 126.505 141.107  0.00  0.00    +0.000 C 
BRANCH  36  42
ATOM     42  O   UNL     1     113.342 127.554 140.723  0.00  0.00    +0.000 OA
BRANCH  42  47
ATOM     43  O   UNL     1     112.777 128.820 140.376  0.00  0.00    +0.000 OA
ATOM     44  O   UNL     1     114.828 128.257 140.868  0.00  0.00    +0.000 OA
ATOM     45  O   UNL     1     115.005 129.875 140.593  0.00  0.00    +0.000 OA
ATOM     46  O   UNL     1     113.697 130.789 140.173  0.00  0.00    +0.000 OA
ATOM     47  C   UNL     1     113.430 128.363 140.586  0.00  0.00    +0.000 C 
ATOM     48  C   UNL     1     114.173 128.715 140.658  0.00  0.00    +0.000 C 
ATOM     49  C   UNL     1     114.262 129.523 140.521  0.00  0.00    +0.000 C 
ATOM     50  C   UNL     1     113.608 129.980 140.311  0.00  0.00    +0.000 C 
ATOM     51  C   UNL     1     112.865 129.628 140.239  0.00  0.00    +0.000 C 
ATOM     52  C   UNL     1     112.212 130.086 140.029  0.00  0.00    +0.000 C 
ENDBRANCH  42  47
ENDBRANCH  36  42
ENDBRANCH  32  39
ENDBRANCH  31  32
ENDBRANCH   5  31
TORSDOF 8
ENDMDL
MODEL 6
REMARK VINA RESULT:     -11.4      1.513      3.445
REMARK  Name = 44258748
REMARK  8 active torsions:
REMARK  status: ('A' for Active; 'I' for Inactive)
REMARK    1  A    between atoms: O_1  and  C_20
REMARK    2  A    between atoms: O_1  and  C_25
REMARK    3  A    between atoms: O_3  and  C_23
REMARK    4  A    between atoms: O_3  and  C_33
REMARK    5  A    between atoms: O_13  and  C_35
REMARK    6  A    between atoms: O_13  and  C_38
REMARK    7  A    between atoms: C_28  and  C_33
REMARK    8  A    between atoms: C_39  and  C_42
REMARK                            x       y       z     vdW  Elec       q    Type
REMARK                         _______ _______ _______ _____ _____    ______ ____
ROOT
ATOM      1  O   UNL     1     111.540 126.648 136.268  0.00  0.00    +0.000 OA
ATOM      2  O   UNL     1     110.231 127.251 134.628  0.00  0.00    +0.000 OA
ATOM      3  O   UNL     1     110.017 125.615 134.612  0.00  0.00    +0.000 OA
ATOM      4  O   UNL     1     110.817 124.667 135.700  0.00  0.00    +0.000 OA
ATOM      5  C   UNL     1     111.140 127.122 135.725  0.00  0.00    +0.000 C 
ATOM      6  C   UNL     1     110.632 126.777 135.172  0.00  0.00    +0.000 C 
ATOM      7  C   UNL     1     110.525 125.959 135.165  0.00  0.00    +0.000 C 
ATOM      8  C   UNL     1     110.925 125.486 135.708  0.00  0.00    +0.000 C 
ATOM      9  C   UNL     1     111.432 125.830 136.260  0.00  0.00    +0.000 C 
ENDROOT
BRANCH   9  10
ATOM     10  O   UNL     1     111.833 125.356 136.804  0.00  0.00    +0.000 OA
BRANCH  10  15
ATOM     11  O   UNL     1     112.799 125.978 138.660  0.00  0.00    +0.000 OA
ATOM     12  O   UNL     1     110.518 125.669 137.750  0.00  0.00    +0.000 OA
ATOM     13  O   UNL     1     109.932 126.086 139.001  0.00  0.00    +0.000 OA
ATOM     14  O   UNL     1     111.686 126.829 141.214  0.00  0.00    +0.000 OA
ATOM     15  C   UNL     1     111.936 125.615 137.581  0.00  0.00    +0.000 A 
ATOM     16  C   UNL     1     112.696 125.718 137.884  0.00  0.00    +0.000 A 
ATOM     17  C   UNL     1     111.278 125.772 138.053  0.00  0.00    +0.000 A 
ATOM     18  C   UNL     1     111.381 126.032 138.830  0.00  0.00    +0.000 A 
ATOM     19  C   UNL     1     112.141 126.135 139.133  0.00  0.00    +0.000 A 
ATOM     20  C   UNL     1     110.688 126.192 139.312  0.00  0.00    +0.000 A 
ATOM     21  C   UNL     1     112.262 126.404 139.940  0.00  0.00    +0.000 A 
ATOM     22  C   UNL     1     110.789 126.462 140.122  0.00  0.00    +0.000 A 
ATOM     23  C   UNL     1     111.581 126.570 140.438  0.00  0.00    +0.000 A 
BRANCH  16  25
ATOM     24  O   UNL     1     115.324 125.088 135.990  0.00  0.00    +0.000 OA
ATOM     25  C   UNL     1     113.353 125.561 137.410  0.00  0.00    +0.000 A 
ATOM     26  C   UNL     1     113.802 126.183 137.108  0.00  0.00    +0.000 A 
ATOM     27  C   UNL     1     113.561 124.781 137.239  0.00  0.00    +0.000 A 
ATOM     28  C   UNL     1     114.459 126.026 136.634  0.00  0.00    +0.000 A 
ATOM     29  C   UNL     1     114.218 124.623 136.766  0.00  0.00    +0.000 A 
ATOM     30  C   UNL     1     114.667 125.246 136.463  0.00  0.00    +0.000 A 
ENDBRANCH  16  25
ENDBRANCH  10  15
ENDBRANCH   9  10
BRANCH   5  31
ATOM     31  C   UNL     1     111.246 127.939 135.732  0.00  0.00    +0.000 C 
BRANCH  31  32
ATOM     32  O   UNL     1     111.094 128.370 136.420  0.00  0.00    +0.000 OA
BRANCH  32  39
ATOM     33  O   UNL     1     112.088 129.325 136.042  0.00  0.00    +0.000 OA
ATOM     34  O   UNL     1     110.753 129.257 137.768  0.00  0.00    +0.000 OA
ATOM     35  O   UNL     1     112.740 131.168 137.013  0.00  0.00    +0.000 OA
ATOM     36  C   UNL     1     111.747 130.212 137.390  0.00  0.00    +0.000 C 
ATOM     37  C   UNL     1     111.336 129.513 137.242  0.00  0.00    +0.000 C 
ATOM     38  C   UNL     1     112.329 130.468 136.864  0.00  0.00    +0.000 C 
ATOM     39  C   UNL     1     111.506 129.069 136.567  0.00  0.00    +0.000 C 
ATOM     40  C   UNL     1     112.500 130.025 136.190  0.00  0.00    +0.000 C 
ATOM     41  C   UNL     1     113.081 130.280 135.664  0.00  0.00    +0.000 C 
BRANCH  36  42
ATOM     42  O   UNL     1     111.576 130.656 138.065  0.00  0.00    +0.000 OA
BRANCH  42  47
ATOM     43  O   UNL     1     112.653 130.053 138.786  0.00  0.00    +0.000 OA
ATOM     44  O   UNL     1     110.897 131.144 139.487  0.00  0.00    +0.000 OA
ATOM     45  O   UNL     1     111.634 130.785 140.919  0.00  0.00    +0.000 OA
ATOM     46  O   UNL     1     113.050 129.938 140.929  0.00  0.00    +0.000 OA
ATOM     47  C   UNL     1     111.945 130.476 138.781  0.00  0.00    +0.000 C 
ATOM     48  C   UNL     1     111.605 130.720 139.492  0.00  0.00    +0.000 C 
ATOM     49  C   UNL     1     111.973 130.541 140.208  0.00  0.00    +0.000 C 
ATOM     50  C   UNL     1     112.681 130.118 140.212  0.00  0.00    +0.000 C 
ATOM     51  C   UNL     1     113.021 129.874 139.501  0.00  0.00    +0.000 C 
ATOM     52  C   UNL     1     113.729 129.450 139.506  0.00  0.00    +0.000 C 
ENDBRANCH  42  47
ENDBRANCH  36  42
ENDBRANCH  32  39
ENDBRANCH  31  32
ENDBRANCH   5  31
TORSDOF 8
ENDMDL
MODEL 7
REMARK VINA RESULT:     -11.4      1.832      3.811
REMARK  Name = 44258748
REMARK  8 active torsions:
REMARK  status: ('A' for Active; 'I' for Inactive)
REMARK    1  A    between atoms: O_1  and  C_20
REMARK    2  A    between atoms: O_1  and  C_25
REMARK    3  A    between atoms: O_3  and  C_23
REMARK    4  A    between atoms: O_3  and  C_33
REMARK    5  A    between atoms: O_13  and  C_35
REMARK    6  A    between atoms: O_13  and  C_38
REMARK    7  A    between atoms: C_28  and  C_33
REMARK    8  A    between atoms: C_39  and  C_42
REMARK                            x       y       z     vdW  Elec       q    Type
REMARK                         _______ _______ _______ _____ _____    ______ ____
ROOT
ATOM      1  O   UNL     1     112.910 128.003 137.408  0.00  0.00    +0.000 OA
ATOM      2  O   UNL     1     113.195 126.563 139.024  0.00  0.00    +0.000 OA
ATOM      3  O   UNL     1     113.792 125.714 137.741  0.00  0.00    +0.000 OA
ATOM      4  O   UNL     1     113.802 126.391 136.236  0.00  0.00    +0.000 OA
ATOM      5  C   UNL     1     112.905 127.665 138.160  0.00  0.00    +0.000 C 
ATOM      6  C   UNL     1     113.200 126.901 138.271  0.00  0.00    +0.000 C 
ATOM      7  C   UNL     1     113.498 126.478 137.630  0.00  0.00    +0.000 C 
ATOM      8  C   UNL     1     113.503 126.816 136.877  0.00  0.00    +0.000 C 
ATOM      9  C   UNL     1     113.209 127.578 136.767  0.00  0.00    +0.000 C 
ENDROOT
BRANCH   9  10
ATOM     10  O   UNL     1     113.214 127.917 136.014  0.00  0.00    +0.000 OA
BRANCH  10  15
ATOM     11  O   UNL     1     112.031 129.606 135.299  0.00  0.00    +0.000 OA
ATOM     12  O   UNL     1     111.716 127.230 135.917  0.00  0.00    +0.000 OA
ATOM     13  O   UNL     1     110.307 127.310 135.618  0.00  0.00    +0.000 OA
ATOM     14  O   UNL     1     109.195 129.840 134.676  0.00  0.00    +0.000 OA
ATOM     15  C   UNL     1     112.569 128.366 135.759  0.00  0.00    +0.000 A 
ATOM     16  C   UNL     1     112.674 129.158 135.553  0.00  0.00    +0.000 A 
ATOM     17  C   UNL     1     111.821 128.022 135.711  0.00  0.00    +0.000 A 
ATOM     18  C   UNL     1     111.177 128.471 135.456  0.00  0.00    +0.000 A 
ATOM     19  C   UNL     1     111.282 129.263 135.250  0.00  0.00    +0.000 A 
ATOM     20  C   UNL     1     110.403 128.102 135.410  0.00  0.00    +0.000 A 
ATOM     21  C   UNL     1     110.619 129.741 134.984  0.00  0.00    +0.000 A 
ATOM     22  C   UNL     1     109.728 128.564 135.146  0.00  0.00    +0.000 A 
ATOM     23  C   UNL     1     109.837 129.389 134.931  0.00  0.00    +0.000 A 
BRANCH  16  25
ATOM     24  O   UNL     1     115.669 130.530 135.750  0.00  0.00    +0.000 OA
ATOM     25  C   UNL     1     113.423 129.501 135.602  0.00  0.00    +0.000 A 
ATOM     26  C   UNL     1     114.005 129.302 135.053  0.00  0.00    +0.000 A 
ATOM     27  C   UNL     1     113.590 130.043 136.201  0.00  0.00    +0.000 A 
ATOM     28  C   UNL     1     114.754 129.645 135.101  0.00  0.00    +0.000 A 
ATOM     29  C   UNL     1     114.338 130.386 136.251  0.00  0.00    +0.000 A 
ATOM     30  C   UNL     1     114.921 130.187 135.701  0.00  0.00    +0.000 A 
ENDBRANCH  16  25
ENDBRANCH  10  15
ENDBRANCH   9  10
BRANCH   5  31
ATOM     31  C   UNL     1     112.607 128.089 138.802  0.00  0.00    +0.000 C 
BRANCH  31  32
ATOM     32  O   UNL     1     111.833 128.374 138.784  0.00  0.00    +0.000 OA
BRANCH  32  39
ATOM     33  O   UNL     1     112.174 129.363 139.758  0.00  0.00    +0.000 OA
ATOM     34  O   UNL     1     110.318 129.016 138.663  0.00  0.00    +0.000 OA
ATOM     35  O   UNL     1     110.999 130.994 140.609  0.00  0.00    +0.000 OA
ATOM     36  C   UNL     1     110.659 130.005 139.636  0.00  0.00    +0.000 C 
ATOM     37  C   UNL     1     110.868 129.350 139.180  0.00  0.00    +0.000 C 
ATOM     38  C   UNL     1     111.208 130.339 140.154  0.00  0.00    +0.000 C 
ATOM     39  C   UNL     1     111.625 129.029 139.241  0.00  0.00    +0.000 C 
ATOM     40  C   UNL     1     111.966 130.018 140.215  0.00  0.00    +0.000 C 
ATOM     41  C   UNL     1     112.514 130.352 140.731  0.00  0.00    +0.000 C 
BRANCH  36  42
ATOM     42  O   UNL     1     109.901 130.326 139.575  0.00  0.00    +0.000 OA
BRANCH  42  47
ATOM     43  O   UNL     1     110.347 131.235 138.567  0.00  0.00    +0.000 OA
ATOM     44  O   UNL     1     108.334 130.704 139.223  0.00  0.00    +0.000 OA
ATOM     45  O   UNL     1     107.996 131.803 138.040  0.00  0.00    +0.000 OA
ATOM     46  O   UNL     1     109.225 132.523 137.207  0.00  0.00    +0.000 OA
ATOM     47  C   UNL     1     109.733 130.875 138.983  0.00  0.00    +0.000 C 
ATOM     48  C   UNL     1     108.949 131.064 138.807  0.00  0.00    +0.000 C 
ATOM     49  C   UNL     1     108.780 131.614 138.215  0.00  0.00    +0.000 C 
ATOM     50  C   UNL     1     109.395 131.973 137.800  0.00  0.00    +0.000 C 
ATOM     51  C   UNL     1     110.178 131.784 137.976  0.00  0.00    +0.000 C 
ATOM     52  C   UNL     1     110.793 132.145 137.559  0.00  0.00    +0.000 C 
ENDBRANCH  42  47
ENDBRANCH  36  42
ENDBRANCH  32  39
ENDBRANCH  31  32
ENDBRANCH   5  31
TORSDOF 8
ENDMDL
MODEL 8
REMARK VINA RESULT:     -11.3      2.140      4.425
REMARK  Name = 44258748
REMARK  8 active torsions:
REMARK  status: ('A' for Active; 'I' for Inactive)
REMARK    1  A    between atoms: O_1  and  C_20
REMARK    2  A    between atoms: O_1  and  C_25
REMARK    3  A    between atoms: O_3  and  C_23
REMARK    4  A    between atoms: O_3  and  C_33
REMARK    5  A    between atoms: O_13  and  C_35
REMARK    6  A    between atoms: O_13  and  C_38
REMARK    7  A    between atoms: C_28  and  C_33
REMARK    8  A    between atoms: C_39  and  C_42
REMARK                            x       y       z     vdW  Elec       q    Type
REMARK                         _______ _______ _______ _____ _____    ______ ____
ROOT
ATOM      1  O   UNL     1     112.058 128.091 138.265  0.00  0.00    +0.000 OA
ATOM      2  O   UNL     1     111.917 128.298 140.434  0.00  0.00    +0.000 OA
ATOM      3  O   UNL     1     113.279 127.378 140.298  0.00  0.00    +0.000 OA
ATOM      4  O   UNL     1     113.828 126.933 138.806  0.00  0.00    +0.000 OA
ATOM      5  C   UNL     1     111.784 128.314 139.011  0.00  0.00    +0.000 C 
ATOM      6  C   UNL     1     112.191 128.076 139.689  0.00  0.00    +0.000 C 
ATOM      7  C   UNL     1     112.872 127.616 139.620  0.00  0.00    +0.000 C 
ATOM      8  C   UNL     1     113.147 127.393 138.874  0.00  0.00    +0.000 C 
ATOM      9  C   UNL     1     112.740 127.631 138.198  0.00  0.00    +0.000 C 
ENDROOT
BRANCH   9  10
ATOM     10  O   UNL     1     113.015 127.409 137.452  0.00  0.00    +0.000 OA
BRANCH  10  15
ATOM     11  O   UNL     1     111.950 127.362 135.547  0.00  0.00    +0.000 OA
ATOM     12  O   UNL     1     111.931 126.195 137.730  0.00  0.00    +0.000 OA
ATOM     13  O   UNL     1     110.844 125.350 137.300  0.00  0.00    +0.000 OA
ATOM     14  O   UNL     1     109.755 125.691 134.612  0.00  0.00    +0.000 OA
ATOM     15  C   UNL     1     112.479 127.191 136.863  0.00  0.00    +0.000 A 
ATOM     16  C   UNL     1     112.485 127.580 136.135  0.00  0.00    +0.000 A 
ATOM     17  C   UNL     1     111.938 126.584 137.002  0.00  0.00    +0.000 A 
ATOM     18  C   UNL     1     111.402 126.367 136.413  0.00  0.00    +0.000 A 
ATOM     19  C   UNL     1     111.408 126.756 135.685  0.00  0.00    +0.000 A 
ATOM     20  C   UNL     1     110.843 125.733 136.570  0.00  0.00    +0.000 A 
ATOM     21  C   UNL     1     110.856 126.538 135.064  0.00  0.00    +0.000 A 
ATOM     22  C   UNL     1     110.282 125.502 135.960  0.00  0.00    +0.000 A 
ATOM     23  C   UNL     1     110.289 125.907 135.203  0.00  0.00    +0.000 A 
BRANCH  16  25
ATOM     24  O   UNL     1     114.650 130.009 135.583  0.00  0.00    +0.000 OA
ATOM     25  C   UNL     1     113.027 128.187 135.997  0.00  0.00    +0.000 A 
ATOM     26  C   UNL     1     113.824 128.011 135.884  0.00  0.00    +0.000 A 
ATOM     27  C   UNL     1     112.770 128.971 135.972  0.00  0.00    +0.000 A 
ATOM     28  C   UNL     1     114.366 128.617 135.746  0.00  0.00    +0.000 A 
ATOM     29  C   UNL     1     113.311 129.578 135.834  0.00  0.00    +0.000 A 
ATOM     30  C   UNL     1     114.109 129.401 135.721  0.00  0.00    +0.000 A 
ENDBRANCH  16  25
ENDBRANCH  10  15
ENDBRANCH   9  10
BRANCH   5  31
ATOM     31  C   UNL     1     111.103 128.774 139.080  0.00  0.00    +0.000 C 
BRANCH  31  32
ATOM     32  O   UNL     1     110.834 129.214 138.436  0.00  0.00    +0.000 OA
BRANCH  32  39
ATOM     33  O   UNL     1     110.109 130.151 139.235  0.00  0.00    +0.000 OA
ATOM     34  O   UNL     1     109.756 129.427 137.206  0.00  0.00    +0.000 OA
ATOM     35  O   UNL     1     108.305 131.301 138.803  0.00  0.00    +0.000 OA
ATOM     36  C   UNL     1     109.030 130.364 138.005  0.00  0.00    +0.000 C 
ATOM     37  C   UNL     1     109.663 129.842 137.913  0.00  0.00    +0.000 C 
ATOM     38  C   UNL     1     108.937 130.779 138.712  0.00  0.00    +0.000 C 
ATOM     39  C   UNL     1     110.202 129.736 138.528  0.00  0.00    +0.000 C 
ATOM     40  C   UNL     1     109.477 130.673 139.327  0.00  0.00    +0.000 C 
ATOM     41  C   UNL     1     109.384 131.088 140.033  0.00  0.00    +0.000 C 
BRANCH  36  42
ATOM     42  O   UNL     1     108.491 130.470 137.390  0.00  0.00    +0.000 OA
BRANCH  42  47
ATOM     43  O   UNL     1     109.274 131.551 136.880  0.00  0.00    +0.000 OA
ATOM     44  O   UNL     1     107.530 130.535 136.050  0.00  0.00    +0.000 OA
ATOM     45  O   UNL     1     107.833 131.649 134.870  0.00  0.00    +0.000 OA
ATOM     46  O   UNL     1     109.097 132.697 135.031  0.00  0.00    +0.000 OA
ATOM     47  C   UNL     1     108.643 131.027 136.800  0.00  0.00    +0.000 C 
ATOM     48  C   UNL     1     108.162 131.060 136.130  0.00  0.00    +0.000 C 
ATOM     49  C   UNL     1     108.313 131.616 135.540  0.00  0.00    +0.000 C 
ATOM     50  C   UNL     1     108.945 132.140 135.621  0.00  0.00    +0.000 C 
ATOM     51  C   UNL     1     109.426 132.108 136.291  0.00  0.00    +0.000 C 
ATOM     52  C   UNL     1     110.058 132.632 136.370  0.00  0.00    +0.000 C 
ENDBRANCH  42  47
ENDBRANCH  36  42
ENDBRANCH  32  39
ENDBRANCH  31  32
ENDBRANCH   5  31
TORSDOF 8
ENDMDL
MODEL 9
REMARK VINA RESULT:     -11.3      2.163      4.243
REMARK  Name = 44258748
REMARK  8 active torsions:
REMARK  status: ('A' for Active; 'I' for Inactive)
REMARK    1  A    between atoms: O_1  and  C_20
REMARK    2  A    between atoms: O_1  and  C_25
REMARK    3  A    between atoms: O_3  and  C_23
REMARK    4  A    between atoms: O_3  and  C_33
REMARK    5  A    between atoms: O_13  and  C_35
REMARK    6  A    between atoms: O_13  and  C_38
REMARK    7  A    between atoms: C_28  and  C_33
REMARK    8  A    between atoms: C_39  and  C_42
REMARK                            x       y       z     vdW  Elec       q    Type
REMARK                         _______ _______ _______ _____ _____    ______ ____
ROOT
ATOM      1  O   UNL     1     111.085 126.805 138.287  0.00  0.00    +0.000 OA
ATOM      2  O   UNL     1     108.931 126.989 137.979  0.00  0.00    +0.000 OA
ATOM      3  O   UNL     1     108.977 125.916 139.232  0.00  0.00    +0.000 OA
ATOM      4  O   UNL     1     110.427 125.435 139.854  0.00  0.00    +0.000 OA
ATOM      5  C   UNL     1     110.360 127.046 137.975  0.00  0.00    +0.000 C 
ATOM      6  C   UNL     1     109.657 126.749 138.290  0.00  0.00    +0.000 C 
ATOM      7  C   UNL     1     109.680 126.212 138.917  0.00  0.00    +0.000 C 
ATOM      8  C   UNL     1     110.405 125.972 139.228  0.00  0.00    +0.000 C 
ATOM      9  C   UNL     1     111.107 126.268 138.913  0.00  0.00    +0.000 C 
ENDROOT
BRANCH   9  10
ATOM     10  O   UNL     1     111.832 126.028 139.224  0.00  0.00    +0.000 OA
BRANCH  10  15
ATOM     11  O   UNL     1     113.825 126.213 138.354  0.00  0.00    +0.000 OA
ATOM     12  O   UNL     1     111.722 124.968 137.964  0.00  0.00    +0.000 OA
ATOM     13  O   UNL     1     112.295 124.303 136.819  0.00  0.00    +0.000 OA
ATOM     14  O   UNL     1     115.047 124.909 136.053  0.00  0.00    +0.000 OA
ATOM     15  C   UNL     1     112.479 125.913 138.724  0.00  0.00    +0.000 A 
ATOM     16  C   UNL     1     113.180 126.328 138.854  0.00  0.00    +0.000 A 
ATOM     17  C   UNL     1     112.423 125.383 138.094  0.00  0.00    +0.000 A 
ATOM     18  C   UNL     1     113.070 125.268 137.594  0.00  0.00    +0.000 A 
ATOM     19  C   UNL     1     113.771 125.683 137.723  0.00  0.00    +0.000 A 
ATOM     20  C   UNL     1     113.000 124.714 136.941  0.00  0.00    +0.000 A 
ATOM     21  C   UNL     1     114.450 125.573 137.210  0.00  0.00    +0.000 A 
ATOM     22  C   UNL     1     113.669 124.590 136.417  0.00  0.00    +0.000 A 
ATOM     23  C   UNL     1     114.399 125.022 136.552  0.00  0.00    +0.000 A 
BRANCH  16  25
ATOM     24  O   UNL     1     113.398 128.445 141.376  0.00  0.00    +0.000 OA
ATOM     25  C   UNL     1     113.235 126.858 139.484  0.00  0.00    +0.000 A 
ATOM     26  C   UNL     1     113.242 127.670 139.341  0.00  0.00    +0.000 A 
ATOM     27  C   UNL     1     113.282 126.575 140.257  0.00  0.00    +0.000 A 
ATOM     28  C   UNL     1     113.297 128.200 139.971  0.00  0.00    +0.000 A 
ATOM     29  C   UNL     1     113.336 127.104 140.888  0.00  0.00    +0.000 A 
ATOM     30  C   UNL     1     113.344 127.917 140.745  0.00  0.00    +0.000 A 
ENDBRANCH  16  25
ENDBRANCH  10  15
ENDBRANCH   9  10
BRANCH   5  31
ATOM     31  C   UNL     1     110.336 127.582 137.349  0.00  0.00    +0.000 C 
BRANCH  31  32
ATOM     32  O   UNL     1     110.836 128.239 137.349  0.00  0.00    +0.000 OA
BRANCH  32  39
ATOM     33  O   UNL     1     110.497 128.617 136.014  0.00  0.00    +0.000 OA
ATOM     34  O   UNL     1     111.173 129.814 137.709  0.00  0.00    +0.000 OA
ATOM     35  O   UNL     1     110.496 130.569 135.037  0.00  0.00    +0.000 OA
ATOM     36  C   UNL     1     110.835 130.191 136.373  0.00  0.00    +0.000 C 
ATOM     37  C   UNL     1     110.919 129.608 136.951  0.00  0.00    +0.000 C 
ATOM     38  C   UNL     1     110.581 129.986 135.615  0.00  0.00    +0.000 C 
ATOM     39  C   UNL     1     110.751 128.821 136.771  0.00  0.00    +0.000 C 
ATOM     40  C   UNL     1     110.412 129.199 135.435  0.00  0.00    +0.000 C 
ATOM     41  C   UNL     1     110.159 128.994 134.678  0.00  0.00    +0.000 C 
BRANCH  36  42
ATOM     42  O   UNL     1     111.004 130.978 136.553  0.00  0.00    +0.000 OA
BRANCH  42  47
ATOM     43  O   UNL     1     109.644 131.249 136.899  0.00  0.00    +0.000 OA
ATOM     44  O   UNL     1     111.488 132.287 137.434  0.00  0.00    +0.000 OA
ATOM     45  O   UNL     1     110.370 133.212 138.220  0.00  0.00    +0.000 OA
ATOM     46  O   UNL     1     108.768 132.828 138.125  0.00  0.00    +0.000 OA
ATOM     47  C   UNL     1     110.444 131.440 136.946  0.00  0.00    +0.000 C 
ATOM     48  C   UNL     1     110.686 132.095 137.386  0.00  0.00    +0.000 C 
ATOM     49  C   UNL     1     110.128 132.557 137.779  0.00  0.00    +0.000 C 
ATOM     50  C   UNL     1     109.327 132.365 137.732  0.00  0.00    +0.000 C 
ATOM     51  C   UNL     1     109.085 131.710 137.292  0.00  0.00    +0.000 C 
ATOM     52  C   UNL     1     108.284 131.519 137.245  0.00  0.00    +0.000 C 
ENDBRANCH  42  47
ENDBRANCH  36  42
ENDBRANCH  32  39
ENDBRANCH  31  32
ENDBRANCH   5  31
TORSDOF 8
ENDMDL
MODEL 10
REMARK VINA RESULT:     -11.2      1.662      4.036
REMARK  Name = 44258748
REMARK  8 active torsions:
REMARK  status: ('A' for Active; 'I' for Inactive)
REMARK    1  A    between atoms: O_1  and  C_20
REMARK    2  A    between atoms: O_1  and  C_25
REMARK    3  A    between atoms: O_3  and  C_23
REMARK    4  A    between atoms: O_3  and  C_33
REMARK    5  A    between atoms: O_13  and  C_35
REMARK    6  A    between atoms: O_13  and  C_38
REMARK    7  A    between atoms: C_28  and  C_33
REMARK    8  A    between atoms: C_39  and  C_42
REMARK                            x       y       z     vdW  Elec       q    Type
REMARK                         _______ _______ _______ _____ _____    ______ ____
ROOT
ATOM      1  O   UNL     1     111.008 126.666 138.407  0.00  0.00    +0.000 OA
ATOM      2  O   UNL     1     108.830 126.714 138.272  0.00  0.00    +0.000 OA
ATOM      3  O   UNL     1     109.038 125.783 139.619  0.00  0.00    +0.000 OA
ATOM      4  O   UNL     1     110.560 125.441 140.158  0.00  0.00    +0.000 OA
ATOM      5  C   UNL     1     110.248 126.837 138.137  0.00  0.00    +0.000 C 
ATOM      6  C   UNL     1     109.591 126.542 138.541  0.00  0.00    +0.000 C 
ATOM      7  C   UNL     1     109.695 126.078 139.215  0.00  0.00    +0.000 C 
ATOM      8  C   UNL     1     110.456 125.907 139.484  0.00  0.00    +0.000 C 
ATOM      9  C   UNL     1     111.112 126.200 139.081  0.00  0.00    +0.000 C 
ENDROOT
BRANCH   9  10
ATOM     10  O   UNL     1     111.873 126.029 139.350  0.00  0.00    +0.000 OA
BRANCH  10  15
ATOM     11  O   UNL     1     113.783 126.287 138.326  0.00  0.00    +0.000 OA
ATOM     12  O   UNL     1     111.744 124.894 138.160  0.00  0.00    +0.000 OA
ATOM     13  O   UNL     1     112.278 124.201 137.012  0.00  0.00    +0.000 OA
ATOM     14  O   UNL     1     114.923 124.930 136.014  0.00  0.00    +0.000 OA
ATOM     15  C   UNL     1     112.489 125.926 138.810  0.00  0.00    +0.000 A 
ATOM     16  C   UNL     1     113.168 126.390 138.866  0.00  0.00    +0.000 A 
ATOM     17  C   UNL     1     112.424 125.358 138.215  0.00  0.00    +0.000 A 
ATOM     18  C   UNL     1     113.040 125.255 137.675  0.00  0.00    +0.000 A 
ATOM     19  C   UNL     1     113.720 125.719 137.731  0.00  0.00    +0.000 A 
ATOM     20  C   UNL     1     112.961 124.661 137.060  0.00  0.00    +0.000 A 
ATOM     21  C   UNL     1     114.367 125.621 137.175  0.00  0.00    +0.000 A 
ATOM     22  C   UNL     1     113.599 124.548 136.495  0.00  0.00    +0.000 A 
ATOM     23  C   UNL     1     114.306 125.031 136.553  0.00  0.00    +0.000 A 
BRANCH  16  25
ATOM     24  O   UNL     1     113.423 128.658 141.249  0.00  0.00    +0.000 OA
ATOM     25  C   UNL     1     113.232 126.958 139.461  0.00  0.00    +0.000 A 
ATOM     26  C   UNL     1     113.179 127.759 139.275  0.00  0.00    +0.000 A 
ATOM     27  C   UNL     1     113.349 126.723 140.243  0.00  0.00    +0.000 A 
ATOM     28  C   UNL     1     113.243 128.327 139.871  0.00  0.00    +0.000 A 
ATOM     29  C   UNL     1     113.413 127.289 140.840  0.00  0.00    +0.000 A 
ATOM     30  C   UNL     1     113.360 128.092 140.653  0.00  0.00    +0.000 A 
ENDBRANCH  16  25
ENDBRANCH  10  15
ENDBRANCH   9  10
BRANCH   5  31
ATOM     31  C   UNL     1     110.143 127.302 137.464  0.00  0.00    +0.000 C 
BRANCH  31  32
ATOM     32  O   UNL     1     110.320 128.107 137.487  0.00  0.00    +0.000 OA
BRANCH  32  39
ATOM     33  O   UNL     1     110.297 128.191 136.060  0.00  0.00    +0.000 OA
ATOM     34  O   UNL     1     111.139 129.538 137.557  0.00  0.00    +0.000 OA
ATOM     35  O   UNL     1     111.093 129.705 134.705  0.00  0.00    +0.000 OA
ATOM     36  C   UNL     1     111.116 129.621 136.131  0.00  0.00    +0.000 C 
ATOM     37  C   UNL     1     110.923 129.221 136.826  0.00  0.00    +0.000 C 
ATOM     38  C   UNL     1     110.899 129.305 135.400  0.00  0.00    +0.000 C 
ATOM     39  C   UNL     1     110.513 128.506 136.791  0.00  0.00    +0.000 C 
ATOM     40  C   UNL     1     110.490 128.590 135.364  0.00  0.00    +0.000 C 
ATOM     41  C   UNL     1     110.274 128.274 134.634  0.00  0.00    +0.000 C 
BRANCH  36  42
ATOM     42  O   UNL     1     111.526 130.337 136.166  0.00  0.00    +0.000 OA
BRANCH  42  47
ATOM     43  O   UNL     1     112.789 129.687 136.013  0.00  0.00    +0.000 OA
ATOM     44  O   UNL     1     112.279 131.643 136.835  0.00  0.00    +0.000 OA
ATOM     45  O   UNL     1     113.919 131.646 137.016  0.00  0.00    +0.000 OA
ATOM     46  O   UNL     1     114.806 130.343 136.529  0.00  0.00    +0.000 OA
ATOM     47  C   UNL     1     112.346 130.338 136.257  0.00  0.00    +0.000 C 
ATOM     48  C   UNL     1     112.723 130.991 136.591  0.00  0.00    +0.000 C 
ATOM     49  C   UNL     1     113.542 130.993 136.682  0.00  0.00    +0.000 C 
ATOM     50  C   UNL     1     113.985 130.341 136.438  0.00  0.00    +0.000 C 
ATOM     51  C   UNL     1     113.608 129.688 136.103  0.00  0.00    +0.000 C 
ATOM     52  C   UNL     1     114.052 129.037 135.859  0.00  0.00    +0.000 C 
ENDBRANCH  42  47
ENDBRANCH  36  42
ENDBRANCH  32  39
ENDBRANCH  31  32
ENDBRANCH   5  31
TORSDOF 8
ENDMDL
