MODEL 1
REMARK VINA RESULT:      -8.4      0.000      0.000
REMARK  Name = 12443122
REMARK  4 active torsions:
REMARK  status: ('A' for Active; 'I' for Inactive)
REMARK    1  A    between atoms: O_2  and  C_12
REMARK    2  A    between atoms: O_3  and  C_16
REMARK    3  A    between atoms: O_7  and  C_21
REMARK    4  A    between atoms: C_11  and  C_15
REMARK                            x       y       z     vdW  Elec       q    Type
REMARK                         _______ _______ _______ _____ _____    ______ ____
ROOT
ATOM      1  O   UNL     1     104.723 124.222 146.808  0.00  0.00    +0.000 OA
ATOM      2  O   UNL     1     102.004 124.977 147.453  0.00  0.00    +0.000 OA
ATOM      3  O   UNL     1     102.494 122.739 145.743  0.00  0.00    +0.000 OA
ATOM      4  O   UNL     1     103.093 125.745 148.006  0.00  0.00    +0.000 OA
ATOM      5  C   UNL     1     103.346 124.602 147.133  0.00  0.00    +0.000 A 
ATOM      6  C   UNL     1     103.875 124.104 146.741  0.00  0.00    +0.000 A 
ATOM      7  C   UNL     1     105.025 124.868 147.289  0.00  0.00    +0.000 A 
ATOM      8  C   UNL     1     103.590 123.484 146.278  0.00  0.00    +0.000 A 
ATOM      9  C   UNL     1     102.533 124.479 147.061  0.00  0.00    +0.000 A 
ATOM     10  C   UNL     1     103.629 125.252 147.618  0.00  0.00    +0.000 A 
ATOM     11  C   UNL     1     102.250 123.858 146.598  0.00  0.00    +0.000 A 
ATOM     12  C   UNL     1     102.779 123.360 146.207  0.00  0.00    +0.000 A 
ATOM     13  C   UNL     1     104.475 125.386 147.697  0.00  0.00    +0.000 A 
ENDROOT
BRANCH   7  15
ATOM     14  O   UNL     1     108.277 125.351 147.570  0.00  0.00    +0.000 OA
ATOM     15  C   UNL     1     105.838 124.989 147.359  0.00  0.00    +0.000 A 
ATOM     16  C   UNL     1     106.255 124.641 147.980  0.00  0.00    +0.000 A 
ATOM     17  C   UNL     1     106.235 125.457 146.807  0.00  0.00    +0.000 A 
ATOM     18  C   UNL     1     107.067 124.761 148.050  0.00  0.00    +0.000 A 
ATOM     19  C   UNL     1     107.048 125.578 146.878  0.00  0.00    +0.000 A 
ATOM     20  C   UNL     1     107.465 125.230 147.499  0.00  0.00    +0.000 A 
BRANCH  18  21
ATOM     21  O   UNL     1     107.484 124.414 148.672  0.00  0.00    +0.000 OA
ATOM     22  C   UNL     1     107.142 124.361 149.421  0.00  0.00    +0.000 C 
ENDBRANCH  18  21
ENDBRANCH   7  15
BRANCH   8  23
ATOM     23  O   UNL     1     104.119 122.986 145.887  0.00  0.00    +0.000 OA
ATOM     24  C   UNL     1     104.073 122.897 145.068  0.00  0.00    +0.000 C 
ENDBRANCH   8  23
BRANCH  11  25
ATOM     25  O   UNL     1     101.436 123.735 146.527  0.00  0.00    +0.000 OA
ATOM     26  C   UNL     1     101.051 123.221 147.044  0.00  0.00    +0.000 C 
ENDBRANCH  11  25
TORSDOF 4
ENDMDL
MODEL 2
REMARK VINA RESULT:      -8.2      1.027      4.679
REMARK  Name = 12443122
REMARK  4 active torsions:
REMARK  status: ('A' for Active; 'I' for Inactive)
REMARK    1  A    between atoms: O_2  and  C_12
REMARK    2  A    between atoms: O_3  and  C_16
REMARK    3  A    between atoms: O_7  and  C_21
REMARK    4  A    between atoms: C_11  and  C_15
REMARK                            x       y       z     vdW  Elec       q    Type
REMARK                         _______ _______ _______ _____ _____    ______ ____
ROOT
ATOM      1  O   UNL     1     104.830 124.274 147.190  0.00  0.00    +0.000 OA
ATOM      2  O   UNL     1     107.206 125.486 146.065  0.00  0.00    +0.000 OA
ATOM      3  O   UNL     1     107.021 125.065 148.886  0.00  0.00    +0.000 OA
ATOM      4  O   UNL     1     106.130 125.103 145.182  0.00  0.00    +0.000 OA
ATOM      5  C   UNL     1     106.033 124.887 146.623  0.00  0.00    +0.000 A 
ATOM      6  C   UNL     1     105.612 124.618 147.279  0.00  0.00    +0.000 A 
ATOM      7  C   UNL     1     104.482 124.209 146.407  0.00  0.00    +0.000 A 
ATOM      8  C   UNL     1     105.941 124.677 148.033  0.00  0.00    +0.000 A 
ATOM      9  C   UNL     1     106.784 125.216 146.721  0.00  0.00    +0.000 A 
ATOM     10  C   UNL     1     105.702 124.831 145.833  0.00  0.00    +0.000 A 
ATOM     11  C   UNL     1     107.113 125.275 147.475  0.00  0.00    +0.000 A 
ATOM     12  C   UNL     1     106.691 125.006 148.131  0.00  0.00    +0.000 A 
ATOM     13  C   UNL     1     104.920 124.489 145.724  0.00  0.00    +0.000 A 
ENDROOT
BRANCH   7  15
ATOM     14  O   UNL     1     101.480 122.894 146.026  0.00  0.00    +0.000 OA
ATOM     15  C   UNL     1     103.731 123.880 146.311  0.00  0.00    +0.000 A 
ATOM     16  C   UNL     1     103.065 124.290 146.572  0.00  0.00    +0.000 A 
ATOM     17  C   UNL     1     103.647 123.140 145.955  0.00  0.00    +0.000 A 
ATOM     18  C   UNL     1     102.315 123.962 146.477  0.00  0.00    +0.000 A 
ATOM     19  C   UNL     1     102.896 122.812 145.860  0.00  0.00    +0.000 A 
ATOM     20  C   UNL     1     102.229 123.222 146.121  0.00  0.00    +0.000 A 
BRANCH  18  21
ATOM     21  O   UNL     1     101.648 124.372 146.738  0.00  0.00    +0.000 OA
ATOM     22  C   UNL     1     101.660 124.759 147.467  0.00  0.00    +0.000 C 
ENDBRANCH  18  21
ENDBRANCH   7  15
BRANCH   8  23
ATOM     23  O   UNL     1     105.520 124.408 148.689  0.00  0.00    +0.000 OA
ATOM     24  C   UNL     1     105.344 124.925 149.308  0.00  0.00    +0.000 C 
ENDBRANCH   8  23
BRANCH  11  25
ATOM     25  O   UNL     1     107.863 125.604 147.573  0.00  0.00    +0.000 OA
ATOM     26  C   UNL     1     108.513 125.114 147.710  0.00  0.00    +0.000 C 
ENDBRANCH  11  25
TORSDOF 4
ENDMDL
MODEL 3
REMARK VINA RESULT:      -8.0     11.783     13.124
REMARK  Name = 12443122
REMARK  4 active torsions:
REMARK  status: ('A' for Active; 'I' for Inactive)
REMARK    1  A    between atoms: O_2  and  C_12
REMARK    2  A    between atoms: O_3  and  C_16
REMARK    3  A    between atoms: O_7  and  C_21
REMARK    4  A    between atoms: C_11  and  C_15
REMARK                            x       y       z     vdW  Elec       q    Type
REMARK                         _______ _______ _______ _____ _____    ______ ____
ROOT
ATOM      1  O   UNL     1     110.522 127.381 135.887  0.00  0.00    +0.000 OA
ATOM      2  O   UNL     1     107.951 128.700 135.723  0.00  0.00    +0.000 OA
ATOM      3  O   UNL     1     110.347 130.190 135.269  0.00  0.00    +0.000 OA
ATOM      4  O   UNL     1     107.996 127.291 136.034  0.00  0.00    +0.000 OA
ATOM      5  C   UNL     1     109.222 128.051 135.803  0.00  0.00    +0.000 A 
ATOM      6  C   UNL     1     110.045 128.083 135.754  0.00  0.00    +0.000 A 
ATOM      7  C   UNL     1     110.137 126.635 136.072  0.00  0.00    +0.000 A 
ATOM      8  C   UNL     1     110.419 128.796 135.576  0.00  0.00    +0.000 A 
ATOM      9  C   UNL     1     108.773 128.732 135.674  0.00  0.00    +0.000 A 
ATOM     10  C   UNL     1     108.820 127.315 135.987  0.00  0.00    +0.000 A 
ATOM     11  C   UNL     1     109.149 129.444 135.496  0.00  0.00    +0.000 A 
ATOM     12  C   UNL     1     109.972 129.477 135.447  0.00  0.00    +0.000 A 
ATOM     13  C   UNL     1     109.281 126.602 136.123  0.00  0.00    +0.000 A 
ENDROOT
BRANCH   7  15
ATOM     14  O   UNL     1     111.939 123.919 136.588  0.00  0.00    +0.000 OA
ATOM     15  C   UNL     1     110.588 125.956 136.201  0.00  0.00    +0.000 A 
ATOM     16  C   UNL     1     110.883 125.793 136.954  0.00  0.00    +0.000 A 
ATOM     17  C   UNL     1     110.743 125.440 135.577  0.00  0.00    +0.000 A 
ATOM     18  C   UNL     1     111.333 125.115 137.083  0.00  0.00    +0.000 A 
ATOM     19  C   UNL     1     111.194 124.760 135.706  0.00  0.00    +0.000 A 
ATOM     20  C   UNL     1     111.489 124.598 136.459  0.00  0.00    +0.000 A 
BRANCH  18  21
ATOM     21  O   UNL     1     111.628 124.953 137.836  0.00  0.00    +0.000 OA
ATOM     22  C   UNL     1     111.877 125.570 138.325  0.00  0.00    +0.000 C 
ENDBRANCH  18  21
ENDBRANCH   7  15
BRANCH   8  23
ATOM     23  O   UNL     1     111.242 128.829 135.528  0.00  0.00    +0.000 OA
ATOM     24  C   UNL     1     111.606 129.044 134.819  0.00  0.00    +0.000 C 
ENDBRANCH   8  23
BRANCH  11  25
ATOM     25  O   UNL     1     108.701 130.126 135.367  0.00  0.00    +0.000 OA
ATOM     26  C   UNL     1     108.525 130.628 135.996  0.00  0.00    +0.000 C 
ENDBRANCH  11  25
TORSDOF 4
ENDMDL
MODEL 4
REMARK VINA RESULT:      -8.0      2.752      3.558
REMARK  Name = 12443122
REMARK  4 active torsions:
REMARK  status: ('A' for Active; 'I' for Inactive)
REMARK    1  A    between atoms: O_2  and  C_12
REMARK    2  A    between atoms: O_3  and  C_16
REMARK    3  A    between atoms: O_7  and  C_21
REMARK    4  A    between atoms: C_11  and  C_15
REMARK                            x       y       z     vdW  Elec       q    Type
REMARK                         _______ _______ _______ _____ _____    ______ ____
ROOT
ATOM      1  O   UNL     1     106.591 125.296 146.268  0.00  0.00    +0.000 OA
ATOM      2  O   UNL     1     106.036 127.785 144.899  0.00  0.00    +0.000 OA
ATOM      3  O   UNL     1     105.498 125.296 143.602  0.00  0.00    +0.000 OA
ATOM      4  O   UNL     1     106.583 127.827 146.234  0.00  0.00    +0.000 OA
ATOM      5  C   UNL     1     106.309 126.554 145.573  0.00  0.00    +0.000 A 
ATOM      6  C   UNL     1     106.311 125.729 145.581  0.00  0.00    +0.000 A 
ATOM      7  C   UNL     1     106.874 125.727 146.956  0.00  0.00    +0.000 A 
ATOM      8  C   UNL     1     106.041 125.310 144.924  0.00  0.00    +0.000 A 
ATOM      9  C   UNL     1     106.037 126.960 144.908  0.00  0.00    +0.000 A 
ATOM     10  C   UNL     1     106.588 127.002 146.251  0.00  0.00    +0.000 A 
ATOM     11  C   UNL     1     105.767 126.540 144.251  0.00  0.00    +0.000 A 
ATOM     12  C   UNL     1     105.769 125.715 144.259  0.00  0.00    +0.000 A 
ATOM     13  C   UNL     1     106.873 126.586 146.947  0.00  0.00    +0.000 A 
ENDROOT
BRANCH   7  15
ATOM     14  O   UNL     1     107.958 124.095 149.611  0.00  0.00    +0.000 OA
ATOM     15  C   UNL     1     107.146 125.319 147.619  0.00  0.00    +0.000 A 
ATOM     16  C   UNL     1     106.607 125.001 148.157  0.00  0.00    +0.000 A 
ATOM     17  C   UNL     1     107.956 125.229 147.745  0.00  0.00    +0.000 A 
ATOM     18  C   UNL     1     106.877 124.594 148.820  0.00  0.00    +0.000 A 
ATOM     19  C   UNL     1     108.227 124.820 148.410  0.00  0.00    +0.000 A 
ATOM     20  C   UNL     1     107.688 124.503 148.948  0.00  0.00    +0.000 A 
BRANCH  18  21
ATOM     21  O   UNL     1     106.338 124.276 149.358  0.00  0.00    +0.000 OA
ATOM     22  C   UNL     1     105.627 124.668 149.511  0.00  0.00    +0.000 C 
ENDBRANCH  18  21
ENDBRANCH   7  15
BRANCH   8  23
ATOM     23  O   UNL     1     106.042 124.485 144.932  0.00  0.00    +0.000 OA
ATOM     24  C   UNL     1     105.337 124.070 144.827  0.00  0.00    +0.000 C 
ENDBRANCH   8  23
BRANCH  11  25
ATOM     25  O   UNL     1     105.495 126.946 143.585  0.00  0.00    +0.000 OA
ATOM     26  C   UNL     1     106.010 127.105 142.961  0.00  0.00    +0.000 C 
ENDBRANCH  11  25
TORSDOF 4
ENDMDL
MODEL 5
REMARK VINA RESULT:      -7.9     11.432     12.815
REMARK  Name = 12443122
REMARK  4 active torsions:
REMARK  status: ('A' for Active; 'I' for Inactive)
REMARK    1  A    between atoms: O_2  and  C_12
REMARK    2  A    between atoms: O_3  and  C_16
REMARK    3  A    between atoms: O_7  and  C_21
REMARK    4  A    between atoms: C_11  and  C_15
REMARK                            x       y       z     vdW  Elec       q    Type
REMARK                         _______ _______ _______ _____ _____    ______ ____
ROOT
ATOM      1  O   UNL     1     110.972 126.021 136.861  0.00  0.00    +0.000 OA
ATOM      2  O   UNL     1     108.884 126.807 135.016  0.00  0.00    +0.000 OA
ATOM      3  O   UNL     1     109.215 128.220 137.478  0.00  0.00    +0.000 OA
ATOM      4  O   UNL     1     109.744 125.700 134.670  0.00  0.00    +0.000 OA
ATOM      5  C   UNL     1     109.914 126.421 135.929  0.00  0.00    +0.000 A 
ATOM      6  C   UNL     1     110.313 126.527 136.643  0.00  0.00    +0.000 A 
ATOM      7  C   UNL     1     111.219 125.394 136.327  0.00  0.00    +0.000 A 
ATOM      8  C   UNL     1     110.079 127.127 137.160  0.00  0.00    +0.000 A 
ATOM      9  C   UNL     1     109.283 126.914 135.731  0.00  0.00    +0.000 A 
ATOM     10  C   UNL     1     110.147 125.800 135.382  0.00  0.00    +0.000 A 
ATOM     11  C   UNL     1     109.050 127.513 136.248  0.00  0.00    +0.000 A 
ATOM     12  C   UNL     1     109.448 127.620 136.962  0.00  0.00    +0.000 A 
ATOM     13  C   UNL     1     110.805 125.283 135.583  0.00  0.00    +0.000 A 
ENDROOT
BRANCH   7  15
ATOM     14  O   UNL     1     113.747 123.430 137.128  0.00  0.00    +0.000 OA
ATOM     15  C   UNL     1     111.851 124.903 136.527  0.00  0.00    +0.000 A 
ATOM     16  C   UNL     1     112.625 125.143 136.373  0.00  0.00    +0.000 A 
ATOM     17  C   UNL     1     111.709 124.172 136.882  0.00  0.00    +0.000 A 
ATOM     18  C   UNL     1     113.257 124.653 136.573  0.00  0.00    +0.000 A 
ATOM     19  C   UNL     1     112.341 123.681 137.082  0.00  0.00    +0.000 A 
ATOM     20  C   UNL     1     113.115 123.921 136.928  0.00  0.00    +0.000 A 
BRANCH  18  21
ATOM     21  O   UNL     1     114.031 124.892 136.418  0.00  0.00    +0.000 OA
ATOM     22  C   UNL     1     114.272 125.658 136.611  0.00  0.00    +0.000 C 
ENDBRANCH  18  21
ENDBRANCH   7  15
BRANCH   8  23
ATOM     23  O   UNL     1     110.478 127.234 137.874  0.00  0.00    +0.000 OA
ATOM     24  C   UNL     1     110.076 127.143 138.589  0.00  0.00    +0.000 C 
ENDBRANCH   8  23
BRANCH  11  25
ATOM     25  O   UNL     1     108.418 128.006 136.049  0.00  0.00    +0.000 OA
ATOM     26  C   UNL     1     108.563 128.756 135.738  0.00  0.00    +0.000 C 
ENDBRANCH  11  25
TORSDOF 4
ENDMDL
MODEL 6
REMARK VINA RESULT:      -7.8      0.662      1.851
REMARK  Name = 12443122
REMARK  4 active torsions:
REMARK  status: ('A' for Active; 'I' for Inactive)
REMARK    1  A    between atoms: O_2  and  C_12
REMARK    2  A    between atoms: O_3  and  C_16
REMARK    3  A    between atoms: O_7  and  C_21
REMARK    4  A    between atoms: C_11  and  C_15
REMARK                            x       y       z     vdW  Elec       q    Type
REMARK                         _______ _______ _______ _____ _____    ______ ____
ROOT
ATOM      1  O   UNL     1     104.280 125.010 147.382  0.00  0.00    +0.000 OA
ATOM      2  O   UNL     1     102.343 123.562 145.792  0.00  0.00    +0.000 OA
ATOM      3  O   UNL     1     101.486 125.035 148.086  0.00  0.00    +0.000 OA
ATOM      4  O   UNL     1     103.733 123.524 145.406  0.00  0.00    +0.000 OA
ATOM      5  C   UNL     1     103.298 124.278 146.579  0.00  0.00    +0.000 A 
ATOM      6  C   UNL     1     103.473 124.762 147.223  0.00  0.00    +0.000 A 
ATOM      7  C   UNL     1     104.913 124.751 146.861  0.00  0.00    +0.000 A 
ATOM      8  C   UNL     1     102.869 125.014 147.726  0.00  0.00    +0.000 A 
ATOM      9  C   UNL     1     102.518 124.046 146.437  0.00  0.00    +0.000 A 
ATOM     10  C   UNL     1     103.917 124.008 146.048  0.00  0.00    +0.000 A 
ATOM     11  C   UNL     1     101.915 124.299 146.939  0.00  0.00    +0.000 A 
ATOM     12  C   UNL     1     102.091 124.783 147.584  0.00  0.00    +0.000 A 
ATOM     13  C   UNL     1     104.731 124.246 146.190  0.00  0.00    +0.000 A 
ENDROOT
BRANCH   7  15
ATOM     14  O   UNL     1     108.025 125.683 147.439  0.00  0.00    +0.000 OA
ATOM     15  C   UNL     1     105.692 124.984 147.006  0.00  0.00    +0.000 A 
ATOM     16  C   UNL     1     106.114 124.647 147.629  0.00  0.00    +0.000 A 
ATOM     17  C   UNL     1     106.047 125.554 146.527  0.00  0.00    +0.000 A 
ATOM     18  C   UNL     1     106.892 124.880 147.773  0.00  0.00    +0.000 A 
ATOM     19  C   UNL     1     106.825 125.787 146.672  0.00  0.00    +0.000 A 
ATOM     20  C   UNL     1     107.248 125.450 147.295  0.00  0.00    +0.000 A 
BRANCH  18  21
ATOM     21  O   UNL     1     107.315 124.543 148.396  0.00  0.00    +0.000 OA
ATOM     22  C   UNL     1     106.947 124.417 149.125  0.00  0.00    +0.000 C 
ENDBRANCH  18  21
ENDBRANCH   7  15
BRANCH   8  23
ATOM     23  O   UNL     1     103.044 125.498 148.370  0.00  0.00    +0.000 OA
ATOM     24  C   UNL     1     102.712 126.252 148.423  0.00  0.00    +0.000 C 
ENDBRANCH   8  23
BRANCH  11  25
ATOM     25  O   UNL     1     101.136 124.066 146.797  0.00  0.00    +0.000 OA
ATOM     26  C   UNL     1     100.838 123.384 147.152  0.00  0.00    +0.000 C 
ENDBRANCH  11  25
TORSDOF 4
ENDMDL
MODEL 7
REMARK VINA RESULT:      -7.8      8.215      9.145
REMARK  Name = 12443122
REMARK  4 active torsions:
REMARK  status: ('A' for Active; 'I' for Inactive)
REMARK    1  A    between atoms: O_2  and  C_12
REMARK    2  A    between atoms: O_3  and  C_16
REMARK    3  A    between atoms: O_7  and  C_21
REMARK    4  A    between atoms: C_11  and  C_15
REMARK                            x       y       z     vdW  Elec       q    Type
REMARK                         _______ _______ _______ _____ _____    ______ ____
ROOT
ATOM      1  O   UNL     1     102.665 130.699 141.510  0.00  0.00    +0.000 OA
ATOM      2  O   UNL     1     104.246 128.989 143.229  0.00  0.00    +0.000 OA
ATOM      3  O   UNL     1     103.851 128.280 140.489  0.00  0.00    +0.000 OA
ATOM      4  O   UNL     1     103.669 130.193 143.779  0.00  0.00    +0.000 OA
ATOM      5  C   UNL     1     103.466 129.832 142.378  0.00  0.00    +0.000 A 
ATOM      6  C   UNL     1     103.140 129.995 141.638  0.00  0.00    +0.000 A 
ATOM      7  C   UNL     1     102.528 131.242 142.162  0.00  0.00    +0.000 A 
ATOM      8  C   UNL     1     103.269 129.477 141.008  0.00  0.00    +0.000 A 
ATOM      9  C   UNL     1     103.920 129.152 142.489  0.00  0.00    +0.000 A 
ATOM     10  C   UNL     1     103.339 130.363 143.042  0.00  0.00    +0.000 A 
ATOM     11  C   UNL     1     104.048 128.635 141.859  0.00  0.00    +0.000 A 
ATOM     12  C   UNL     1     103.723 128.797 141.119  0.00  0.00    +0.000 A 
ATOM     13  C   UNL     1     102.867 131.073 142.933  0.00  0.00    +0.000 A 
ENDROOT
BRANCH   7  15
ATOM     14  O   UNL     1     100.711 133.958 141.708  0.00  0.00    +0.000 OA
ATOM     15  C   UNL     1     102.073 131.921 142.049  0.00  0.00    +0.000 A 
ATOM     16  C   UNL     1     102.427 132.612 141.770  0.00  0.00    +0.000 A 
ATOM     17  C   UNL     1     101.265 131.909 142.214  0.00  0.00    +0.000 A 
ATOM     18  C   UNL     1     101.973 133.291 141.657  0.00  0.00    +0.000 A 
ATOM     19  C   UNL     1     100.811 132.588 142.100  0.00  0.00    +0.000 A 
ATOM     20  C   UNL     1     101.164 133.280 141.822  0.00  0.00    +0.000 A 
BRANCH  18  21
ATOM     21  O   UNL     1     102.327 133.982 141.379  0.00  0.00    +0.000 OA
ATOM     22  C   UNL     1     103.020 133.941 140.933  0.00  0.00    +0.000 C 
ENDBRANCH  18  21
ENDBRANCH   7  15
BRANCH   8  23
ATOM     23  O   UNL     1     102.943 129.639 140.268  0.00  0.00    +0.000 OA
ATOM     24  C   UNL     1     102.438 129.094 139.911  0.00  0.00    +0.000 C 
ENDBRANCH   8  23
BRANCH  11  25
ATOM     25  O   UNL     1     104.503 127.955 141.970  0.00  0.00    +0.000 OA
ATOM     26  C   UNL     1     105.318 127.979 141.843  0.00  0.00    +0.000 C 
ENDBRANCH  11  25
TORSDOF 4
ENDMDL
MODEL 8
REMARK VINA RESULT:      -7.8     12.791     13.960
REMARK  Name = 12443122
REMARK  4 active torsions:
REMARK  status: ('A' for Active; 'I' for Inactive)
REMARK    1  A    between atoms: O_2  and  C_12
REMARK    2  A    between atoms: O_3  and  C_16
REMARK    3  A    between atoms: O_7  and  C_21
REMARK    4  A    between atoms: C_11  and  C_15
REMARK                            x       y       z     vdW  Elec       q    Type
REMARK                         _______ _______ _______ _____ _____    ______ ____
ROOT
ATOM      1  O   UNL     1     112.637 126.859 136.287  0.00  0.00    +0.000 OA
ATOM      2  O   UNL     1     113.681 124.222 136.867  0.00  0.00    +0.000 OA
ATOM      3  O   UNL     1     110.965 124.527 136.033  0.00  0.00    +0.000 OA
ATOM      4  O   UNL     1     114.551 125.366 137.006  0.00  0.00    +0.000 OA
ATOM      5  C   UNL     1     113.163 125.524 136.580  0.00  0.00    +0.000 A 
ATOM      6  C   UNL     1     112.538 126.008 136.345  0.00  0.00    +0.000 A 
ATOM      7  C   UNL     1     113.398 127.211 136.476  0.00  0.00    +0.000 A 
ATOM      8  C   UNL     1     111.805 125.675 136.163  0.00  0.00    +0.000 A 
ATOM      9  C   UNL     1     113.056 124.707 136.632  0.00  0.00    +0.000 A 
ATOM     10  C   UNL     1     113.931 125.857 136.772  0.00  0.00    +0.000 A 
ATOM     11  C   UNL     1     112.323 124.375 136.450  0.00  0.00    +0.000 A 
ATOM     12  C   UNL     1     111.698 124.859 136.215  0.00  0.00    +0.000 A 
ATOM     13  C   UNL     1     114.049 126.707 136.720  0.00  0.00    +0.000 A 
ENDROOT
BRANCH   7  15
ATOM     14  O   UNL     1     113.816 130.477 136.264  0.00  0.00    +0.000 OA
ATOM     15  C   UNL     1     113.503 128.028 136.423  0.00  0.00    +0.000 A 
ATOM     16  C   UNL     1     113.265 128.515 137.044  0.00  0.00    +0.000 A 
ATOM     17  C   UNL     1     113.846 128.357 135.748  0.00  0.00    +0.000 A 
ATOM     18  C   UNL     1     113.369 129.331 136.991  0.00  0.00    +0.000 A 
ATOM     19  C   UNL     1     113.950 129.174 135.696  0.00  0.00    +0.000 A 
ATOM     20  C   UNL     1     113.712 129.662 136.317  0.00  0.00    +0.000 A 
BRANCH  18  21
ATOM     21  O   UNL     1     113.131 129.819 137.613  0.00  0.00    +0.000 OA
ATOM     22  C   UNL     1     112.465 129.623 138.060  0.00  0.00    +0.000 C 
ENDBRANCH  18  21
ENDBRANCH   7  15
BRANCH   8  23
ATOM     23  O   UNL     1     111.180 126.159 135.929  0.00  0.00    +0.000 OA
ATOM     24  C   UNL     1     110.826 126.049 135.192  0.00  0.00    +0.000 C 
ENDBRANCH   8  23
BRANCH  11  25
ATOM     25  O   UNL     1     112.216 123.558 136.502  0.00  0.00    +0.000 OA
ATOM     26  C   UNL     1     111.913 123.226 137.194  0.00  0.00    +0.000 C 
ENDBRANCH  11  25
TORSDOF 4
ENDMDL
MODEL 9
REMARK VINA RESULT:      -7.7      1.365      4.543
REMARK  Name = 12443122
REMARK  4 active torsions:
REMARK  status: ('A' for Active; 'I' for Inactive)
REMARK    1  A    between atoms: O_2  and  C_12
REMARK    2  A    between atoms: O_3  and  C_16
REMARK    3  A    between atoms: O_7  and  C_21
REMARK    4  A    between atoms: C_11  and  C_15
REMARK                            x       y       z     vdW  Elec       q    Type
REMARK                         _______ _______ _______ _____ _____    ______ ____
ROOT
ATOM      1  O   UNL     1     104.460 124.554 145.795  0.00  0.00    +0.000 OA
ATOM      2  O   UNL     1     106.619 125.141 147.631  0.00  0.00    +0.000 OA
ATOM      3  O   UNL     1     106.764 126.048 144.925  0.00  0.00    +0.000 OA
ATOM      4  O   UNL     1     105.481 124.389 148.105  0.00  0.00    +0.000 OA
ATOM      5  C   UNL     1     105.554 124.852 146.722  0.00  0.00    +0.000 A 
ATOM      6  C   UNL     1     105.223 124.907 145.968  0.00  0.00    +0.000 A 
ATOM      7  C   UNL     1     104.034 124.137 146.415  0.00  0.00    +0.000 A 
ATOM      8  C   UNL     1     105.627 125.306 145.369  0.00  0.00    +0.000 A 
ATOM      9  C   UNL     1     106.288 125.196 146.877  0.00  0.00    +0.000 A 
ATOM     10  C   UNL     1     105.144 124.440 147.354  0.00  0.00    +0.000 A 
ATOM     11  C   UNL     1     106.691 125.594 146.278  0.00  0.00    +0.000 A 
ATOM     12  C   UNL     1     106.360 125.649 145.524  0.00  0.00    +0.000 A 
ATOM     13  C   UNL     1     104.378 124.079 147.200  0.00  0.00    +0.000 A 
ENDROOT
BRANCH   7  15
ATOM     14  O   UNL     1     101.099 122.768 145.786  0.00  0.00    +0.000 OA
ATOM     15  C   UNL     1     103.300 123.794 146.257  0.00  0.00    +0.000 A 
ATOM     16  C   UNL     1     102.609 124.164 146.514  0.00  0.00    +0.000 A 
ATOM     17  C   UNL     1     103.258 123.082 145.843  0.00  0.00    +0.000 A 
ATOM     18  C   UNL     1     101.876 123.822 146.357  0.00  0.00    +0.000 A 
ATOM     19  C   UNL     1     102.523 122.740 145.686  0.00  0.00    +0.000 A 
ATOM     20  C   UNL     1     101.832 123.109 145.943  0.00  0.00    +0.000 A 
BRANCH  18  21
ATOM     21  O   UNL     1     101.184 124.192 146.614  0.00  0.00    +0.000 OA
ATOM     22  C   UNL     1     101.106 124.419 147.404  0.00  0.00    +0.000 C 
ENDBRANCH  18  21
ENDBRANCH   7  15
BRANCH   8  23
ATOM     23  O   UNL     1     105.296 125.361 144.616  0.00  0.00    +0.000 OA
ATOM     24  C   UNL     1     105.725 125.109 143.957  0.00  0.00    +0.000 C 
ENDBRANCH   8  23
BRANCH  11  25
ATOM     25  O   UNL     1     107.425 125.938 146.433  0.00  0.00    +0.000 OA
ATOM     26  C   UNL     1     107.465 126.698 146.750  0.00  0.00    +0.000 C 
ENDBRANCH  11  25
TORSDOF 4
ENDMDL
MODEL 10
REMARK VINA RESULT:      -7.7     12.822     14.212
REMARK  Name = 12443122
REMARK  4 active torsions:
REMARK  status: ('A' for Active; 'I' for Inactive)
REMARK    1  A    between atoms: O_2  and  C_12
REMARK    2  A    between atoms: O_3  and  C_16
REMARK    3  A    between atoms: O_7  and  C_21
REMARK    4  A    between atoms: C_11  and  C_15
REMARK                            x       y       z     vdW  Elec       q    Type
REMARK                         _______ _______ _______ _____ _____    ______ ____
ROOT
ATOM      1  O   UNL     1     113.381 126.805 136.608  0.00  0.00    +0.000 OA
ATOM      2  O   UNL     1     111.189 125.008 136.018  0.00  0.00    +0.000 OA
ATOM      3  O   UNL     1     113.670 123.962 136.976  0.00  0.00    +0.000 OA
ATOM      4  O   UNL     1     111.004 126.426 135.820  0.00  0.00    +0.000 OA
ATOM      5  C   UNL     1     112.273 125.894 136.310  0.00  0.00    +0.000 A 
ATOM      6  C   UNL     1     113.048 126.014 136.567  0.00  0.00    +0.000 A 
ATOM      7  C   UNL     1     112.901 127.480 136.378  0.00  0.00    +0.000 A 
ATOM      8  C   UNL     1     113.513 125.370 136.789  0.00  0.00    +0.000 A 
ATOM      9  C   UNL     1     111.964 125.129 136.275  0.00  0.00    +0.000 A 
ATOM     10  C   UNL     1     111.778 126.556 136.076  0.00  0.00    +0.000 A 
ATOM     11  C   UNL     1     112.430 124.486 136.497  0.00  0.00    +0.000 A 
ATOM     12  C   UNL     1     113.205 124.606 136.754  0.00  0.00    +0.000 A 
ATOM     13  C   UNL     1     112.094 127.354 136.110  0.00  0.00    +0.000 A 
ENDROOT
BRANCH   7  15
ATOM     14  O   UNL     1     114.146 130.532 136.520  0.00  0.00    +0.000 OA
ATOM     15  C   UNL     1     113.212 128.243 136.413  0.00  0.00    +0.000 A 
ATOM     16  C   UNL     1     113.599 128.562 135.758  0.00  0.00    +0.000 A 
ATOM     17  C   UNL     1     113.137 128.687 137.105  0.00  0.00    +0.000 A 
ATOM     18  C   UNL     1     113.910 129.324 135.794  0.00  0.00    +0.000 A 
ATOM     19  C   UNL     1     113.448 129.451 137.140  0.00  0.00    +0.000 A 
ATOM     20  C   UNL     1     113.835 129.770 136.484  0.00  0.00    +0.000 A 
BRANCH  18  21
ATOM     21  O   UNL     1     114.297 129.643 135.138  0.00  0.00    +0.000 OA
ATOM     22  C   UNL     1     114.823 129.180 134.703  0.00  0.00    +0.000 C 
ENDBRANCH  18  21
ENDBRANCH   7  15
BRANCH   8  23
ATOM     23  O   UNL     1     114.288 125.490 137.046  0.00  0.00    +0.000 OA
ATOM     24  C   UNL     1     114.917 125.151 136.635  0.00  0.00    +0.000 C 
ENDBRANCH   8  23
BRANCH  11  25
ATOM     25  O   UNL     1     112.121 123.721 136.462  0.00  0.00    +0.000 OA
ATOM     26  C   UNL     1     111.844 123.357 137.149  0.00  0.00    +0.000 C 
ENDBRANCH  11  25
TORSDOF 4
ENDMDL
