MODEL 1
REMARK VINA RESULT:     -10.9      0.000      0.000
REMARK  Name = 44259620
REMARK  9 active torsions:
REMARK  status: ('A' for Active; 'I' for Inactive)
REMARK    1  A    between atoms: O_1  and  C_16
REMARK    2  A    between atoms: O_1  and  C_19
REMARK    3  A    between atoms: O_5  and  C_24
REMARK    4  A    between atoms: O_5  and  C_28
REMARK    5  A    between atoms: O_13  and  C_36
REMARK    6  A    between atoms: O_15  and  C_44
REMARK    7  A    between atoms: C_29  and  C_33
REMARK    8  A    between atoms: C_34  and  C_37
REMARK    9  A    between atoms: C_37  and  C_43
REMARK                            x       y       z     vdW  Elec       q    Type
REMARK                         _______ _______ _______ _____ _____    ______ ____
ROOT
ATOM      1  O   UNL     1     112.819 126.890 136.355  0.00  0.00    +0.000 OA
ATOM      2  O   UNL     1     110.600 127.194 135.300  0.00  0.00    +0.000 OA
ATOM      3  O   UNL     1     110.287 125.799 135.490  0.00  0.00    +0.000 OA
ATOM      4  C   UNL     1     111.853 127.735 135.727  0.00  0.00    +0.000 A 
ATOM      5  C   UNL     1     112.592 127.634 136.079  0.00  0.00    +0.000 A 
ATOM      6  C   UNL     1     111.340 127.093 135.651  0.00  0.00    +0.000 A 
ATOM      7  C   UNL     1     111.567 126.349 135.927  0.00  0.00    +0.000 A 
ATOM      8  C   UNL     1     112.307 126.248 136.279  0.00  0.00    +0.000 A 
ATOM      9  C   UNL     1     112.555 125.478 136.570  0.00  0.00    +0.000 A 
ATOM     10  C   UNL     1     111.025 125.688 135.843  0.00  0.00    +0.000 A 
ATOM     11  C   UNL     1     112.026 124.806 136.494  0.00  0.00    +0.000 A 
ATOM     12  C   UNL     1     111.256 124.911 136.128  0.00  0.00    +0.000 A 
ENDROOT
BRANCH   5  14
ATOM     13  O   UNL     1     113.802 129.657 137.694  0.00  0.00    +0.000 OA
ATOM     14  C   UNL     1     113.104 128.275 136.155  0.00  0.00    +0.000 A 
ATOM     15  C   UNL     1     113.197 128.645 136.886  0.00  0.00    +0.000 A 
ATOM     16  C   UNL     1     113.524 128.549 135.499  0.00  0.00    +0.000 A 
ATOM     17  C   UNL     1     113.709 129.288 136.963  0.00  0.00    +0.000 A 
ATOM     18  C   UNL     1     114.036 129.191 135.575  0.00  0.00    +0.000 A 
ATOM     19  C   UNL     1     114.128 129.560 136.307  0.00  0.00    +0.000 A 
BRANCH  19  20
ATOM     20  O   UNL     1     114.641 130.203 136.383  0.00  0.00    +0.000 OA
ATOM     21  C   UNL     1     115.051 130.484 135.724  0.00  0.00    +0.000 C 
ENDBRANCH  19  20
ENDBRANCH   5  14
BRANCH  11  22
ATOM     22  O   UNL     1     112.255 124.063 136.770  0.00  0.00    +0.000 OA
ATOM     23  C   UNL     1     111.694 123.467 136.868  0.00  0.00    +0.000 C 
ENDBRANCH  11  22
BRANCH   4  24
ATOM     24  O   UNL     1     111.625 128.479 135.452  0.00  0.00    +0.000 OA
BRANCH  24  32
ATOM     25  O   UNL     1     110.778 128.694 136.581  0.00  0.00    +0.000 OA
ATOM     26  O   UNL     1     109.542 130.431 135.322  0.00  0.00    +0.000 OA
ATOM     27  O   UNL     1     110.802 129.636 134.612  0.00  0.00    +0.000 OA
ATOM     28  C   UNL     1     109.736 129.670 136.517  0.00  0.00    +0.000 C 
ATOM     29  C   UNL     1     109.954 129.852 135.741  0.00  0.00    +0.000 C 
ATOM     30  C   UNL     1     110.148 129.092 136.936  0.00  0.00    +0.000 C 
ATOM     31  C   UNL     1     110.584 129.455 135.386  0.00  0.00    +0.000 C 
ATOM     32  C   UNL     1     110.995 128.876 135.807  0.00  0.00    +0.000 C 
ATOM     33  C   UNL     1     109.929 128.910 137.711  0.00  0.00    +0.000 C 
BRANCH  28  34
ATOM     34  O   UNL     1     109.106 130.068 136.872  0.00  0.00    +0.000 OA
BRANCH  34  39
ATOM     35  O   UNL     1     110.004 131.031 137.426  0.00  0.00    +0.000 OA
ATOM     36  O   UNL     1     107.826 131.020 137.292  0.00  0.00    +0.000 OA
ATOM     37  O   UNL     1     108.084 132.459 138.057  0.00  0.00    +0.000 OA
ATOM     38  O   UNL     1     109.622 132.946 138.401  0.00  0.00    +0.000 OA
ATOM     39  C   UNL     1     109.235 130.787 137.254  0.00  0.00    +0.000 C 
ATOM     40  C   UNL     1     108.595 131.263 137.464  0.00  0.00    +0.000 C 
ATOM     41  C   UNL     1     108.724 131.983 137.847  0.00  0.00    +0.000 C 
ATOM     42  C   UNL     1     109.493 132.226 138.018  0.00  0.00    +0.000 C 
ATOM     43  C   UNL     1     110.133 131.750 137.808  0.00  0.00    +0.000 C 
ATOM     44  C   UNL     1     110.903 131.994 137.981  0.00  0.00    +0.000 C 
ENDBRANCH  34  39
ENDBRANCH  28  34
ENDBRANCH  24  32
ENDBRANCH   4  24
BRANCH   9  45
ATOM     45  C   UNL     1     113.296 125.386 136.920  0.00  0.00    +0.000 C 
BRANCH  45  46
ATOM     46  C   UNL     1     113.929 125.096 136.476  0.00  0.00    +0.000 C 
ATOM     47  C   UNL     1     114.675 125.025 136.820  0.00  0.00    +0.000 C 
ATOM     48  C   UNL     1     115.307 124.735 136.376  0.00  0.00    +0.000 C 
ATOM     49  C   UNL     1     114.790 125.243 137.607  0.00  0.00    +0.000 C 
ENDBRANCH  45  46
ENDBRANCH   9  45
TORSDOF 9
ENDMDL
MODEL 2
REMARK VINA RESULT:     -10.5      1.177      1.391
REMARK  Name = 44259620
REMARK  9 active torsions:
REMARK  status: ('A' for Active; 'I' for Inactive)
REMARK    1  A    between atoms: O_1  and  C_16
REMARK    2  A    between atoms: O_1  and  C_19
REMARK    3  A    between atoms: O_5  and  C_24
REMARK    4  A    between atoms: O_5  and  C_28
REMARK    5  A    between atoms: O_13  and  C_36
REMARK    6  A    between atoms: O_15  and  C_44
REMARK    7  A    between atoms: C_29  and  C_33
REMARK    8  A    between atoms: C_34  and  C_37
REMARK    9  A    between atoms: C_37  and  C_43
REMARK                            x       y       z     vdW  Elec       q    Type
REMARK                         _______ _______ _______ _____ _____    ______ ____
ROOT
ATOM      1  O   UNL     1     112.608 126.765 136.194  0.00  0.00    +0.000 OA
ATOM      2  O   UNL     1     110.147 127.019 136.147  0.00  0.00    +0.000 OA
ATOM      3  O   UNL     1     109.969 125.590 136.239  0.00  0.00    +0.000 OA
ATOM      4  C   UNL     1     111.452 127.602 136.125  0.00  0.00    +0.000 A 
ATOM      5  C   UNL     1     112.272 127.517 136.140  0.00  0.00    +0.000 A 
ATOM      6  C   UNL     1     110.967 126.934 136.163  0.00  0.00    +0.000 A 
ATOM      7  C   UNL     1     111.304 126.183 136.217  0.00  0.00    +0.000 A 
ATOM      8  C   UNL     1     112.124 126.099 136.232  0.00  0.00    +0.000 A 
ATOM      9  C   UNL     1     112.487 125.321 136.288  0.00  0.00    +0.000 A 
ATOM     10  C   UNL     1     110.789 125.496 136.256  0.00  0.00    +0.000 A 
ATOM     11  C   UNL     1     111.988 124.623 136.328  0.00  0.00    +0.000 A 
ATOM     12  C   UNL     1     111.133 124.711 136.312  0.00  0.00    +0.000 A 
ENDROOT
BRANCH   5  14
ATOM     13  O   UNL     1     113.522 129.584 134.613  0.00  0.00    +0.000 OA
ATOM     14  C   UNL     1     112.756 128.184 136.102  0.00  0.00    +0.000 A 
ATOM     15  C   UNL     1     112.897 128.550 135.377  0.00  0.00    +0.000 A 
ATOM     16  C   UNL     1     113.099 128.485 136.790  0.00  0.00    +0.000 A 
ATOM     17  C   UNL     1     113.381 129.217 135.338  0.00  0.00    +0.000 A 
ATOM     18  C   UNL     1     113.583 129.152 136.752  0.00  0.00    +0.000 A 
ATOM     19  C   UNL     1     113.724 129.518 136.026  0.00  0.00    +0.000 A 
BRANCH  19  20
ATOM     20  O   UNL     1     114.208 130.185 135.988  0.00  0.00    +0.000 OA
ATOM     21  C   UNL     1     114.413 130.587 136.678  0.00  0.00    +0.000 C 
ENDBRANCH  19  20
ENDBRANCH   5  14
BRANCH  11  22
ATOM     22  O   UNL     1     112.327 123.873 136.382  0.00  0.00    +0.000 OA
ATOM     23  C   UNL     1     111.846 123.205 136.429  0.00  0.00    +0.000 C 
ENDBRANCH  11  22
BRANCH   4  24
ATOM     24  O   UNL     1     111.115 128.353 136.071  0.00  0.00    +0.000 OA
BRANCH  24  32
ATOM     25  O   UNL     1     110.724 128.357 137.445  0.00  0.00    +0.000 OA
ATOM     26  O   UNL     1     108.947 130.003 136.935  0.00  0.00    +0.000 OA
ATOM     27  O   UNL     1     109.930 129.450 135.731  0.00  0.00    +0.000 OA
ATOM     28  C   UNL     1     109.640 129.182 137.877  0.00  0.00    +0.000 C 
ATOM     29  C   UNL     1     109.540 129.454 137.104  0.00  0.00    +0.000 C 
ATOM     30  C   UNL     1     110.233 128.634 138.047  0.00  0.00    +0.000 C 
ATOM     31  C   UNL     1     110.031 129.178 136.502  0.00  0.00    +0.000 C 
ATOM     32  C   UNL     1     110.623 128.629 136.673  0.00  0.00    +0.000 C 
ATOM     33  C   UNL     1     110.334 128.361 138.820  0.00  0.00    +0.000 C 
BRANCH  28  34
ATOM     34  O   UNL     1     109.149 129.458 138.480  0.00  0.00    +0.000 OA
BRANCH  34  39
ATOM     35  O   UNL     1     110.045 130.544 138.724  0.00  0.00    +0.000 OA
ATOM     36  O   UNL     1     108.285 129.869 139.824  0.00  0.00    +0.000 OA
ATOM     37  O   UNL     1     108.749 131.160 140.741  0.00  0.00    +0.000 OA
ATOM     38  O   UNL     1     110.078 132.041 140.312  0.00  0.00    +0.000 OA
ATOM     39  C   UNL     1     109.381 130.104 138.937  0.00  0.00    +0.000 C 
ATOM     40  C   UNL     1     108.949 130.309 139.610  0.00  0.00    +0.000 C 
ATOM     41  C   UNL     1     109.181 130.955 140.068  0.00  0.00    +0.000 C 
ATOM     42  C   UNL     1     109.845 131.395 139.854  0.00  0.00    +0.000 C 
ATOM     43  C   UNL     1     110.277 131.189 139.181  0.00  0.00    +0.000 C 
ATOM     44  C   UNL     1     110.941 131.630 138.968  0.00  0.00    +0.000 C 
ENDBRANCH  34  39
ENDBRANCH  28  34
ENDBRANCH  24  32
ENDBRANCH   4  24
BRANCH   9  45
ATOM     45  C   UNL     1     113.308 125.247 136.304  0.00  0.00    +0.000 C 
BRANCH  45  46
ATOM     46  C   UNL     1     113.696 125.105 137.018  0.00  0.00    +0.000 C 
ATOM     47  C   UNL     1     114.520 125.070 137.040  0.00  0.00    +0.000 C 
ATOM     48  C   UNL     1     114.907 124.929 137.754  0.00  0.00    +0.000 C 
ATOM     49  C   UNL     1     114.956 125.176 136.348  0.00  0.00    +0.000 C 
ENDBRANCH  45  46
ENDBRANCH   9  45
TORSDOF 9
ENDMDL
MODEL 3
REMARK VINA RESULT:     -10.4      1.405      1.849
REMARK  Name = 44259620
REMARK  9 active torsions:
REMARK  status: ('A' for Active; 'I' for Inactive)
REMARK    1  A    between atoms: O_1  and  C_16
REMARK    2  A    between atoms: O_1  and  C_19
REMARK    3  A    between atoms: O_5  and  C_24
REMARK    4  A    between atoms: O_5  and  C_28
REMARK    5  A    between atoms: O_13  and  C_36
REMARK    6  A    between atoms: O_15  and  C_44
REMARK    7  A    between atoms: C_29  and  C_33
REMARK    8  A    between atoms: C_34  and  C_37
REMARK    9  A    between atoms: C_37  and  C_43
REMARK                            x       y       z     vdW  Elec       q    Type
REMARK                         _______ _______ _______ _____ _____    ______ ____
ROOT
ATOM      1  O   UNL     1     112.493 127.084 137.274  0.00  0.00    +0.000 OA
ATOM      2  O   UNL     1     110.159 127.206 138.091  0.00  0.00    +0.000 OA
ATOM      3  O   UNL     1     109.960 125.805 137.814  0.00  0.00    +0.000 OA
ATOM      4  C   UNL     1     111.413 127.841 137.824  0.00  0.00    +0.000 A 
ATOM      5  C   UNL     1     112.190 127.800 137.552  0.00  0.00    +0.000 A 
ATOM      6  C   UNL     1     110.937 127.166 137.819  0.00  0.00    +0.000 A 
ATOM      7  C   UNL     1     111.241 126.451 137.541  0.00  0.00    +0.000 A 
ATOM      8  C   UNL     1     112.019 126.410 137.269  0.00  0.00    +0.000 A 
ATOM      9  C   UNL     1     112.346 125.670 136.977  0.00  0.00    +0.000 A 
ATOM     10  C   UNL     1     110.736 125.755 137.540  0.00  0.00    +0.000 A 
ATOM     11  C   UNL     1     111.856 124.965 136.969  0.00  0.00    +0.000 A 
ATOM     12  C   UNL     1     111.046 125.007 137.252  0.00  0.00    +0.000 A 
ENDROOT
BRANCH   5  14
ATOM     13  O   UNL     1     113.776 129.698 138.983  0.00  0.00    +0.000 OA
ATOM     14  C   UNL     1     112.665 128.474 137.558  0.00  0.00    +0.000 A 
ATOM     15  C   UNL     1     112.983 128.749 138.267  0.00  0.00    +0.000 A 
ATOM     16  C   UNL     1     112.821 128.876 136.854  0.00  0.00    +0.000 A 
ATOM     17  C   UNL     1     113.458 129.424 138.273  0.00  0.00    +0.000 A 
ATOM     18  C   UNL     1     113.295 129.550 136.859  0.00  0.00    +0.000 A 
ATOM     19  C   UNL     1     113.614 129.824 137.569  0.00  0.00    +0.000 A 
BRANCH  19  20
ATOM     20  O   UNL     1     114.089 130.499 137.575  0.00  0.00    +0.000 OA
ATOM     21  C   UNL     1     114.214 130.922 136.878  0.00  0.00    +0.000 C 
ENDBRANCH  19  20
ENDBRANCH   5  14
BRANCH  11  22
ATOM     22  O   UNL     1     112.162 124.251 136.691  0.00  0.00    +0.000 OA
ATOM     23  C   UNL     1     111.656 123.620 136.528  0.00  0.00    +0.000 C 
ENDBRANCH  11  22
BRANCH   4  24
ATOM     24  O   UNL     1     111.109 128.556 138.102  0.00  0.00    +0.000 OA
BRANCH  24  32
ATOM     25  O   UNL     1     110.315 128.769 136.934  0.00  0.00    +0.000 OA
ATOM     26  O   UNL     1     108.749 130.161 138.251  0.00  0.00    +0.000 OA
ATOM     27  O   UNL     1     110.065 129.484 138.981  0.00  0.00    +0.000 OA
ATOM     28  C   UNL     1     109.135 129.572 137.008  0.00  0.00    +0.000 C 
ATOM     29  C   UNL     1     109.271 129.697 137.813  0.00  0.00    +0.000 C 
ATOM     30  C   UNL     1     109.657 129.108 136.569  0.00  0.00    +0.000 C 
ATOM     31  C   UNL     1     109.929 129.359 138.177  0.00  0.00    +0.000 C 
ATOM     32  C   UNL     1     110.451 128.895 137.737  0.00  0.00    +0.000 C 
ATOM     33  C   UNL     1     109.521 128.983 135.764  0.00  0.00    +0.000 C 
BRANCH  28  34
ATOM     34  O   UNL     1     108.477 129.911 136.643  0.00  0.00    +0.000 OA
BRANCH  34  39
ATOM     35  O   UNL     1     109.239 131.084 136.351  0.00  0.00    +0.000 OA
ATOM     36  O   UNL     1     107.200 130.531 135.802  0.00  0.00    +0.000 OA
ATOM     37  O   UNL     1     107.324 132.014 135.089  0.00  0.00    +0.000 OA
ATOM     38  O   UNL     1     108.725 132.877 135.217  0.00  0.00    +0.000 OA
ATOM     39  C   UNL     1     108.539 130.652 136.287  0.00  0.00    +0.000 C 
ATOM     40  C   UNL     1     107.901 130.962 135.866  0.00  0.00    +0.000 C 
ATOM     41  C   UNL     1     107.963 131.704 135.510  0.00  0.00    +0.000 C 
ATOM     42  C   UNL     1     108.663 132.134 135.574  0.00  0.00    +0.000 C 
ATOM     43  C   UNL     1     109.301 131.824 135.995  0.00  0.00    +0.000 C 
ATOM     44  C   UNL     1     110.002 132.256 136.059  0.00  0.00    +0.000 C 
ENDBRANCH  34  39
ENDBRANCH  28  34
ENDBRANCH  24  32
ENDBRANCH   4  24
BRANCH   9  45
ATOM     45  C   UNL     1     113.125 125.640 136.707  0.00  0.00    +0.000 C 
BRANCH  45  46
ATOM     46  C   UNL     1     113.702 125.258 137.157  0.00  0.00    +0.000 C 
ATOM     47  C   UNL     1     114.486 125.251 136.900  0.00  0.00    +0.000 C 
ATOM     48  C   UNL     1     115.063 124.869 137.350  0.00  0.00    +0.000 C 
ATOM     49  C   UNL     1     114.693 125.625 136.195  0.00  0.00    +0.000 C 
ENDBRANCH  45  46
ENDBRANCH   9  45
TORSDOF 9
ENDMDL
MODEL 4
REMARK VINA RESULT:     -10.2      2.081      3.098
REMARK  Name = 44259620
REMARK  9 active torsions:
REMARK  status: ('A' for Active; 'I' for Inactive)
REMARK    1  A    between atoms: O_1  and  C_16
REMARK    2  A    between atoms: O_1  and  C_19
REMARK    3  A    between atoms: O_5  and  C_24
REMARK    4  A    between atoms: O_5  and  C_28
REMARK    5  A    between atoms: O_13  and  C_36
REMARK    6  A    between atoms: O_15  and  C_44
REMARK    7  A    between atoms: C_29  and  C_33
REMARK    8  A    between atoms: C_34  and  C_37
REMARK    9  A    between atoms: C_37  and  C_43
REMARK                            x       y       z     vdW  Elec       q    Type
REMARK                         _______ _______ _______ _____ _____    ______ ____
ROOT
ATOM      1  O   UNL     1     111.575 126.419 137.769  0.00  0.00    +0.000 OA
ATOM      2  O   UNL     1     109.745 128.085 137.811  0.00  0.00    +0.000 OA
ATOM      3  O   UNL     1     109.187 127.544 136.596  0.00  0.00    +0.000 OA
ATOM      4  C   UNL     1     110.927 127.529 138.393  0.00  0.00    +0.000 A 
ATOM      5  C   UNL     1     111.537 126.974 138.379  0.00  0.00    +0.000 A 
ATOM      6  C   UNL     1     110.355 127.529 137.797  0.00  0.00    +0.000 A 
ATOM      7  C   UNL     1     110.394 126.974 137.188  0.00  0.00    +0.000 A 
ATOM      8  C   UNL     1     111.004 126.419 137.174  0.00  0.00    +0.000 A 
ATOM      9  C   UNL     1     111.055 125.835 136.545  0.00  0.00    +0.000 A 
ATOM     10  C   UNL     1     109.793 126.984 136.574  0.00  0.00    +0.000 A 
ATOM     11  C   UNL     1     110.463 125.831 135.922  0.00  0.00    +0.000 A 
ATOM     12  C   UNL     1     109.828 126.409 135.937  0.00  0.00    +0.000 A 
ENDROOT
BRANCH   5  14
ATOM     13  O   UNL     1     112.316 126.367 141.061  0.00  0.00    +0.000 OA
ATOM     14  C   UNL     1     112.107 126.973 138.973  0.00  0.00    +0.000 A 
ATOM     15  C   UNL     1     111.926 126.670 139.719  0.00  0.00    +0.000 A 
ATOM     16  C   UNL     1     112.860 127.276 138.824  0.00  0.00    +0.000 A 
ATOM     17  C   UNL     1     112.497 126.670 140.315  0.00  0.00    +0.000 A 
ATOM     18  C   UNL     1     113.431 127.276 139.419  0.00  0.00    +0.000 A 
ATOM     19  C   UNL     1     113.249 126.973 140.164  0.00  0.00    +0.000 A 
BRANCH  19  20
ATOM     20  O   UNL     1     113.821 126.973 140.760  0.00  0.00    +0.000 OA
ATOM     21  C   UNL     1     114.549 127.341 140.634  0.00  0.00    +0.000 C 
ENDBRANCH  19  20
ENDBRANCH   5  14
BRANCH  11  22
ATOM     22  O   UNL     1     110.504 125.275 135.314  0.00  0.00    +0.000 OA
ATOM     23  C   UNL     1     110.089 125.399 134.613  0.00  0.00    +0.000 C 
ENDBRANCH  11  22
BRANCH   4  24
ATOM     24  O   UNL     1     110.887 128.084 139.001  0.00  0.00    +0.000 OA
BRANCH  24  32
ATOM     25  O   UNL     1     111.371 129.173 138.214  0.00  0.00    +0.000 OA
ATOM     26  O   UNL     1     109.977 130.742 139.527  0.00  0.00    +0.000 OA
ATOM     27  O   UNL     1     109.958 129.129 139.877  0.00  0.00    +0.000 OA
ATOM     28  C   UNL     1     110.916 130.503 138.476  0.00  0.00    +0.000 C 
ATOM     29  C   UNL     1     110.442 130.219 139.090  0.00  0.00    +0.000 C 
ATOM     30  C   UNL     1     111.380 129.980 138.039  0.00  0.00    +0.000 C 
ATOM     31  C   UNL     1     110.432 129.412 139.265  0.00  0.00    +0.000 C 
ATOM     32  C   UNL     1     110.897 128.890 138.826  0.00  0.00    +0.000 C 
ATOM     33  C   UNL     1     111.855 130.264 137.426  0.00  0.00    +0.000 C 
BRANCH  28  34
ATOM     34  O   UNL     1     110.926 131.309 138.301  0.00  0.00    +0.000 OA
BRANCH  34  39
ATOM     35  O   UNL     1     109.804 131.149 137.431  0.00  0.00    +0.000 OA
ATOM     36  O   UNL     1     111.156 132.837 137.725  0.00  0.00    +0.000 OA
ATOM     37  O   UNL     1     110.149 133.442 136.565  0.00  0.00    +0.000 OA
ATOM     38  O   UNL     1     108.912 132.518 135.983  0.00  0.00    +0.000 OA
ATOM     39  C   UNL     1     110.423 131.611 137.722  0.00  0.00    +0.000 C 
ATOM     40  C   UNL     1     110.538 132.375 137.434  0.00  0.00    +0.000 C 
ATOM     41  C   UNL     1     110.034 132.678 136.854  0.00  0.00    +0.000 C 
ATOM     42  C   UNL     1     109.416 132.215 136.563  0.00  0.00    +0.000 C 
ATOM     43  C   UNL     1     109.301 131.451 136.852  0.00  0.00    +0.000 C 
ATOM     44  C   UNL     1     108.682 130.989 136.560  0.00  0.00    +0.000 C 
ENDBRANCH  34  39
ENDBRANCH  28  34
ENDBRANCH  24  32
ENDBRANCH   4  24
BRANCH   9  45
ATOM     45  C   UNL     1     111.668 125.284 136.539  0.00  0.00    +0.000 C 
BRANCH  45  46
ATOM     46  C   UNL     1     111.534 124.515 136.807  0.00  0.00    +0.000 C 
ATOM     47  C   UNL     1     112.156 123.973 136.833  0.00  0.00    +0.000 C 
ATOM     48  C   UNL     1     112.021 123.204 137.101  0.00  0.00    +0.000 C 
ATOM     49  C   UNL     1     112.911 124.200 136.592  0.00  0.00    +0.000 C 
ENDBRANCH  45  46
ENDBRANCH   9  45
TORSDOF 9
ENDMDL
MODEL 5
REMARK VINA RESULT:     -10.1      2.084      3.887
REMARK  Name = 44259620
REMARK  9 active torsions:
REMARK  status: ('A' for Active; 'I' for Inactive)
REMARK    1  A    between atoms: O_1  and  C_16
REMARK    2  A    between atoms: O_1  and  C_19
REMARK    3  A    between atoms: O_5  and  C_24
REMARK    4  A    between atoms: O_5  and  C_28
REMARK    5  A    between atoms: O_13  and  C_36
REMARK    6  A    between atoms: O_15  and  C_44
REMARK    7  A    between atoms: C_29  and  C_33
REMARK    8  A    between atoms: C_34  and  C_37
REMARK    9  A    between atoms: C_37  and  C_43
REMARK                            x       y       z     vdW  Elec       q    Type
REMARK                         _______ _______ _______ _____ _____    ______ ____
ROOT
ATOM      1  O   UNL     1     112.821 127.938 138.794  0.00  0.00    +0.000 OA
ATOM      2  O   UNL     1     112.647 129.758 137.125  0.00  0.00    +0.000 OA
ATOM      3  O   UNL     1     113.251 130.694 138.041  0.00  0.00    +0.000 OA
ATOM      4  C   UNL     1     112.434 128.394 137.496  0.00  0.00    +0.000 A 
ATOM      5  C   UNL     1     112.492 127.787 138.053  0.00  0.00    +0.000 A 
ATOM      6  C   UNL     1     112.705 129.151 137.681  0.00  0.00    +0.000 A 
ATOM      7  C   UNL     1     113.034 129.301 138.423  0.00  0.00    +0.000 A 
ATOM      8  C   UNL     1     113.092 128.694 138.979  0.00  0.00    +0.000 A 
ATOM      9  C   UNL     1     113.434 128.839 139.755  0.00  0.00    +0.000 A 
ATOM     10  C   UNL     1     113.314 130.093 138.604  0.00  0.00    +0.000 A 
ATOM     11  C   UNL     1     113.718 129.624 139.953  0.00  0.00    +0.000 A 
ATOM     12  C   UNL     1     113.657 130.256 139.374  0.00  0.00    +0.000 A 
ENDROOT
BRANCH   5  14
ATOM     13  O   UNL     1     110.545 125.715 138.346  0.00  0.00    +0.000 OA
ATOM     14  C   UNL     1     112.221 127.031 137.867  0.00  0.00    +0.000 A 
ATOM     15  C   UNL     1     111.519 126.752 138.200  0.00  0.00    +0.000 A 
ATOM     16  C   UNL     1     112.650 126.553 137.350  0.00  0.00    +0.000 A 
ATOM     17  C   UNL     1     111.247 125.995 138.014  0.00  0.00    +0.000 A 
ATOM     18  C   UNL     1     112.379 125.797 137.165  0.00  0.00    +0.000 A 
ATOM     19  C   UNL     1     111.677 125.518 137.497  0.00  0.00    +0.000 A 
BRANCH  19  20
ATOM     20  O   UNL     1     111.406 124.760 137.312  0.00  0.00    +0.000 OA
ATOM     21  C   UNL     1     111.806 124.303 136.754  0.00  0.00    +0.000 C 
ENDBRANCH  19  20
ENDBRANCH   5  14
BRANCH  11  22
ATOM     22  O   UNL     1     114.047 129.772 140.695  0.00  0.00    +0.000 OA
ATOM     23  C   UNL     1     114.215 130.545 140.926  0.00  0.00    +0.000 C 
ENDBRANCH  11  22
BRANCH   4  24
ATOM     24  O   UNL     1     112.105 128.244 136.755  0.00  0.00    +0.000 OA
BRANCH  24  32
ATOM     25  O   UNL     1     110.837 128.837 137.042  0.00  0.00    +0.000 OA
ATOM     26  O   UNL     1     110.648 129.575 134.687  0.00  0.00    +0.000 OA
ATOM     27  O   UNL     1     111.979 128.736 135.185  0.00  0.00    +0.000 OA
ATOM     28  C   UNL     1     110.109 129.503 136.008  0.00  0.00    +0.000 C 
ATOM     29  C   UNL     1     110.712 129.329 135.472  0.00  0.00    +0.000 C 
ATOM     30  C   UNL     1     110.172 129.257 136.793  0.00  0.00    +0.000 C 
ATOM     31  C   UNL     1     111.377 128.909 135.721  0.00  0.00    +0.000 C 
ATOM     32  C   UNL     1     111.439 128.664 136.506  0.00  0.00    +0.000 C 
ATOM     33  C   UNL     1     109.569 129.431 137.329  0.00  0.00    +0.000 C 
BRANCH  28  34
ATOM     34  O   UNL     1     109.443 129.923 135.759  0.00  0.00    +0.000 OA
BRANCH  34  39
ATOM     35  O   UNL     1     109.989 131.159 136.222  0.00  0.00    +0.000 OA
ATOM     36  O   UNL     1     108.408 130.748 134.775  0.00  0.00    +0.000 OA
ATOM     37  O   UNL     1     108.436 132.398 134.746  0.00  0.00    +0.000 OA
ATOM     38  O   UNL     1     109.500 133.222 135.701  0.00  0.00    +0.000 OA
ATOM     39  C   UNL     1     109.458 130.747 135.745  0.00  0.00    +0.000 C 
ATOM     40  C   UNL     1     108.940 131.159 135.253  0.00  0.00    +0.000 C 
ATOM     41  C   UNL     1     108.954 131.985 135.238  0.00  0.00    +0.000 C 
ATOM     42  C   UNL     1     109.486 132.396 135.716  0.00  0.00    +0.000 C 
ATOM     43  C   UNL     1     110.004 131.983 136.208  0.00  0.00    +0.000 C 
ATOM     44  C   UNL     1     110.535 132.396 136.686  0.00  0.00    +0.000 C 
ENDBRANCH  34  39
ENDBRANCH  28  34
ENDBRANCH  24  32
ENDBRANCH   4  24
BRANCH   9  45
ATOM     45  C   UNL     1     113.487 128.226 140.305  0.00  0.00    +0.000 C 
BRANCH  45  46
ATOM     46  C   UNL     1     114.208 127.843 140.426  0.00  0.00    +0.000 C 
ATOM     47  C   UNL     1     114.250 127.193 140.932  0.00  0.00    +0.000 C 
ATOM     48  C   UNL     1     114.971 126.810 141.053  0.00  0.00    +0.000 C 
ATOM     49  C   UNL     1     113.571 126.925 141.317  0.00  0.00    +0.000 C 
ENDBRANCH  45  46
ENDBRANCH   9  45
TORSDOF 9
ENDMDL
MODEL 6
REMARK VINA RESULT:     -10.0      1.901      3.631
REMARK  Name = 44259620
REMARK  9 active torsions:
REMARK  status: ('A' for Active; 'I' for Inactive)
REMARK    1  A    between atoms: O_1  and  C_16
REMARK    2  A    between atoms: O_1  and  C_19
REMARK    3  A    between atoms: O_5  and  C_24
REMARK    4  A    between atoms: O_5  and  C_28
REMARK    5  A    between atoms: O_13  and  C_36
REMARK    6  A    between atoms: O_15  and  C_44
REMARK    7  A    between atoms: C_29  and  C_33
REMARK    8  A    between atoms: C_34  and  C_37
REMARK    9  A    between atoms: C_37  and  C_43
REMARK                            x       y       z     vdW  Elec       q    Type
REMARK                         _______ _______ _______ _____ _____    ______ ____
ROOT
ATOM      1  O   UNL     1     112.017 127.544 137.575  0.00  0.00    +0.000 OA
ATOM      2  O   UNL     1     111.592 129.979 137.462  0.00  0.00    +0.000 OA
ATOM      3  O   UNL     1     112.695 130.158 136.550  0.00  0.00    +0.000 OA
ATOM      4  C   UNL     1     111.255 128.686 137.970  0.00  0.00    +0.000 A 
ATOM      5  C   UNL     1     111.397 127.874 138.008  0.00  0.00    +0.000 A 
ATOM      6  C   UNL     1     111.734 129.168 137.499  0.00  0.00    +0.000 A 
ATOM      7  C   UNL     1     112.353 128.836 137.067  0.00  0.00    +0.000 A 
ATOM      8  C   UNL     1     112.495 128.024 137.105  0.00  0.00    +0.000 A 
ATOM      9  C   UNL     1     113.138 127.667 136.659  0.00  0.00    +0.000 A 
ATOM     10  C   UNL     1     112.845 129.347 136.581  0.00  0.00    +0.000 A 
ATOM     11  C   UNL     1     113.639 128.163 136.168  0.00  0.00    +0.000 A 
ATOM     12  C   UNL     1     113.491 129.008 136.129  0.00  0.00    +0.000 A 
ENDROOT
BRANCH   5  14
ATOM     13  O   UNL     1     109.278 125.972 138.250  0.00  0.00    +0.000 OA
ATOM     14  C   UNL     1     110.919 127.394 138.477  0.00  0.00    +0.000 A 
ATOM     15  C   UNL     1     110.338 126.924 138.129  0.00  0.00    +0.000 A 
ATOM     16  C   UNL     1     111.022 127.384 139.296  0.00  0.00    +0.000 A 
ATOM     17  C   UNL     1     109.859 126.443 138.599  0.00  0.00    +0.000 A 
ATOM     18  C   UNL     1     110.544 126.903 139.766  0.00  0.00    +0.000 A 
ATOM     19  C   UNL     1     109.963 126.433 139.417  0.00  0.00    +0.000 A 
BRANCH  19  20
ATOM     20  O   UNL     1     109.484 125.952 139.887  0.00  0.00    +0.000 OA
ATOM     21  C   UNL     1     109.531 126.001 140.710  0.00  0.00    +0.000 C 
ENDBRANCH  19  20
ENDBRANCH   5  14
BRANCH  11  22
ATOM     22  O   UNL     1     114.258 127.829 135.737  0.00  0.00    +0.000 OA
ATOM     23  C   UNL     1     114.669 128.283 135.186  0.00  0.00    +0.000 C 
ENDBRANCH  11  22
BRANCH   4  24
ATOM     24  O   UNL     1     110.636 129.018 138.402  0.00  0.00    +0.000 OA
BRANCH  24  32
ATOM     25  O   UNL     1     109.782 129.145 137.264  0.00  0.00    +0.000 OA
ATOM     26  O   UNL     1     108.641 131.063 138.334  0.00  0.00    +0.000 OA
ATOM     27  O   UNL     1     109.876 130.297 139.115  0.00  0.00    +0.000 OA
ATOM     28  C   UNL     1     108.784 130.167 137.230  0.00  0.00    +0.000 C 
ATOM     29  C   UNL     1     109.022 130.424 137.978  0.00  0.00    +0.000 C 
ATOM     30  C   UNL     1     109.164 129.528 136.874  0.00  0.00    +0.000 C 
ATOM     31  C   UNL     1     109.639 130.041 138.369  0.00  0.00    +0.000 C 
ATOM     32  C   UNL     1     110.019 129.401 138.011  0.00  0.00    +0.000 C 
ATOM     33  C   UNL     1     108.926 129.271 136.126  0.00  0.00    +0.000 C 
BRANCH  28  34
ATOM     34  O   UNL     1     108.166 130.551 136.839  0.00  0.00    +0.000 OA
BRANCH  34  39
ATOM     35  O   UNL     1     109.062 131.529 136.307  0.00  0.00    +0.000 OA
ATOM     36  O   UNL     1     107.034 130.976 135.717  0.00  0.00    +0.000 OA
ATOM     37  O   UNL     1     107.363 132.167 134.624  0.00  0.00    +0.000 OA
ATOM     38  O   UNL     1     108.824 132.933 134.652  0.00  0.00    +0.000 OA
ATOM     39  C   UNL     1     108.331 131.146 136.293  0.00  0.00    +0.000 C 
ATOM     40  C   UNL     1     107.765 131.358 135.732  0.00  0.00    +0.000 C 
ATOM     41  C   UNL     1     107.929 131.954 135.185  0.00  0.00    +0.000 C 
ATOM     42  C   UNL     1     108.660 132.337 135.199  0.00  0.00    +0.000 C 
ATOM     43  C   UNL     1     109.226 132.124 135.760  0.00  0.00    +0.000 C 
ATOM     44  C   UNL     1     109.957 132.507 135.774  0.00  0.00    +0.000 C 
ENDBRANCH  34  39
ENDBRANCH  28  34
ENDBRANCH  24  32
ENDBRANCH   4  24
BRANCH   9  45
ATOM     45  C   UNL     1     113.271 126.854 136.703  0.00  0.00    +0.000 C 
BRANCH  45  46
ATOM     46  C   UNL     1     113.859 126.559 137.202  0.00  0.00    +0.000 C 
ATOM     47  C   UNL     1     113.974 125.745 137.268  0.00  0.00    +0.000 C 
ATOM     48  C   UNL     1     114.561 125.451 137.767  0.00  0.00    +0.000 C 
ATOM     49  C   UNL     1     113.502 125.226 136.835  0.00  0.00    +0.000 C 
ENDBRANCH  45  46
ENDBRANCH   9  45
TORSDOF 9
ENDMDL
MODEL 7
REMARK VINA RESULT:     -10.0      3.145      5.147
REMARK  Name = 44259620
REMARK  9 active torsions:
REMARK  status: ('A' for Active; 'I' for Inactive)
REMARK    1  A    between atoms: O_1  and  C_16
REMARK    2  A    between atoms: O_1  and  C_19
REMARK    3  A    between atoms: O_5  and  C_24
REMARK    4  A    between atoms: O_5  and  C_28
REMARK    5  A    between atoms: O_13  and  C_36
REMARK    6  A    between atoms: O_15  and  C_44
REMARK    7  A    between atoms: C_29  and  C_33
REMARK    8  A    between atoms: C_34  and  C_37
REMARK    9  A    between atoms: C_37  and  C_43
REMARK                            x       y       z     vdW  Elec       q    Type
REMARK                         _______ _______ _______ _____ _____    ______ ____
ROOT
ATOM      1  O   UNL     1     112.879 128.223 137.442  0.00  0.00    +0.000 OA
ATOM      2  O   UNL     1     111.937 128.500 139.715  0.00  0.00    +0.000 OA
ATOM      3  O   UNL     1     111.700 129.903 139.476  0.00  0.00    +0.000 OA
ATOM      4  C   UNL     1     112.520 127.668 138.709  0.00  0.00    +0.000 A 
ATOM      5  C   UNL     1     112.834 127.576 137.952  0.00  0.00    +0.000 A 
ATOM      6  C   UNL     1     112.251 128.408 138.957  0.00  0.00    +0.000 A 
ATOM      7  C   UNL     1     112.296 129.055 138.447  0.00  0.00    +0.000 A 
ATOM      8  C   UNL     1     112.610 128.962 137.690  0.00  0.00    +0.000 A 
ATOM      9  C   UNL     1     112.661 129.629 137.150  0.00  0.00    +0.000 A 
ATOM     10  C   UNL     1     112.012 129.820 138.717  0.00  0.00    +0.000 A 
ATOM     11  C   UNL     1     112.383 130.401 137.402  0.00  0.00    +0.000 A 
ATOM     12  C   UNL     1     112.056 130.497 138.191  0.00  0.00    +0.000 A 
ENDROOT
BRANCH   5  14
ATOM     13  O   UNL     1     112.508 125.233 136.347  0.00  0.00    +0.000 OA
ATOM     14  C   UNL     1     113.103 126.837 137.704  0.00  0.00    +0.000 A 
ATOM     15  C   UNL     1     112.671 126.405 137.150  0.00  0.00    +0.000 A 
ATOM     16  C   UNL     1     113.804 126.528 138.011  0.00  0.00    +0.000 A 
ATOM     17  C   UNL     1     112.940 125.665 136.902  0.00  0.00    +0.000 A 
ATOM     18  C   UNL     1     114.073 125.789 137.764  0.00  0.00    +0.000 A 
ATOM     19  C   UNL     1     113.641 125.358 137.209  0.00  0.00    +0.000 A 
BRANCH  19  20
ATOM     20  O   UNL     1     113.910 124.617 136.961  0.00  0.00    +0.000 OA
ATOM     21  C   UNL     1     114.627 124.323 137.244  0.00  0.00    +0.000 C 
ENDBRANCH  19  20
ENDBRANCH   5  14
BRANCH  11  22
ATOM     22  O   UNL     1     112.428 131.047 136.890  0.00  0.00    +0.000 OA
ATOM     23  C   UNL     1     111.983 131.725 137.039  0.00  0.00    +0.000 C 
ENDBRANCH  11  22
BRANCH   4  24
ATOM     24  O   UNL     1     112.475 127.021 139.219  0.00  0.00    +0.000 OA
BRANCH  24  32
ATOM     25  O   UNL     1     111.071 126.834 139.040  0.00  0.00    +0.000 OA
ATOM     26  O   UNL     1     110.899 125.926 141.336  0.00  0.00    +0.000 OA
ATOM     27  O   UNL     1     112.361 126.416 140.750  0.00  0.00    +0.000 OA
ATOM     28  C   UNL     1     110.282 126.286 140.099  0.00  0.00    +0.000 C 
ATOM     29  C   UNL     1     110.957 126.229 140.571  0.00  0.00    +0.000 C 
ATOM     30  C   UNL     1     110.340 126.589 139.334  0.00  0.00    +0.000 C 
ATOM     31  C   UNL     1     111.688 126.474 140.278  0.00  0.00    +0.000 C 
ATOM     32  C   UNL     1     111.744 126.776 139.512  0.00  0.00    +0.000 C 
ATOM     33  C   UNL     1     109.665 126.647 138.861  0.00  0.00    +0.000 C 
BRANCH  28  34
ATOM     34  O   UNL     1     109.551 126.042 140.392  0.00  0.00    +0.000 OA
BRANCH  34  39
ATOM     35  O   UNL     1     109.241 127.361 140.846  0.00  0.00    +0.000 OA
ATOM     36  O   UNL     1     108.398 125.425 141.399  0.00  0.00    +0.000 OA
ATOM     37  O   UNL     1     107.512 126.436 142.356  0.00  0.00    +0.000 OA
ATOM     38  O   UNL     1     107.779 128.064 142.306  0.00  0.00    +0.000 OA
ATOM     39  C   UNL     1     109.108 126.547 140.870  0.00  0.00    +0.000 C 
ATOM     40  C   UNL     1     108.532 126.239 141.373  0.00  0.00    +0.000 C 
ATOM     41  C   UNL     1     108.088 126.745 141.852  0.00  0.00    +0.000 C 
ATOM     42  C   UNL     1     108.222 127.558 141.827  0.00  0.00    +0.000 C 
ATOM     43  C   UNL     1     108.799 127.866 141.324  0.00  0.00    +0.000 C 
ATOM     44  C   UNL     1     108.932 128.680 141.299  0.00  0.00    +0.000 C 
ENDBRANCH  34  39
ENDBRANCH  28  34
ENDBRANCH  24  32
ENDBRANCH   4  24
BRANCH   9  45
ATOM     45  C   UNL     1     112.977 129.527 136.394  0.00  0.00    +0.000 C 
BRANCH  45  46
ATOM     46  C   UNL     1     113.753 129.759 136.237  0.00  0.00    +0.000 C 
ATOM     47  C   UNL     1     114.077 129.632 135.489  0.00  0.00    +0.000 C 
ATOM     48  C   UNL     1     114.853 129.864 135.332  0.00  0.00    +0.000 C 
ATOM     49  C   UNL     1     113.626 129.275 134.898  0.00  0.00    +0.000 C 
ENDBRANCH  45  46
ENDBRANCH   9  45
TORSDOF 9
ENDMDL
MODEL 8
REMARK VINA RESULT:      -9.9      1.687      2.589
REMARK  Name = 44259620
REMARK  9 active torsions:
REMARK  status: ('A' for Active; 'I' for Inactive)
REMARK    1  A    between atoms: O_1  and  C_16
REMARK    2  A    between atoms: O_1  and  C_19
REMARK    3  A    between atoms: O_5  and  C_24
REMARK    4  A    between atoms: O_5  and  C_28
REMARK    5  A    between atoms: O_13  and  C_36
REMARK    6  A    between atoms: O_15  and  C_44
REMARK    7  A    between atoms: C_29  and  C_33
REMARK    8  A    between atoms: C_34  and  C_37
REMARK    9  A    between atoms: C_37  and  C_43
REMARK                            x       y       z     vdW  Elec       q    Type
REMARK                         _______ _______ _______ _____ _____    ______ ____
ROOT
ATOM      1  O   UNL     1     112.787 128.236 137.724  0.00  0.00    +0.000 OA
ATOM      2  O   UNL     1     111.703 129.712 136.059  0.00  0.00    +0.000 OA
ATOM      3  O   UNL     1     111.366 128.580 135.233  0.00  0.00    +0.000 OA
ATOM      4  C   UNL     1     112.407 129.544 137.292  0.00  0.00    +0.000 A 
ATOM      5  C   UNL     1     112.768 129.052 137.847  0.00  0.00    +0.000 A 
ATOM      6  C   UNL     1     112.065 129.220 136.614  0.00  0.00    +0.000 A 
ATOM      7  C   UNL     1     112.085 128.405 136.492  0.00  0.00    +0.000 A 
ATOM      8  C   UNL     1     112.446 127.913 137.047  0.00  0.00    +0.000 A 
ATOM      9  C   UNL     1     112.473 127.061 136.930  0.00  0.00    +0.000 A 
ATOM     10  C   UNL     1     111.725 128.080 135.782  0.00  0.00    +0.000 A 
ATOM     11  C   UNL     1     112.118 126.719 136.227  0.00  0.00    +0.000 A 
ATOM     12  C   UNL     1     111.742 127.231 135.649  0.00  0.00    +0.000 A 
ENDROOT
BRANCH   5  14
ATOM     13  O   UNL     1     112.707 129.527 140.665  0.00  0.00    +0.000 OA
ATOM     14  C   UNL     1     113.110 129.375 138.524  0.00  0.00    +0.000 A 
ATOM     15  C   UNL     1     112.738 129.289 139.255  0.00  0.00    +0.000 A 
ATOM     16  C   UNL     1     113.824 129.785 138.471  0.00  0.00    +0.000 A 
ATOM     17  C   UNL     1     113.080 129.613 139.934  0.00  0.00    +0.000 A 
ATOM     18  C   UNL     1     114.166 130.109 139.148  0.00  0.00    +0.000 A 
ATOM     19  C   UNL     1     113.793 130.023 139.879  0.00  0.00    +0.000 A 
BRANCH  19  20
ATOM     20  O   UNL     1     114.135 130.346 140.558  0.00  0.00    +0.000 OA
ATOM     21  C   UNL     1     114.857 130.743 140.507  0.00  0.00    +0.000 C 
ENDBRANCH  19  20
ENDBRANCH   5  14
BRANCH  11  22
ATOM     22  O   UNL     1     112.139 125.903 136.107  0.00  0.00    +0.000 OA
ATOM     23  C   UNL     1     111.538 125.533 135.681  0.00  0.00    +0.000 C 
ENDBRANCH  11  22
BRANCH   4  24
ATOM     24  O   UNL     1     112.387 130.359 137.415  0.00  0.00    +0.000 OA
BRANCH  24  32
ATOM     25  O   UNL     1     111.003 130.376 137.766  0.00  0.00    +0.000 OA
ATOM     26  O   UNL     1     110.816 132.697 136.927  0.00  0.00    +0.000 OA
ATOM     27  O   UNL     1     112.263 131.907 136.855  0.00  0.00    +0.000 OA
ATOM     28  C   UNL     1     110.217 131.544 137.522  0.00  0.00    +0.000 C 
ATOM     29  C   UNL     1     110.879 131.923 137.206  0.00  0.00    +0.000 C 
ATOM     30  C   UNL     1     110.279 130.771 137.801  0.00  0.00    +0.000 C 
ATOM     31  C   UNL     1     111.603 131.528 137.171  0.00  0.00    +0.000 C 
ATOM     32  C   UNL     1     111.664 130.754 137.450  0.00  0.00    +0.000 C 
ATOM     33  C   UNL     1     109.617 130.392 138.117  0.00  0.00    +0.000 C 
BRANCH  28  34
ATOM     34  O   UNL     1     109.493 131.939 137.558  0.00  0.00    +0.000 OA
BRANCH  34  39
ATOM     35  O   UNL     1     109.198 131.687 136.183  0.00  0.00    +0.000 OA
ATOM     36  O   UNL     1     107.881 132.075 137.879  0.00  0.00    +0.000 OA
ATOM     37  O   UNL     1     106.779 131.891 136.664  0.00  0.00    +0.000 OA
ATOM     38  O   UNL     1     107.291 131.571 135.128  0.00  0.00    +0.000 OA
ATOM     39  C   UNL     1     108.943 131.847 136.951  0.00  0.00    +0.000 C 
ATOM     40  C   UNL     1     108.137 131.915 137.111  0.00  0.00    +0.000 C 
ATOM     41  C   UNL     1     107.586 131.823 136.504  0.00  0.00    +0.000 C 
ATOM     42  C   UNL     1     107.842 131.663 135.736  0.00  0.00    +0.000 C 
ATOM     43  C   UNL     1     108.648 131.595 135.576  0.00  0.00    +0.000 C 
ATOM     44  C   UNL     1     108.903 131.435 134.807  0.00  0.00    +0.000 C 
ENDBRANCH  34  39
ENDBRANCH  28  34
ENDBRANCH  24  32
ENDBRANCH   4  24
BRANCH   9  45
ATOM     45  C   UNL     1     112.836 126.577 137.491  0.00  0.00    +0.000 C 
BRANCH  45  46
ATOM     46  C   UNL     1     113.551 126.205 137.313  0.00  0.00    +0.000 C 
ATOM     47  C   UNL     1     113.947 125.774 137.894  0.00  0.00    +0.000 C 
ATOM     48  C   UNL     1     114.662 125.402 137.715  0.00  0.00    +0.000 C 
ATOM     49  C   UNL     1     113.630 125.715 138.653  0.00  0.00    +0.000 C 
ENDBRANCH  45  46
ENDBRANCH   9  45
TORSDOF 9
ENDMDL
MODEL 9
REMARK VINA RESULT:      -9.9      1.749      6.047
REMARK  Name = 44259620
REMARK  9 active torsions:
REMARK  status: ('A' for Active; 'I' for Inactive)
REMARK    1  A    between atoms: O_1  and  C_16
REMARK    2  A    between atoms: O_1  and  C_19
REMARK    3  A    between atoms: O_5  and  C_24
REMARK    4  A    between atoms: O_5  and  C_28
REMARK    5  A    between atoms: O_13  and  C_36
REMARK    6  A    between atoms: O_15  and  C_44
REMARK    7  A    between atoms: C_29  and  C_33
REMARK    8  A    between atoms: C_34  and  C_37
REMARK    9  A    between atoms: C_37  and  C_43
REMARK                            x       y       z     vdW  Elec       q    Type
REMARK                         _______ _______ _______ _____ _____    ______ ____
ROOT
ATOM      1  O   UNL     1     109.869 130.628 137.713  0.00  0.00    +0.000 OA
ATOM      2  O   UNL     1     108.906 128.490 136.924  0.00  0.00    +0.000 OA
ATOM      3  O   UNL     1     108.154 129.173 135.901  0.00  0.00    +0.000 OA
ATOM      4  C   UNL     1     109.755 129.208 137.822  0.00  0.00    +0.000 A 
ATOM      5  C   UNL     1     110.077 129.921 138.085  0.00  0.00    +0.000 A 
ATOM      6  C   UNL     1     109.227 129.203 137.187  0.00  0.00    +0.000 A 
ATOM      7  C   UNL     1     109.021 129.910 136.817  0.00  0.00    +0.000 A 
ATOM      8  C   UNL     1     109.342 130.623 137.080  0.00  0.00    +0.000 A 
ATOM      9  C   UNL     1     109.135 131.366 136.701  0.00  0.00    +0.000 A 
ATOM     10  C   UNL     1     108.470 129.891 136.157  0.00  0.00    +0.000 A 
ATOM     11  C   UNL     1     108.586 131.367 136.040  0.00  0.00    +0.000 A 
ATOM     12  C   UNL     1     108.251 130.624 135.767  0.00  0.00    +0.000 A 
ENDROOT
BRANCH   5  14
ATOM     13  O   UNL     1     112.750 130.104 139.078  0.00  0.00    +0.000 OA
ATOM     14  C   UNL     1     110.604 129.927 138.719  0.00  0.00    +0.000 A 
ATOM     15  C   UNL     1     111.413 130.012 138.581  0.00  0.00    +0.000 A 
ATOM     16  C   UNL     1     110.323 129.847 139.491  0.00  0.00    +0.000 A 
ATOM     17  C   UNL     1     111.941 130.018 139.216  0.00  0.00    +0.000 A 
ATOM     18  C   UNL     1     110.850 129.852 140.124  0.00  0.00    +0.000 A 
ATOM     19  C   UNL     1     111.659 129.938 139.987  0.00  0.00    +0.000 A 
BRANCH  19  20
ATOM     20  O   UNL     1     112.188 129.943 140.621  0.00  0.00    +0.000 OA
ATOM     21  C   UNL     1     111.909 129.842 141.391  0.00  0.00    +0.000 C 
ENDBRANCH  19  20
ENDBRANCH   5  14
BRANCH  11  22
ATOM     22  O   UNL     1     108.381 132.076 135.671  0.00  0.00    +0.000 OA
ATOM     23  C   UNL     1     107.756 132.096 135.134  0.00  0.00    +0.000 C 
ENDBRANCH  11  22
BRANCH   4  24
ATOM     24  O   UNL     1     109.962 128.501 138.193  0.00  0.00    +0.000 OA
BRANCH  24  32
ATOM     25  O   UNL     1     110.819 128.066 137.136  0.00  0.00    +0.000 OA
ATOM     26  O   UNL     1     110.306 125.709 137.688  0.00  0.00    +0.000 OA
ATOM     27  O   UNL     1     109.619 126.929 138.561  0.00  0.00    +0.000 OA
ATOM     28  C   UNL     1     110.992 126.671 136.883  0.00  0.00    +0.000 C 
ATOM     29  C   UNL     1     110.477 126.495 137.504  0.00  0.00    +0.000 C 
ATOM     30  C   UNL     1     111.162 127.456 136.700  0.00  0.00    +0.000 C 
ATOM     31  C   UNL     1     110.133 127.105 137.941  0.00  0.00    +0.000 C 
ATOM     32  C   UNL     1     110.305 127.891 137.756  0.00  0.00    +0.000 C 
ATOM     33  C   UNL     1     111.677 127.632 136.079  0.00  0.00    +0.000 C 
BRANCH  28  34
ATOM     34  O   UNL     1     111.335 126.060 136.447  0.00  0.00    +0.000 OA
BRANCH  34  39
ATOM     35  O   UNL     1     112.499 126.072 137.277  0.00  0.00    +0.000 OA
ATOM     36  O   UNL     1     111.751 124.566 135.885  0.00  0.00    +0.000 OA
ATOM     37  O   UNL     1     113.122 123.830 136.433  0.00  0.00    +0.000 OA
ATOM     38  O   UNL     1     114.078 124.588 137.544  0.00  0.00    +0.000 OA
ATOM     39  C   UNL     1     112.020 125.693 136.721  0.00  0.00    +0.000 C 
ATOM     40  C   UNL     1     112.228 124.946 136.440  0.00  0.00    +0.000 C 
ATOM     41  C   UNL     1     112.914 124.577 136.714  0.00  0.00    +0.000 C 
ATOM     42  C   UNL     1     113.391 124.957 137.270  0.00  0.00    +0.000 C 
ATOM     43  C   UNL     1     113.184 125.704 137.551  0.00  0.00    +0.000 C 
ATOM     44  C   UNL     1     113.662 126.083 138.106  0.00  0.00    +0.000 C 
ENDBRANCH  34  39
ENDBRANCH  28  34
ENDBRANCH  24  32
ENDBRANCH   4  24
BRANCH   9  45
ATOM     45  C   UNL     1     109.461 132.074 136.971  0.00  0.00    +0.000 C 
BRANCH  45  46
ATOM     46  C   UNL     1     110.049 132.452 136.532  0.00  0.00    +0.000 C 
ATOM     47  C   UNL     1     110.427 133.119 136.836  0.00  0.00    +0.000 C 
ATOM     48  C   UNL     1     111.015 133.495 136.396  0.00  0.00    +0.000 C 
ATOM     49  C   UNL     1     110.217 133.409 137.579  0.00  0.00    +0.000 C 
ENDBRANCH  45  46
ENDBRANCH   9  45
TORSDOF 9
ENDMDL
MODEL 10
REMARK VINA RESULT:      -9.9      1.762      5.941
REMARK  Name = 44259620
REMARK  9 active torsions:
REMARK  status: ('A' for Active; 'I' for Inactive)
REMARK    1  A    between atoms: O_1  and  C_16
REMARK    2  A    between atoms: O_1  and  C_19
REMARK    3  A    between atoms: O_5  and  C_24
REMARK    4  A    between atoms: O_5  and  C_28
REMARK    5  A    between atoms: O_13  and  C_36
REMARK    6  A    between atoms: O_15  and  C_44
REMARK    7  A    between atoms: C_29  and  C_33
REMARK    8  A    between atoms: C_34  and  C_37
REMARK    9  A    between atoms: C_37  and  C_43
REMARK                            x       y       z     vdW  Elec       q    Type
REMARK                         _______ _______ _______ _____ _____    ______ ____
ROOT
ATOM      1  O   UNL     1     111.396 130.361 137.844  0.00  0.00    +0.000 OA
ATOM      2  O   UNL     1     110.714 128.005 138.172  0.00  0.00    +0.000 OA
ATOM      3  O   UNL     1     109.516 128.214 137.397  0.00  0.00    +0.000 OA
ATOM      4  C   UNL     1     111.645 129.066 138.394  0.00  0.00    +0.000 A 
ATOM      5  C   UNL     1     111.873 129.852 138.285  0.00  0.00    +0.000 A 
ATOM      6  C   UNL     1     110.942 128.790 138.063  0.00  0.00    +0.000 A 
ATOM      7  C   UNL     1     110.466 129.300 137.622  0.00  0.00    +0.000 A 
ATOM      8  C   UNL     1     110.693 130.086 137.513  0.00  0.00    +0.000 A 
ATOM      9  C   UNL     1     110.206 130.626 137.056  0.00  0.00    +0.000 A 
ATOM     10  C   UNL     1     109.735 129.001 137.282  0.00  0.00    +0.000 A 
ATOM     11  C   UNL     1     109.472 130.345 136.709  0.00  0.00    +0.000 A 
ATOM     12  C   UNL     1     109.236 129.527 136.822  0.00  0.00    +0.000 A 
ENDROOT
BRANCH   5  14
ATOM     13  O   UNL     1     114.571 130.742 137.978  0.00  0.00    +0.000 OA
ATOM     14  C   UNL     1     112.576 130.127 138.616  0.00  0.00    +0.000 A 
ATOM     15  C   UNL     1     113.221 130.296 138.132  0.00  0.00    +0.000 A 
ATOM     16  C   UNL     1     112.634 130.234 139.433  0.00  0.00    +0.000 A 
ATOM     17  C   UNL     1     113.925 130.572 138.463  0.00  0.00    +0.000 A 
ATOM     18  C   UNL     1     113.337 130.509 139.764  0.00  0.00    +0.000 A 
ATOM     19  C   UNL     1     113.983 130.679 139.279  0.00  0.00    +0.000 A 
BRANCH  19  20
ATOM     20  O   UNL     1     114.687 130.954 139.610  0.00  0.00    +0.000 OA
ATOM     21  C   UNL     1     114.910 130.712 140.367  0.00  0.00    +0.000 C 
ENDBRANCH  19  20
ENDBRANCH   5  14
BRANCH  11  22
ATOM     22  O   UNL     1     108.998 130.857 136.268  0.00  0.00    +0.000 OA
ATOM     23  C   UNL     1     108.374 130.558 135.819  0.00  0.00    +0.000 C 
ENDBRANCH  11  22
BRANCH   4  24
ATOM     24  O   UNL     1     112.121 128.556 138.835  0.00  0.00    +0.000 OA
BRANCH  24  32
ATOM     25  O   UNL     1     112.704 127.923 137.695  0.00  0.00    +0.000 OA
ATOM     26  O   UNL     1     112.939 125.822 138.982  0.00  0.00    +0.000 OA
ATOM     27  O   UNL     1     112.278 127.156 139.693  0.00  0.00    +0.000 OA
ATOM     28  C   UNL     1     113.113 126.555 137.768  0.00  0.00    +0.000 C 
ATOM     29  C   UNL     1     112.860 126.522 138.553  0.00  0.00    +0.000 C 
ATOM     30  C   UNL     1     113.034 127.256 137.339  0.00  0.00    +0.000 C 
ATOM     31  C   UNL     1     112.530 127.189 138.909  0.00  0.00    +0.000 C 
ATOM     32  C   UNL     1     112.452 127.889 138.479  0.00  0.00    +0.000 C 
ATOM     33  C   UNL     1     113.287 127.289 136.554  0.00  0.00    +0.000 C 
BRANCH  28  34
ATOM     34  O   UNL     1     113.443 125.888 137.412  0.00  0.00    +0.000 OA
BRANCH  34  39
ATOM     35  O   UNL     1     112.207 125.506 136.805  0.00  0.00    +0.000 OA
ATOM     36  O   UNL     1     113.957 124.321 137.354  0.00  0.00    +0.000 OA
ATOM     37  O   UNL     1     112.978 123.155 136.717  0.00  0.00    +0.000 OA
ATOM     38  O   UNL     1     111.485 123.556 136.139  0.00  0.00    +0.000 OA
ATOM     39  C   UNL     1     112.954 125.306 137.094  0.00  0.00    +0.000 C 
ATOM     40  C   UNL     1     113.211 124.522 137.065  0.00  0.00    +0.000 C 
ATOM     41  C   UNL     1     112.721 123.939 136.746  0.00  0.00    +0.000 C 
ATOM     42  C   UNL     1     111.975 124.140 136.458  0.00  0.00    +0.000 C 
ATOM     43  C   UNL     1     111.718 124.923 136.487  0.00  0.00    +0.000 C 
ATOM     44  C   UNL     1     110.972 125.123 136.198  0.00  0.00    +0.000 C 
ENDBRANCH  34  39
ENDBRANCH  28  34
ENDBRANCH  24  32
ENDBRANCH   4  24
BRANCH   9  45
ATOM     45  C   UNL     1     110.441 131.410 136.952  0.00  0.00    +0.000 C 
BRANCH  45  46
ATOM     46  C   UNL     1     110.129 132.002 137.435  0.00  0.00    +0.000 C 
ATOM     47  C   UNL     1     110.386 132.781 137.351  0.00  0.00    +0.000 C 
ATOM     48  C   UNL     1     110.073 133.372 137.834  0.00  0.00    +0.000 C 
ATOM     49  C   UNL     1     110.955 132.969 136.784  0.00  0.00    +0.000 C 
ENDBRANCH  45  46
ENDBRANCH   9  45
TORSDOF 9
ENDMDL
