MODEL 1
REMARK VINA RESULT:      -9.8      0.000      0.000
REMARK  Name = 131833696
REMARK  5 active torsions:
REMARK  status: ('A' for Active; 'I' for Inactive)
REMARK    1  A    between atoms: S_1  and  O_3
REMARK    2  A    between atoms: O_3  and  C_16
REMARK    3  A    between atoms: O_13  and  C_33
REMARK    4  A    between atoms: C_15  and  C_19
REMARK    5  A    between atoms: C_28  and  C_30
REMARK                            x       y       z     vdW  Elec       q    Type
REMARK                         _______ _______ _______ _____ _____    ______ ____
ROOT
ATOM      1  O   UNL     1     113.653 128.216 141.204  0.00  0.00    +0.000 OA
ATOM      2  O   UNL     1     113.193 127.299 138.497  0.00  0.00    +0.000 OA
ATOM      3  O   UNL     1     112.470 129.974 139.286  0.00  0.00    +0.000 OA
ATOM      4  O   UNL     1     114.029 126.869 140.848  0.00  0.00    +0.000 OA
ATOM      5  C   UNL     1     113.061 129.095 140.244  0.00  0.00    +0.000 A 
ATOM      6  C   UNL     1     113.380 128.359 140.438  0.00  0.00    +0.000 A 
ATOM      7  C   UNL     1     112.788 129.238 139.479  0.00  0.00    +0.000 A 
ATOM      8  C   UNL     1     113.425 127.766 139.866  0.00  0.00    +0.000 A 
ATOM      9  C   UNL     1     113.152 127.909 139.101  0.00  0.00    +0.000 A 
ATOM     10  C   UNL     1     112.833 128.645 138.908  0.00  0.00    +0.000 A 
ATOM     11  C   UNL     1     113.758 127.004 140.080  0.00  0.00    +0.000 A 
ATOM     12  C   UNL     1     113.524 126.530 138.692  0.00  0.00    +0.000 A 
ATOM     13  C   UNL     1     113.808 126.381 139.489  0.00  0.00    +0.000 A 
ENDROOT
BRANCH   5  17
ATOM     14  O   UNL     1     112.356 129.737 141.308  0.00  0.00    +0.000 OA
ATOM     15  O   UNL     1     114.202 131.368 141.548  0.00  0.00    +0.000 OA
ATOM     16  O   UNL     1     112.881 131.467 142.531  0.00  0.00    +0.000 OA
ATOM     17  C   UNL     1     113.016 129.688 140.816  0.00  0.00    +0.000 C 
ATOM     18  C   UNL     1     113.632 130.232 140.896  0.00  0.00    +0.000 C 
ATOM     19  C   UNL     1     113.586 130.824 141.468  0.00  0.00    +0.000 C 
ATOM     20  C   UNL     1     112.311 130.331 141.880  0.00  0.00    +0.000 C 
ATOM     21  C   UNL     1     112.926 130.874 141.960  0.00  0.00    +0.000 C 
ATOM     22  C   UNL     1     111.650 130.380 142.371  0.00  0.00    +0.000 C 
BRANCH  18  23
ATOM     23  O   UNL     1     114.292 130.182 140.404  0.00  0.00    +0.000 OA
BRANCH  23  24
ATOM     24  S   UNL     1     114.917 130.712 140.499  0.00  0.00    +0.000 S 
ATOM     25  O   UNL     1     115.542 131.243 140.593  0.00  0.00    +0.000 OA
ATOM     26  O   UNL     1     115.279 130.192 141.026  0.00  0.00    +0.000 OA
ATOM     27  O   UNL     1     114.555 131.233 139.971  0.00  0.00    +0.000 OA
ENDBRANCH  23  24
ENDBRANCH  18  23
ENDBRANCH   5  17
BRANCH  12  29
ATOM     28  O   UNL     1     113.698 124.165 136.398  0.00  0.00    +0.000 OA
ATOM     29  C   UNL     1     113.568 125.939 138.119  0.00  0.00    +0.000 A 
ATOM     30  C   UNL     1     112.876 125.598 137.824  0.00  0.00    +0.000 A 
ATOM     31  C   UNL     1     114.302 125.688 137.839  0.00  0.00    +0.000 A 
ATOM     32  C   UNL     1     112.919 125.007 137.251  0.00  0.00    +0.000 A 
ATOM     33  C   UNL     1     114.346 125.096 137.266  0.00  0.00    +0.000 A 
ATOM     34  C   UNL     1     113.654 124.756 136.972  0.00  0.00    +0.000 A 
BRANCH  32  35
ATOM     35  O   UNL     1     112.228 124.666 136.956  0.00  0.00    +0.000 OA
ATOM     36  C   UNL     1     111.593 124.517 137.461  0.00  0.00    +0.000 C 
ENDBRANCH  32  35
ENDBRANCH  12  29
TORSDOF 5
ENDMDL
MODEL 2
REMARK VINA RESULT:      -9.5      1.507      5.926
REMARK  Name = 131833696
REMARK  5 active torsions:
REMARK  status: ('A' for Active; 'I' for Inactive)
REMARK    1  A    between atoms: S_1  and  O_3
REMARK    2  A    between atoms: O_3  and  C_16
REMARK    3  A    between atoms: O_13  and  C_33
REMARK    4  A    between atoms: C_15  and  C_19
REMARK    5  A    between atoms: C_28  and  C_30
REMARK                            x       y       z     vdW  Elec       q    Type
REMARK                         _______ _______ _______ _____ _____    ______ ____
ROOT
ATOM      1  O   UNL     1     113.652 126.114 139.446  0.00  0.00    +0.000 OA
ATOM      2  O   UNL     1     113.237 128.971 139.647  0.00  0.00    +0.000 OA
ATOM      3  O   UNL     1     112.904 127.611 137.129  0.00  0.00    +0.000 OA
ATOM      4  O   UNL     1     113.829 126.758 140.725  0.00  0.00    +0.000 OA
ATOM      5  C   UNL     1     113.278 126.863 138.288  0.00  0.00    +0.000 A 
ATOM      6  C   UNL     1     113.459 126.834 139.092  0.00  0.00    +0.000 A 
ATOM      7  C   UNL     1     113.085 127.583 137.934  0.00  0.00    +0.000 A 
ATOM      8  C   UNL     1     113.447 127.525 139.543  0.00  0.00    +0.000 A 
ATOM      9  C   UNL     1     113.253 128.245 139.189  0.00  0.00    +0.000 A 
ATOM     10  C   UNL     1     113.072 128.273 138.384  0.00  0.00    +0.000 A 
ATOM     11  C   UNL     1     113.637 127.482 140.379  0.00  0.00    +0.000 A 
ATOM     12  C   UNL     1     113.424 128.948 140.486  0.00  0.00    +0.000 A 
ATOM     13  C   UNL     1     113.625 128.198 140.854  0.00  0.00    +0.000 A 
ENDROOT
BRANCH   5  17
ATOM     14  O   UNL     1     113.993 125.925 137.481  0.00  0.00    +0.000 OA
ATOM     15  O   UNL     1     111.925 124.594 137.198  0.00  0.00    +0.000 OA
ATOM     16  O   UNL     1     113.329 124.099 136.485  0.00  0.00    +0.000 OA
ATOM     17  C   UNL     1     113.291 126.172 137.837  0.00  0.00    +0.000 C 
ATOM     18  C   UNL     1     112.602 125.728 137.743  0.00  0.00    +0.000 C 
ATOM     19  C   UNL     1     112.615 125.037 137.292  0.00  0.00    +0.000 C 
ATOM     20  C   UNL     1     114.005 125.233 137.030  0.00  0.00    +0.000 C 
ATOM     21  C   UNL     1     113.316 124.790 136.936  0.00  0.00    +0.000 C 
ATOM     22  C   UNL     1     114.707 124.987 136.674  0.00  0.00    +0.000 C 
BRANCH  18  23
ATOM     23  O   UNL     1     111.900 125.976 138.099  0.00  0.00    +0.000 OA
BRANCH  23  24
ATOM     24  S   UNL     1     111.210 125.534 138.003  0.00  0.00    +0.000 S 
ATOM     25  O   UNL     1     110.520 125.091 137.906  0.00  0.00    +0.000 OA
ATOM     26  O   UNL     1     111.382 125.115 138.692  0.00  0.00    +0.000 OA
ATOM     27  O   UNL     1     111.039 125.952 137.313  0.00  0.00    +0.000 OA
ENDBRANCH  23  24
ENDBRANCH  18  23
ENDBRANCH   5  17
BRANCH  12  29
ATOM     28  O   UNL     1     113.372 131.718 142.279  0.00  0.00    +0.000 OA
ATOM     29  C   UNL     1     113.411 129.640 140.934  0.00  0.00    +0.000 A 
ATOM     30  C   UNL     1     114.054 130.157 140.914  0.00  0.00    +0.000 A 
ATOM     31  C   UNL     1     112.756 129.817 141.403  0.00  0.00    +0.000 A 
ATOM     32  C   UNL     1     114.042 130.849 141.362  0.00  0.00    +0.000 A 
ATOM     33  C   UNL     1     112.742 130.509 141.851  0.00  0.00    +0.000 A 
ATOM     34  C   UNL     1     113.386 131.025 141.830  0.00  0.00    +0.000 A 
BRANCH  32  35
ATOM     35  O   UNL     1     114.685 131.366 141.342  0.00  0.00    +0.000 OA
ATOM     36  C   UNL     1     115.335 131.197 140.864  0.00  0.00    +0.000 C 
ENDBRANCH  32  35
ENDBRANCH  12  29
TORSDOF 5
ENDMDL
MODEL 3
REMARK VINA RESULT:      -9.5      7.854      9.911
REMARK  Name = 131833696
REMARK  5 active torsions:
REMARK  status: ('A' for Active; 'I' for Inactive)
REMARK    1  A    between atoms: S_1  and  O_3
REMARK    2  A    between atoms: O_3  and  C_16
REMARK    3  A    between atoms: O_13  and  C_33
REMARK    4  A    between atoms: C_15  and  C_19
REMARK    5  A    between atoms: C_28  and  C_30
REMARK                            x       y       z     vdW  Elec       q    Type
REMARK                         _______ _______ _______ _____ _____    ______ ____
ROOT
ATOM      1  O   UNL     1     106.622 127.920 144.781  0.00  0.00    +0.000 OA
ATOM      2  O   UNL     1     106.443 125.391 146.178  0.00  0.00    +0.000 OA
ATOM      3  O   UNL     1     105.591 125.619 143.435  0.00  0.00    +0.000 OA
ATOM      4  O   UNL     1     107.059 127.846 146.155  0.00  0.00    +0.000 OA
ATOM      5  C   UNL     1     106.107 126.769 144.109  0.00  0.00    +0.000 A 
ATOM      6  C   UNL     1     106.421 127.120 144.786  0.00  0.00    +0.000 A 
ATOM      7  C   UNL     1     105.905 125.969 144.113  0.00  0.00    +0.000 A 
ATOM      8  C   UNL     1     106.533 126.669 145.469  0.00  0.00    +0.000 A 
ATOM      9  C   UNL     1     106.331 125.870 145.474  0.00  0.00    +0.000 A 
ATOM     10  C   UNL     1     106.017 125.520 144.795  0.00  0.00    +0.000 A 
ATOM     11  C   UNL     1     106.860 127.046 146.168  0.00  0.00    +0.000 A 
ATOM     12  C   UNL     1     106.769 125.750 146.888  0.00  0.00    +0.000 A 
ATOM     13  C   UNL     1     106.979 126.582 146.883  0.00  0.00    +0.000 A 
ENDROOT
BRANCH   5  17
ATOM     14  O   UNL     1     105.284 127.621 143.310  0.00  0.00    +0.000 OA
ATOM     15  O   UNL     1     107.080 127.763 141.612  0.00  0.00    +0.000 OA
ATOM     16  O   UNL     1     105.658 128.569 141.379  0.00  0.00    +0.000 OA
ATOM     17  C   UNL     1     105.995 127.219 143.426  0.00  0.00    +0.000 C 
ATOM     18  C   UNL     1     106.593 127.266 142.860  0.00  0.00    +0.000 C 
ATOM     19  C   UNL     1     106.481 127.716 142.178  0.00  0.00    +0.000 C 
ATOM     20  C   UNL     1     105.172 128.072 142.627  0.00  0.00    +0.000 C 
ATOM     21  C   UNL     1     105.770 128.119 142.061  0.00  0.00    +0.000 C 
ATOM     22  C   UNL     1     104.461 128.474 142.511  0.00  0.00    +0.000 C 
BRANCH  18  23
ATOM     23  O   UNL     1     107.304 126.864 142.977  0.00  0.00    +0.000 OA
BRANCH  23  24
ATOM     24  S   UNL     1     107.915 126.938 142.428  0.00  0.00    +0.000 S 
ATOM     25  O   UNL     1     108.526 127.012 141.878  0.00  0.00    +0.000 OA
ATOM     26  O   UNL     1     107.642 126.266 142.034  0.00  0.00    +0.000 OA
ATOM     27  O   UNL     1     108.187 127.610 142.821  0.00  0.00    +0.000 OA
ENDBRANCH  23  24
ENDBRANCH  18  23
ENDBRANCH   5  17
BRANCH  12  29
ATOM     28  O   UNL     1     107.212 123.942 149.612  0.00  0.00    +0.000 OA
ATOM     29  C   UNL     1     106.880 125.298 147.569  0.00  0.00    +0.000 A 
ATOM     30  C   UNL     1     106.230 125.069 148.022  0.00  0.00    +0.000 A 
ATOM     31  C   UNL     1     107.640 125.074 147.797  0.00  0.00    +0.000 A 
ATOM     32  C   UNL     1     106.340 124.617 148.703  0.00  0.00    +0.000 A 
ATOM     33  C   UNL     1     107.751 124.622 148.478  0.00  0.00    +0.000 A 
ATOM     34  C   UNL     1     107.101 124.394 148.931  0.00  0.00    +0.000 A 
BRANCH  32  35
ATOM     35  O   UNL     1     105.690 124.388 149.157  0.00  0.00    +0.000 OA
ATOM     36  C   UNL     1     105.036 124.887 149.222  0.00  0.00    +0.000 C 
ENDBRANCH  32  35
ENDBRANCH  12  29
TORSDOF 5
ENDMDL
MODEL 4
REMARK VINA RESULT:      -9.5      1.487      5.686
REMARK  Name = 131833696
REMARK  5 active torsions:
REMARK  status: ('A' for Active; 'I' for Inactive)
REMARK    1  A    between atoms: S_1  and  O_3
REMARK    2  A    between atoms: O_3  and  C_16
REMARK    3  A    between atoms: O_13  and  C_33
REMARK    4  A    between atoms: C_15  and  C_19
REMARK    5  A    between atoms: C_28  and  C_30
REMARK                            x       y       z     vdW  Elec       q    Type
REMARK                         _______ _______ _______ _____ _____    ______ ____
ROOT
ATOM      1  O   UNL     1     113.179 126.038 139.465  0.00  0.00    +0.000 OA
ATOM      2  O   UNL     1     113.597 128.898 139.322  0.00  0.00    +0.000 OA
ATOM      3  O   UNL     1     112.581 127.446 137.051  0.00  0.00    +0.000 OA
ATOM      4  O   UNL     1     113.690 126.729 140.625  0.00  0.00    +0.000 OA
ATOM      5  C   UNL     1     112.880 126.742 138.258  0.00  0.00    +0.000 A 
ATOM      6  C   UNL     1     113.148 126.743 139.038  0.00  0.00    +0.000 A 
ATOM      7  C   UNL     1     112.849 127.448 137.831  0.00  0.00    +0.000 A 
ATOM      8  C   UNL     1     113.385 127.451 139.392  0.00  0.00    +0.000 A 
ATOM      9  C   UNL     1     113.354 128.156 138.965  0.00  0.00    +0.000 A 
ATOM     10  C   UNL     1     113.085 128.154 138.185  0.00  0.00    +0.000 A 
ATOM     11  C   UNL     1     113.662 127.439 140.205  0.00  0.00    +0.000 A 
ATOM     12  C   UNL     1     113.877 128.906 140.135  0.00  0.00    +0.000 A 
ATOM     13  C   UNL     1     113.910 128.172 140.579  0.00  0.00    +0.000 A 
ENDROOT
BRANCH   5  17
ATOM     14  O   UNL     1     111.857 125.790 137.959  0.00  0.00    +0.000 OA
ATOM     15  O   UNL     1     113.504 124.406 136.735  0.00  0.00    +0.000 OA
ATOM     16  O   UNL     1     111.933 123.915 136.844  0.00  0.00    +0.000 OA
ATOM     17  C   UNL     1     112.643 126.035 137.904  0.00  0.00    +0.000 C 
ATOM     18  C   UNL     1     113.192 125.574 137.496  0.00  0.00    +0.000 C 
ATOM     19  C   UNL     1     112.955 124.867 137.143  0.00  0.00    +0.000 C 
ATOM     20  C   UNL     1     111.621 125.083 137.606  0.00  0.00    +0.000 C 
ATOM     21  C   UNL     1     112.169 124.621 137.197  0.00  0.00    +0.000 C 
ATOM     22  C   UNL     1     110.835 124.838 137.661  0.00  0.00    +0.000 C 
BRANCH  18  23
ATOM     23  O   UNL     1     113.978 125.820 137.442  0.00  0.00    +0.000 OA
BRANCH  23  24
ATOM     24  S   UNL     1     114.524 125.364 137.025  0.00  0.00    +0.000 S 
ATOM     25  O   UNL     1     115.071 124.908 136.608  0.00  0.00    +0.000 OA
ATOM     26  O   UNL     1     114.709 124.953 137.716  0.00  0.00    +0.000 OA
ATOM     27  O   UNL     1     114.340 125.775 136.334  0.00  0.00    +0.000 OA
ENDBRANCH  23  24
ENDBRANCH  18  23
ENDBRANCH   5  17
BRANCH  12  29
ATOM     28  O   UNL     1     114.820 131.739 141.540  0.00  0.00    +0.000 OA
ATOM     29  C   UNL     1     114.113 129.615 140.486  0.00  0.00    +0.000 A 
ATOM     30  C   UNL     1     113.597 130.019 140.986  0.00  0.00    +0.000 A 
ATOM     31  C   UNL     1     114.866 129.918 140.338  0.00  0.00    +0.000 A 
ATOM     32  C   UNL     1     113.831 130.727 141.338  0.00  0.00    +0.000 A 
ATOM     33  C   UNL     1     115.102 130.627 140.690  0.00  0.00    +0.000 A 
ATOM     34  C   UNL     1     114.584 131.031 141.189  0.00  0.00    +0.000 A 
BRANCH  32  35
ATOM     35  O   UNL     1     113.315 131.132 141.838  0.00  0.00    +0.000 OA
ATOM     36  C   UNL     1     112.637 130.757 142.121  0.00  0.00    +0.000 C 
ENDBRANCH  32  35
ENDBRANCH  12  29
TORSDOF 5
ENDMDL
MODEL 5
REMARK VINA RESULT:      -9.5      1.089      2.307
REMARK  Name = 131833696
REMARK  5 active torsions:
REMARK  status: ('A' for Active; 'I' for Inactive)
REMARK    1  A    between atoms: S_1  and  O_3
REMARK    2  A    between atoms: O_3  and  C_16
REMARK    3  A    between atoms: O_13  and  C_33
REMARK    4  A    between atoms: C_15  and  C_19
REMARK    5  A    between atoms: C_28  and  C_30
REMARK                            x       y       z     vdW  Elec       q    Type
REMARK                         _______ _______ _______ _____ _____    ______ ____
ROOT
ATOM      1  O   UNL     1     112.852 129.187 139.077  0.00  0.00    +0.000 OA
ATOM      2  O   UNL     1     113.083 126.306 138.922  0.00  0.00    +0.000 OA
ATOM      3  O   UNL     1     114.277 127.761 141.103  0.00  0.00    +0.000 OA
ATOM      4  O   UNL     1     112.240 128.495 137.968  0.00  0.00    +0.000 OA
ATOM      5  C   UNL     1     113.565 128.474 140.090  0.00  0.00    +0.000 A 
ATOM      6  C   UNL     1     113.128 128.476 139.390  0.00  0.00    +0.000 A 
ATOM      7  C   UNL     1     113.840 127.762 140.403  0.00  0.00    +0.000 A 
ATOM      8  C   UNL     1     112.968 127.764 139.002  0.00  0.00    +0.000 A 
ATOM      9  C   UNL     1     113.243 127.053 139.315  0.00  0.00    +0.000 A 
ATOM     10  C   UNL     1     113.680 127.052 140.016  0.00  0.00    +0.000 A 
ATOM     11  C   UNL     1     112.512 127.779 138.274  0.00  0.00    +0.000 A 
ATOM     12  C   UNL     1     112.629 126.301 138.192  0.00  0.00    +0.000 A 
ATOM     13  C   UNL     1     112.341 127.042 137.866  0.00  0.00    +0.000 A 
ENDROOT
BRANCH   5  17
ATOM     14  O   UNL     1     114.400 129.617 140.281  0.00  0.00    +0.000 OA
ATOM     15  O   UNL     1     112.858 130.450 142.029  0.00  0.00    +0.000 OA
ATOM     16  O   UNL     1     114.207 131.316 141.638  0.00  0.00    +0.000 OA
ATOM     17  C   UNL     1     113.725 129.185 140.477  0.00  0.00    +0.000 C 
ATOM     18  C   UNL     1     113.211 129.463 141.060  0.00  0.00    +0.000 C 
ATOM     19  C   UNL     1     113.372 130.173 141.447  0.00  0.00    +0.000 C 
ATOM     20  C   UNL     1     114.560 130.329 140.669  0.00  0.00    +0.000 C 
ATOM     21  C   UNL     1     114.046 130.606 141.252  0.00  0.00    +0.000 C 
ATOM     22  C   UNL     1     115.235 130.761 140.473  0.00  0.00    +0.000 C 
BRANCH  18  23
ATOM     23  O   UNL     1     112.537 129.029 141.255  0.00  0.00    +0.000 OA
BRANCH  23  24
ATOM     24  S   UNL     1     112.003 129.326 141.810  0.00  0.00    +0.000 S 
ATOM     25  O   UNL     1     111.468 129.622 142.364  0.00  0.00    +0.000 OA
ATOM     26  O   UNL     1     112.408 128.932 142.411  0.00  0.00    +0.000 OA
ATOM     27  O   UNL     1     111.598 129.720 141.209  0.00  0.00    +0.000 OA
ENDBRANCH  23  24
ENDBRANCH  18  23
ENDBRANCH   5  17
BRANCH  12  29
ATOM     28  O   UNL     1     111.994 123.453 136.650  0.00  0.00    +0.000 OA
ATOM     29  C   UNL     1     112.470 125.589 137.806  0.00  0.00    +0.000 A 
ATOM     30  C   UNL     1     113.035 125.254 137.308  0.00  0.00    +0.000 A 
ATOM     31  C   UNL     1     111.745 125.211 137.919  0.00  0.00    +0.000 A 
ATOM     32  C   UNL     1     112.878 124.543 136.922  0.00  0.00    +0.000 A 
ATOM     33  C   UNL     1     111.586 124.499 137.534  0.00  0.00    +0.000 A 
ATOM     34  C   UNL     1     112.153 124.165 137.036  0.00  0.00    +0.000 A 
BRANCH  32  35
ATOM     35  O   UNL     1     113.443 124.208 136.424  0.00  0.00    +0.000 OA
ATOM     36  C   UNL     1     114.176 124.575 136.327  0.00  0.00    +0.000 C 
ENDBRANCH  32  35
ENDBRANCH  12  29
TORSDOF 5
ENDMDL
MODEL 6
REMARK VINA RESULT:      -9.4      8.674     10.568
REMARK  Name = 131833696
REMARK  5 active torsions:
REMARK  status: ('A' for Active; 'I' for Inactive)
REMARK    1  A    between atoms: S_1  and  O_3
REMARK    2  A    between atoms: O_3  and  C_16
REMARK    3  A    between atoms: O_13  and  C_33
REMARK    4  A    between atoms: C_15  and  C_19
REMARK    5  A    between atoms: C_28  and  C_30
REMARK                            x       y       z     vdW  Elec       q    Type
REMARK                         _______ _______ _______ _____ _____    ______ ____
ROOT
ATOM      1  O   UNL     1     106.503 124.785 145.877  0.00  0.00    +0.000 OA
ATOM      2  O   UNL     1     106.056 127.396 144.712  0.00  0.00    +0.000 OA
ATOM      3  O   UNL     1     106.490 127.105 147.545  0.00  0.00    +0.000 OA
ATOM      4  O   UNL     1     106.290 124.888 144.453  0.00  0.00    +0.000 OA
ATOM      5  C   UNL     1     106.497 125.945 146.710  0.00  0.00    +0.000 A 
ATOM      6  C   UNL     1     106.428 125.602 145.964  0.00  0.00    +0.000 A 
ATOM      7  C   UNL     1     106.421 126.762 146.797  0.00  0.00    +0.000 A 
ATOM      8  C   UNL     1     106.283 126.076 145.304  0.00  0.00    +0.000 A 
ATOM      9  C   UNL     1     106.207 126.892 145.391  0.00  0.00    +0.000 A 
ATOM     10  C   UNL     1     106.276 127.235 146.138  0.00  0.00    +0.000 A 
ATOM     11  C   UNL     1     106.213 125.706 144.531  0.00  0.00    +0.000 A 
ATOM     12  C   UNL     1     105.983 127.044 143.930  0.00  0.00    +0.000 A 
ATOM     13  C   UNL     1     106.062 126.194 143.840  0.00  0.00    +0.000 A 
ENDROOT
BRANCH   5  17
ATOM     14  O   UNL     1     107.417 125.316 147.604  0.00  0.00    +0.000 OA
ATOM     15  O   UNL     1     105.525 124.362 148.882  0.00  0.00    +0.000 OA
ATOM     16  O   UNL     1     107.077 124.051 149.350  0.00  0.00    +0.000 OA
ATOM     17  C   UNL     1     106.642 125.471 147.371  0.00  0.00    +0.000 C 
ATOM     18  C   UNL     1     106.011 125.153 147.797  0.00  0.00    +0.000 C 
ATOM     19  C   UNL     1     106.156 124.680 148.456  0.00  0.00    +0.000 C 
ATOM     20  C   UNL     1     107.562 124.842 148.264  0.00  0.00    +0.000 C 
ATOM     21  C   UNL     1     106.932 124.524 148.690  0.00  0.00    +0.000 C 
ATOM     22  C   UNL     1     108.338 124.687 148.497  0.00  0.00    +0.000 C 
BRANCH  18  23
ATOM     23  O   UNL     1     105.235 125.310 147.563  0.00  0.00    +0.000 OA
BRANCH  23  24
ATOM     24  S   UNL     1     104.605 124.973 147.975  0.00  0.00    +0.000 S 
ATOM     25  O   UNL     1     103.974 124.636 148.387  0.00  0.00    +0.000 OA
ATOM     26  O   UNL     1     104.627 124.318 147.474  0.00  0.00    +0.000 OA
ATOM     27  O   UNL     1     104.583 125.628 148.476  0.00  0.00    +0.000 OA
ENDBRANCH  23  24
ENDBRANCH  18  23
ENDBRANCH   5  17
BRANCH  12  29
ATOM     28  O   UNL     1     105.405 128.947 141.298  0.00  0.00    +0.000 OA
ATOM     29  C   UNL     1     105.838 127.520 143.272  0.00  0.00    +0.000 A 
ATOM     30  C   UNL     1     106.454 127.712 142.758  0.00  0.00    +0.000 A 
ATOM     31  C   UNL     1     105.078 127.805 143.127  0.00  0.00    +0.000 A 
ATOM     32  C   UNL     1     106.311 128.187 142.100  0.00  0.00    +0.000 A 
ATOM     33  C   UNL     1     104.933 128.281 142.469  0.00  0.00    +0.000 A 
ATOM     34  C   UNL     1     105.550 128.472 141.956  0.00  0.00    +0.000 A 
BRANCH  32  35
ATOM     35  O   UNL     1     106.927 128.379 141.586  0.00  0.00    +0.000 OA
ATOM     36  C   UNL     1     107.683 128.522 141.884  0.00  0.00    +0.000 C 
ENDBRANCH  32  35
ENDBRANCH  12  29
TORSDOF 5
ENDMDL
MODEL 7
REMARK VINA RESULT:      -9.4      3.478      4.709
REMARK  Name = 131833696
REMARK  5 active torsions:
REMARK  status: ('A' for Active; 'I' for Inactive)
REMARK    1  A    between atoms: S_1  and  O_3
REMARK    2  A    between atoms: O_3  and  C_16
REMARK    3  A    between atoms: O_13  and  C_33
REMARK    4  A    between atoms: C_15  and  C_19
REMARK    5  A    between atoms: C_28  and  C_30
REMARK                            x       y       z     vdW  Elec       q    Type
REMARK                         _______ _______ _______ _____ _____    ______ ____
ROOT
ATOM      1  O   UNL     1     110.948 129.072 137.910  0.00  0.00    +0.000 OA
ATOM      2  O   UNL     1     112.677 127.185 136.559  0.00  0.00    +0.000 OA
ATOM      3  O   UNL     1     111.564 129.434 135.143  0.00  0.00    +0.000 OA
ATOM      4  O   UNL     1     111.486 127.959 138.655  0.00  0.00    +0.000 OA
ATOM      5  C   UNL     1     111.257 129.252 136.526  0.00  0.00    +0.000 A 
ATOM      6  C   UNL     1     111.335 128.822 137.226  0.00  0.00    +0.000 A 
ATOM      7  C   UNL     1     111.644 129.002 135.842  0.00  0.00    +0.000 A 
ATOM      8  C   UNL     1     111.802 128.141 137.241  0.00  0.00    +0.000 A 
ATOM      9  C   UNL     1     112.189 127.891 136.556  0.00  0.00    +0.000 A 
ATOM     10  C   UNL     1     112.110 128.323 135.857  0.00  0.00    +0.000 A 
ATOM     11  C   UNL     1     111.877 127.702 137.975  0.00  0.00    +0.000 A 
ATOM     12  C   UNL     1     112.764 126.732 137.284  0.00  0.00    +0.000 A 
ATOM     13  C   UNL     1     112.361 126.992 137.997  0.00  0.00    +0.000 A 
ENDROOT
BRANCH   5  17
ATOM     14  O   UNL     1     111.119 130.662 136.713  0.00  0.00    +0.000 OA
ATOM     15  O   UNL     1     108.735 130.516 136.065  0.00  0.00    +0.000 OA
ATOM     16  O   UNL     1     109.392 131.975 136.468  0.00  0.00    +0.000 OA
ATOM     17  C   UNL     1     110.790 129.933 136.512  0.00  0.00    +0.000 C 
ATOM     18  C   UNL     1     109.995 129.884 136.295  0.00  0.00    +0.000 C 
ATOM     19  C   UNL     1     109.530 130.565 136.281  0.00  0.00    +0.000 C 
ATOM     20  C   UNL     1     110.652 131.343 136.698  0.00  0.00    +0.000 C 
ATOM     21  C   UNL     1     109.858 131.294 136.482  0.00  0.00    +0.000 C 
ATOM     22  C   UNL     1     110.981 132.072 136.900  0.00  0.00    +0.000 C 
BRANCH  18  23
ATOM     23  O   UNL     1     109.667 129.154 136.094  0.00  0.00    +0.000 OA
BRANCH  23  24
ATOM     24  S   UNL     1     108.857 129.092 135.952  0.00  0.00    +0.000 S 
ATOM     25  O   UNL     1     108.047 129.030 135.810  0.00  0.00    +0.000 OA
ATOM     26  O   UNL     1     108.988 129.219 135.147  0.00  0.00    +0.000 OA
ATOM     27  O   UNL     1     108.726 128.966 136.757  0.00  0.00    +0.000 OA
ENDBRANCH  23  24
ENDBRANCH  18  23
ENDBRANCH   5  17
BRANCH  12  29
ATOM     28  O   UNL     1     114.630 124.011 137.332  0.00  0.00    +0.000 OA
ATOM     29  C   UNL     1     113.231 126.052 137.296  0.00  0.00    +0.000 A 
ATOM     30  C   UNL     1     112.936 125.343 136.993  0.00  0.00    +0.000 A 
ATOM     31  C   UNL     1     113.993 126.079 137.611  0.00  0.00    +0.000 A 
ATOM     32  C   UNL     1     113.401 124.663 137.005  0.00  0.00    +0.000 A 
ATOM     33  C   UNL     1     114.459 125.399 137.623  0.00  0.00    +0.000 A 
ATOM     34  C   UNL     1     114.163 124.691 137.320  0.00  0.00    +0.000 A 
BRANCH  32  35
ATOM     35  O   UNL     1     113.106 123.954 136.702  0.00  0.00    +0.000 OA
ATOM     36  C   UNL     1     112.306 123.772 136.785  0.00  0.00    +0.000 C 
ENDBRANCH  32  35
ENDBRANCH  12  29
TORSDOF 5
ENDMDL
MODEL 8
REMARK VINA RESULT:      -9.3      4.261      6.796
REMARK  Name = 131833696
REMARK  5 active torsions:
REMARK  status: ('A' for Active; 'I' for Inactive)
REMARK    1  A    between atoms: S_1  and  O_3
REMARK    2  A    between atoms: O_3  and  C_16
REMARK    3  A    between atoms: O_13  and  C_33
REMARK    4  A    between atoms: C_15  and  C_19
REMARK    5  A    between atoms: C_28  and  C_30
REMARK                            x       y       z     vdW  Elec       q    Type
REMARK                         _______ _______ _______ _____ _____    ______ ____
ROOT
ATOM      1  O   UNL     1     109.533 126.398 136.424  0.00  0.00    +0.000 OA
ATOM      2  O   UNL     1     110.167 129.196 136.039  0.00  0.00    +0.000 OA
ATOM      3  O   UNL     1     112.185 127.340 136.926  0.00  0.00    +0.000 OA
ATOM      4  O   UNL     1     108.495 127.296 135.979  0.00  0.00    +0.000 OA
ATOM      5  C   UNL     1     110.859 126.870 136.675  0.00  0.00    +0.000 A 
ATOM      6  C   UNL     1     110.080 127.015 136.445  0.00  0.00    +0.000 A 
ATOM      7  C   UNL     1     111.406 127.487 136.695  0.00  0.00    +0.000 A 
ATOM      8  C   UNL     1     109.849 127.780 136.235  0.00  0.00    +0.000 A 
ATOM      9  C   UNL     1     110.396 128.397 136.255  0.00  0.00    +0.000 A 
ATOM     10  C   UNL     1     111.174 128.250 136.486  0.00  0.00    +0.000 A 
ATOM     11  C   UNL     1     109.035 127.919 135.997  0.00  0.00    +0.000 A 
ATOM     12  C   UNL     1     109.357 129.355 135.799  0.00  0.00    +0.000 A 
ATOM     13  C   UNL     1     108.787 128.712 135.777  0.00  0.00    +0.000 A 
ENDROOT
BRANCH   5  17
ATOM     14  O   UNL     1     111.366 125.585 136.307  0.00  0.00    +0.000 OA
ATOM     15  O   UNL     1     111.235 124.857 138.668  0.00  0.00    +0.000 OA
ATOM     16  O   UNL     1     111.785 123.815 137.513  0.00  0.00    +0.000 OA
ATOM     17  C   UNL     1     111.091 126.106 136.885  0.00  0.00    +0.000 C 
ATOM     18  C   UNL     1     111.047 125.863 137.672  0.00  0.00    +0.000 C 
ATOM     19  C   UNL     1     111.279 125.100 137.881  0.00  0.00    +0.000 C 
ATOM     20  C   UNL     1     111.597 124.821 136.516  0.00  0.00    +0.000 C 
ATOM     21  C   UNL     1     111.554 124.578 137.304  0.00  0.00    +0.000 C 
ATOM     22  C   UNL     1     111.872 124.301 135.938  0.00  0.00    +0.000 C 
BRANCH  18  23
ATOM     23  O   UNL     1     110.772 126.384 138.249  0.00  0.00    +0.000 OA
BRANCH  23  24
ATOM     24  S   UNL     1     110.714 126.136 139.034  0.00  0.00    +0.000 S 
ATOM     25  O   UNL     1     110.655 125.888 139.819  0.00  0.00    +0.000 OA
ATOM     26  O   UNL     1     111.486 126.392 139.172  0.00  0.00    +0.000 OA
ATOM     27  O   UNL     1     109.942 125.881 138.896  0.00  0.00    +0.000 OA
ENDBRANCH  23  24
ENDBRANCH  18  23
ENDBRANCH   5  17
BRANCH  12  29
ATOM     28  O   UNL     1     108.440 132.413 134.963  0.00  0.00    +0.000 OA
ATOM     29  C   UNL     1     109.128 130.120 135.589  0.00  0.00    +0.000 A 
ATOM     30  C   UNL     1     108.774 130.612 136.149  0.00  0.00    +0.000 A 
ATOM     31  C   UNL     1     109.253 130.392 134.821  0.00  0.00    +0.000 A 
ATOM     32  C   UNL     1     108.544 131.376 135.941  0.00  0.00    +0.000 A 
ATOM     33  C   UNL     1     109.024 131.157 134.612  0.00  0.00    +0.000 A 
ATOM     34  C   UNL     1     108.669 131.648 135.172  0.00  0.00    +0.000 A 
BRANCH  32  35
ATOM     35  O   UNL     1     108.190 131.868 136.500  0.00  0.00    +0.000 OA
ATOM     36  C   UNL     1     108.498 131.912 137.265  0.00  0.00    +0.000 C 
ENDBRANCH  32  35
ENDBRANCH  12  29
TORSDOF 5
ENDMDL
MODEL 9
REMARK VINA RESULT:      -9.1      3.564      6.517
REMARK  Name = 131833696
REMARK  5 active torsions:
REMARK  status: ('A' for Active; 'I' for Inactive)
REMARK    1  A    between atoms: S_1  and  O_3
REMARK    2  A    between atoms: O_3  and  C_16
REMARK    3  A    between atoms: O_13  and  C_33
REMARK    4  A    between atoms: C_15  and  C_19
REMARK    5  A    between atoms: C_28  and  C_30
REMARK                            x       y       z     vdW  Elec       q    Type
REMARK                         _______ _______ _______ _____ _____    ______ ____
ROOT
ATOM      1  O   UNL     1     112.947 127.575 135.834  0.00  0.00    +0.000 OA
ATOM      2  O   UNL     1     111.450 129.557 137.319  0.00  0.00    +0.000 OA
ATOM      3  O   UNL     1     111.758 126.879 138.337  0.00  0.00    +0.000 OA
ATOM      4  O   UNL     1     112.816 128.906 135.290  0.00  0.00    +0.000 OA
ATOM      5  C   UNL     1     112.352 127.228 137.086  0.00  0.00    +0.000 A 
ATOM      6  C   UNL     1     112.502 127.785 136.496  0.00  0.00    +0.000 A 
ATOM      7  C   UNL     1     111.907 127.437 137.748  0.00  0.00    +0.000 A 
ATOM      8  C   UNL     1     112.207 128.552 136.569  0.00  0.00    +0.000 A 
ATOM      9  C   UNL     1     111.762 128.762 137.232  0.00  0.00    +0.000 A 
ATOM     10  C   UNL     1     111.613 128.204 137.821  0.00  0.00    +0.000 A 
ATOM     11  C   UNL     1     112.370 129.123 135.949  0.00  0.00    +0.000 A 
ATOM     12  C   UNL     1     111.602 130.143 136.709  0.00  0.00    +0.000 A 
ATOM     13  C   UNL     1     112.065 129.924 136.019  0.00  0.00    +0.000 A 
ENDROOT
BRANCH   5  17
ATOM     14  O   UNL     1     113.399 126.279 137.300  0.00  0.00    +0.000 OA
ATOM     15  O   UNL     1     112.030 124.524 136.219  0.00  0.00    +0.000 OA
ATOM     16  O   UNL     1     113.533 124.160 136.793  0.00  0.00    +0.000 OA
ATOM     17  C   UNL     1     112.648 126.460 137.012  0.00  0.00    +0.000 C 
ATOM     18  C   UNL     1     112.191 125.875 136.652  0.00  0.00    +0.000 C 
ATOM     19  C   UNL     1     112.486 125.109 136.579  0.00  0.00    +0.000 C 
ATOM     20  C   UNL     1     113.695 125.512 137.226  0.00  0.00    +0.000 C 
ATOM     21  C   UNL     1     113.238 124.927 136.866  0.00  0.00    +0.000 C 
ATOM     22  C   UNL     1     114.446 125.331 137.514  0.00  0.00    +0.000 C 
BRANCH  18  23
ATOM     23  O   UNL     1     111.439 126.058 136.365  0.00  0.00    +0.000 OA
BRANCH  23  24
ATOM     24  S   UNL     1     111.001 125.484 135.965  0.00  0.00    +0.000 S 
ATOM     25  O   UNL     1     110.562 124.911 135.565  0.00  0.00    +0.000 OA
ATOM     26  O   UNL     1     111.332 125.729 135.251  0.00  0.00    +0.000 OA
ATOM     27  O   UNL     1     110.669 125.239 136.680  0.00  0.00    +0.000 OA
ENDBRANCH  23  24
ENDBRANCH  18  23
ENDBRANCH   5  17
BRANCH  12  29
ATOM     28  O   UNL     1     110.416 133.207 137.010  0.00  0.00    +0.000 OA
ATOM     29  C   UNL     1     111.306 130.909 136.784  0.00  0.00    +0.000 A 
ATOM     30  C   UNL     1     110.529 131.074 136.562  0.00  0.00    +0.000 A 
ATOM     31  C   UNL     1     111.786 131.510 137.081  0.00  0.00    +0.000 A 
ATOM     32  C   UNL     1     110.231 131.840 136.637  0.00  0.00    +0.000 A 
ATOM     33  C   UNL     1     111.490 132.276 137.157  0.00  0.00    +0.000 A 
ATOM     34  C   UNL     1     110.712 132.441 136.935  0.00  0.00    +0.000 A 
BRANCH  32  35
ATOM     35  O   UNL     1     109.454 132.005 136.415  0.00  0.00    +0.000 OA
ATOM     36  C   UNL     1     108.852 131.469 136.590  0.00  0.00    +0.000 C 
ENDBRANCH  32  35
ENDBRANCH  12  29
TORSDOF 5
ENDMDL
