MODEL 1
REMARK VINA RESULT:     -10.4      0.000      0.000
REMARK  Name = 14034827
REMARK  6 active torsions:
REMARK  status: ('A' for Active; 'I' for Inactive)
REMARK    1  A    between atoms: O_1  and  C_17
REMARK    2  A    between atoms: O_1  and  C_20
REMARK    3  A    between atoms: O_4  and  C_21
REMARK    4  A    between atoms: O_4  and  C_29
REMARK    5  A    between atoms: C_23  and  C_27
REMARK    6  A    between atoms: C_30  and  C_33
REMARK                            x       y       z     vdW  Elec       q    Type
REMARK                         _______ _______ _______ _____ _____    ______ ____
ROOT
ATOM      1  O   UNL     1     112.085 127.030 137.548  0.00  0.00    +0.000 OA
ENDROOT
BRANCH   1   6
ATOM      2  O   UNL     1     113.441 126.094 138.980  0.00  0.00    +0.000 OA
ATOM      3  O   UNL     1     112.405 128.301 138.550  0.00  0.00    +0.000 OA
ATOM      4  O   UNL     1     113.065 128.867 139.701  0.00  0.00    +0.000 OA
ATOM      5  O   UNL     1     114.806 127.169 141.317  0.00  0.00    +0.000 OA
ATOM      6  C   UNL     1     112.590 126.930 138.192  0.00  0.00    +0.000 A 
ATOM      7  C   UNL     1     112.935 126.194 138.335  0.00  0.00    +0.000 A 
ATOM      8  C   UNL     1     112.750 127.565 138.693  0.00  0.00    +0.000 A 
ATOM      9  C   UNL     1     113.256 127.465 139.337  0.00  0.00    +0.000 A 
ATOM     10  C   UNL     1     113.601 126.730 139.481  0.00  0.00    +0.000 A 
ATOM     11  C   UNL     1     113.415 128.135 139.852  0.00  0.00    +0.000 A 
ATOM     12  C   UNL     1     114.129 126.613 140.148  0.00  0.00    +0.000 A 
ATOM     13  C   UNL     1     113.941 128.037 140.525  0.00  0.00    +0.000 A 
ATOM     14  C   UNL     1     114.300 127.271 140.674  0.00  0.00    +0.000 A 
BRANCH   7  17
ATOM     15  O   UNL     1     113.686 124.517 136.146  0.00  0.00    +0.000 OA
ATOM     16  O   UNL     1     112.294 123.651 136.332  0.00  0.00    +0.000 OA
ATOM     17  C   UNL     1     112.775 125.559 137.835  0.00  0.00    +0.000 A 
ATOM     18  C   UNL     1     113.311 125.355 137.241  0.00  0.00    +0.000 A 
ATOM     19  C   UNL     1     112.079 125.126 137.928  0.00  0.00    +0.000 A 
ATOM     20  C   UNL     1     113.151 124.720 136.740  0.00  0.00    +0.000 A 
ATOM     21  C   UNL     1     111.919 124.489 137.427  0.00  0.00    +0.000 A 
ATOM     22  C   UNL     1     112.455 124.287 136.833  0.00  0.00    +0.000 A 
ENDBRANCH   7  17
ENDBRANCH   1   6
BRANCH   1  29
ATOM     23  O   UNL     1     113.006 127.772 136.747  0.00  0.00    +0.000 OA
ATOM     24  O   UNL     1     111.134 129.108 135.832  0.00  0.00    +0.000 OA
ATOM     25  O   UNL     1     112.679 129.405 135.337  0.00  0.00    +0.000 OA
ATOM     26  C   UNL     1     111.609 128.069 136.690  0.00  0.00    +0.000 C 
ATOM     27  C   UNL     1     111.758 128.663 136.137  0.00  0.00    +0.000 C 
ATOM     28  C   UNL     1     112.530 128.812 135.889  0.00  0.00    +0.000 C 
ATOM     29  C   UNL     1     112.233 127.624 136.995  0.00  0.00    +0.000 C 
ATOM     30  C   UNL     1     113.154 128.366 136.194  0.00  0.00    +0.000 C 
BRANCH  30  32
ATOM     31  O   UNL     1     114.375 127.909 135.609  0.00  0.00    +0.000 OA
ATOM     32  C   UNL     1     113.927 128.515 135.947  0.00  0.00    +0.000 C 
ENDBRANCH  30  32
BRANCH  26  33
ATOM     33  O   UNL     1     110.837 127.920 136.938  0.00  0.00    +0.000 OA
BRANCH  33  38
ATOM     34  O   UNL     1     110.608 127.121 135.776  0.00  0.00    +0.000 OA
ATOM     35  O   UNL     1     109.235 127.817 137.323  0.00  0.00    +0.000 OA
ATOM     36  O   UNL     1     108.207 126.967 136.352  0.00  0.00    +0.000 OA
ATOM     37  O   UNL     1     108.780 126.220 134.997  0.00  0.00    +0.000 OA
ATOM     38  C   UNL     1     110.322 127.495 136.453  0.00  0.00    +0.000 C 
ATOM     39  C   UNL     1     109.521 127.444 136.645  0.00  0.00    +0.000 C 
ATOM     40  C   UNL     1     109.007 127.018 136.160  0.00  0.00    +0.000 C 
ATOM     41  C   UNL     1     109.294 126.645 135.483  0.00  0.00    +0.000 C 
ATOM     42  C   UNL     1     110.094 126.696 135.290  0.00  0.00    +0.000 C 
ATOM     43  C   UNL     1     110.381 126.323 134.613  0.00  0.00    +0.000 C 
ENDBRANCH  33  38
ENDBRANCH  26  33
ENDBRANCH   1  29
TORSDOF 6
ENDMDL
MODEL 2
REMARK VINA RESULT:     -10.1      2.449      4.683
REMARK  Name = 14034827
REMARK  6 active torsions:
REMARK  status: ('A' for Active; 'I' for Inactive)
REMARK    1  A    between atoms: O_1  and  C_17
REMARK    2  A    between atoms: O_1  and  C_20
REMARK    3  A    between atoms: O_4  and  C_21
REMARK    4  A    between atoms: O_4  and  C_29
REMARK    5  A    between atoms: C_23  and  C_27
REMARK    6  A    between atoms: C_30  and  C_33
REMARK                            x       y       z     vdW  Elec       q    Type
REMARK                         _______ _______ _______ _____ _____    ______ ____
ROOT
ATOM      1  O   UNL     1     111.132 129.141 136.954  0.00  0.00    +0.000 OA
ENDROOT
BRANCH   1   6
ATOM      2  O   UNL     1     110.527 127.455 135.707  0.00  0.00    +0.000 OA
ATOM      3  O   UNL     1     111.989 127.915 137.651  0.00  0.00    +0.000 OA
ATOM      4  O   UNL     1     112.379 126.528 137.723  0.00  0.00    +0.000 OA
ATOM      5  O   UNL     1     111.269 124.640 135.792  0.00  0.00    +0.000 OA
ATOM      6  C   UNL     1     111.073 128.374 136.655  0.00  0.00    +0.000 A 
ATOM      7  C   UNL     1     110.585 128.221 136.007  0.00  0.00    +0.000 A 
ATOM      8  C   UNL     1     111.501 127.762 137.003  0.00  0.00    +0.000 A 
ATOM      9  C   UNL     1     111.443 126.995 136.704  0.00  0.00    +0.000 A 
ATOM     10  C   UNL     1     110.956 126.841 136.056  0.00  0.00    +0.000 A 
ATOM     11  C   UNL     1     111.894 126.365 137.075  0.00  0.00    +0.000 A 
ATOM     12  C   UNL     1     110.886 126.047 135.735  0.00  0.00    +0.000 A 
ATOM     13  C   UNL     1     111.837 125.565 136.768  0.00  0.00    +0.000 A 
ATOM     14  C   UNL     1     111.330 125.405 136.093  0.00  0.00    +0.000 A 
BRANCH   7  17
ATOM     15  O   UNL     1     108.267 129.890 135.933  0.00  0.00    +0.000 OA
ATOM     16  O   UNL     1     108.872 130.672 134.612  0.00  0.00    +0.000 OA
ATOM     17  C   UNL     1     110.157 128.833 135.659  0.00  0.00    +0.000 A 
ATOM     18  C   UNL     1     109.426 129.056 135.970  0.00  0.00    +0.000 A 
ATOM     19  C   UNL     1     110.460 129.224 134.998  0.00  0.00    +0.000 A 
ATOM     20  C   UNL     1     108.998 129.668 135.622  0.00  0.00    +0.000 A 
ATOM     21  C   UNL     1     110.031 129.838 134.649  0.00  0.00    +0.000 A 
ATOM     22  C   UNL     1     109.300 130.059 134.961  0.00  0.00    +0.000 A 
ENDBRANCH   7  17
ENDBRANCH   1   6
BRANCH   1  29
ATOM     23  O   UNL     1     112.451 129.377 136.459  0.00  0.00    +0.000 OA
ATOM     24  O   UNL     1     112.931 130.809 138.420  0.00  0.00    +0.000 OA
ATOM     25  O   UNL     1     114.090 130.567 137.271  0.00  0.00    +0.000 OA
ATOM     26  C   UNL     1     112.031 129.975 137.687  0.00  0.00    +0.000 C 
ATOM     27  C   UNL     1     112.771 130.331 137.766  0.00  0.00    +0.000 C 
ATOM     28  C   UNL     1     113.350 130.211 137.192  0.00  0.00    +0.000 C 
ATOM     29  C   UNL     1     111.871 129.498 137.034  0.00  0.00    +0.000 C 
ATOM     30  C   UNL     1     113.190 129.733 136.538  0.00  0.00    +0.000 C 
BRANCH  30  32
ATOM     31  O   UNL     1     113.626 129.834 135.181  0.00  0.00    +0.000 OA
ATOM     32  C   UNL     1     113.769 129.612 135.964  0.00  0.00    +0.000 C 
ENDBRANCH  30  32
BRANCH  26  33
ATOM     33  O   UNL     1     111.452 130.095 138.261  0.00  0.00    +0.000 OA
BRANCH  33  38
ATOM     34  O   UNL     1     111.142 131.365 137.684  0.00  0.00    +0.000 OA
ATOM     35  O   UNL     1     110.360 130.377 139.466  0.00  0.00    +0.000 OA
ATOM     36  O   UNL     1     109.505 131.788 139.491  0.00  0.00    +0.000 OA
ATOM     37  O   UNL     1     109.741 132.917 138.311  0.00  0.00    +0.000 OA
ATOM     38  C   UNL     1     111.024 130.801 138.274  0.00  0.00    +0.000 C 
ATOM     39  C   UNL     1     110.478 130.942 138.877  0.00  0.00    +0.000 C 
ATOM     40  C   UNL     1     110.050 131.647 138.889  0.00  0.00    +0.000 C 
ATOM     41  C   UNL     1     110.169 132.212 138.299  0.00  0.00    +0.000 C 
ATOM     42  C   UNL     1     110.714 132.071 137.697  0.00  0.00    +0.000 C 
ATOM     43  C   UNL     1     110.832 132.635 137.106  0.00  0.00    +0.000 C 
ENDBRANCH  33  38
ENDBRANCH  26  33
ENDBRANCH   1  29
TORSDOF 6
ENDMDL
MODEL 3
REMARK VINA RESULT:     -10.0      2.286      4.183
REMARK  Name = 14034827
REMARK  6 active torsions:
REMARK  status: ('A' for Active; 'I' for Inactive)
REMARK    1  A    between atoms: O_1  and  C_17
REMARK    2  A    between atoms: O_1  and  C_20
REMARK    3  A    between atoms: O_4  and  C_21
REMARK    4  A    between atoms: O_4  and  C_29
REMARK    5  A    between atoms: C_23  and  C_27
REMARK    6  A    between atoms: C_30  and  C_33
REMARK                            x       y       z     vdW  Elec       q    Type
REMARK                         _______ _______ _______ _____ _____    ______ ____
ROOT
ATOM      1  O   UNL     1     111.594 126.416 139.030  0.00  0.00    +0.000 OA
ENDROOT
BRANCH   1   6
ATOM      2  O   UNL     1     113.738 126.196 138.689  0.00  0.00    +0.000 OA
ATOM      3  O   UNL     1     111.603 125.311 137.805  0.00  0.00    +0.000 OA
ATOM      4  O   UNL     1     112.305 124.482 136.855  0.00  0.00    +0.000 OA
ATOM      5  O   UNL     1     115.224 124.551 136.799  0.00  0.00    +0.000 OA
ATOM      6  C   UNL     1     112.310 126.159 138.712  0.00  0.00    +0.000 A 
ATOM      7  C   UNL     1     113.022 126.454 139.007  0.00  0.00    +0.000 A 
ATOM      8  C   UNL     1     112.314 125.606 138.100  0.00  0.00    +0.000 A 
ATOM      9  C   UNL     1     113.031 125.348 137.782  0.00  0.00    +0.000 A 
ATOM     10  C   UNL     1     113.743 125.643 138.076  0.00  0.00    +0.000 A 
ATOM     11  C   UNL     1     113.022 124.772 137.144  0.00  0.00    +0.000 A 
ATOM     12  C   UNL     1     114.496 125.383 137.753  0.00  0.00    +0.000 A 
ATOM     13  C   UNL     1     113.765 124.500 136.809  0.00  0.00    +0.000 A 
ATOM     14  C   UNL     1     114.506 124.807 137.115  0.00  0.00    +0.000 A 
BRANCH   7  17
ATOM     15  O   UNL     1     113.145 129.169 139.892  0.00  0.00    +0.000 OA
ATOM     16  O   UNL     1     113.006 128.665 141.457  0.00  0.00    +0.000 OA
ATOM     17  C   UNL     1     113.018 127.006 139.619  0.00  0.00    +0.000 A 
ATOM     18  C   UNL     1     113.084 127.811 139.449  0.00  0.00    +0.000 A 
ATOM     19  C   UNL     1     112.949 126.754 140.401  0.00  0.00    +0.000 A 
ATOM     20  C   UNL     1     113.079 128.364 140.061  0.00  0.00    +0.000 A 
ATOM     21  C   UNL     1     112.944 127.307 141.014  0.00  0.00    +0.000 A 
ATOM     22  C   UNL     1     113.010 128.112 140.844  0.00  0.00    +0.000 A 
ENDBRANCH   7  17
ENDBRANCH   1   6
BRANCH   1  29
ATOM     23  O   UNL     1     111.224 127.227 137.913  0.00  0.00    +0.000 OA
ATOM     24  O   UNL     1     108.843 126.674 138.300  0.00  0.00    +0.000 OA
ATOM     25  O   UNL     1     109.267 127.669 137.055  0.00  0.00    +0.000 OA
ATOM     26  C   UNL     1     110.218 126.545 138.665  0.00  0.00    +0.000 C 
ATOM     27  C   UNL     1     109.637 126.859 138.171  0.00  0.00    +0.000 C 
ATOM     28  C   UNL     1     109.848 127.356 137.548  0.00  0.00    +0.000 C 
ATOM     29  C   UNL     1     111.012 126.729 138.536  0.00  0.00    +0.000 C 
ATOM     30  C   UNL     1     110.642 127.540 137.419  0.00  0.00    +0.000 C 
BRANCH  30  32
ATOM     31  O   UNL     1     111.247 128.747 136.952  0.00  0.00    +0.000 OA
ATOM     32  C   UNL     1     110.854 128.038 136.797  0.00  0.00    +0.000 C 
ENDBRANCH  30  32
BRANCH  26  33
ATOM     33  O   UNL     1     110.007 126.048 139.288  0.00  0.00    +0.000 OA
BRANCH  33  38
ATOM     34  O   UNL     1     109.678 127.182 140.093  0.00  0.00    +0.000 OA
ATOM     35  O   UNL     1     109.370 125.048 140.436  0.00  0.00    +0.000 OA
ATOM     36  O   UNL     1     108.722 125.683 141.815  0.00  0.00    +0.000 OA
ATOM     37  O   UNL     1     108.712 127.317 142.045  0.00  0.00    +0.000 OA
ATOM     38  C   UNL     1     109.683 126.365 139.977  0.00  0.00    +0.000 C 
ATOM     39  C   UNL     1     109.364 125.865 140.552  0.00  0.00    +0.000 C 
ATOM     40  C   UNL     1     109.041 126.182 141.241  0.00  0.00    +0.000 C 
ATOM     41  C   UNL     1     109.036 126.999 141.356  0.00  0.00    +0.000 C 
ATOM     42  C   UNL     1     109.354 127.499 140.783  0.00  0.00    +0.000 C 
ATOM     43  C   UNL     1     109.349 128.316 140.897  0.00  0.00    +0.000 C 
ENDBRANCH  33  38
ENDBRANCH  26  33
ENDBRANCH   1  29
TORSDOF 6
ENDMDL
MODEL 4
REMARK VINA RESULT:      -9.9      1.064      2.899
REMARK  Name = 14034827
REMARK  6 active torsions:
REMARK  status: ('A' for Active; 'I' for Inactive)
REMARK    1  A    between atoms: O_1  and  C_17
REMARK    2  A    between atoms: O_1  and  C_20
REMARK    3  A    between atoms: O_4  and  C_21
REMARK    4  A    between atoms: O_4  and  C_29
REMARK    5  A    between atoms: C_23  and  C_27
REMARK    6  A    between atoms: C_30  and  C_33
REMARK                            x       y       z     vdW  Elec       q    Type
REMARK                         _______ _______ _______ _____ _____    ______ ____
ROOT
ATOM      1  O   UNL     1     112.045 127.364 137.726  0.00  0.00    +0.000 OA
ENDROOT
BRANCH   1   6
ATOM      2  O   UNL     1     113.275 129.047 138.371  0.00  0.00    +0.000 OA
ATOM      3  O   UNL     1     112.313 126.967 139.305  0.00  0.00    +0.000 OA
ATOM      4  O   UNL     1     112.896 127.242 140.595  0.00  0.00    +0.000 OA
ATOM      5  O   UNL     1     114.483 129.668 140.947  0.00  0.00    +0.000 OA
ATOM      6  C   UNL     1     112.499 127.859 138.204  0.00  0.00    +0.000 A 
ATOM      7  C   UNL     1     112.820 128.552 137.892  0.00  0.00    +0.000 A 
ATOM      8  C   UNL     1     112.633 127.660 138.993  0.00  0.00    +0.000 A 
ATOM      9  C   UNL     1     113.088 128.155 139.471  0.00  0.00    +0.000 A 
ATOM     10  C   UNL     1     113.409 128.849 139.161  0.00  0.00    +0.000 A 
ATOM     11  C   UNL     1     113.221 127.938 140.293  0.00  0.00    +0.000 A 
ATOM     12  C   UNL     1     113.885 129.373 139.648  0.00  0.00    +0.000 A 
ATOM     13  C   UNL     1     113.694 128.449 140.795  0.00  0.00    +0.000 A 
ATOM     14  C   UNL     1     114.028 129.171 140.471  0.00  0.00    +0.000 A 
BRANCH   7  17
ATOM     15  O   UNL     1     111.162 129.727 135.882  0.00  0.00    +0.000 OA
ATOM     16  O   UNL     1     112.285 129.347 134.734  0.00  0.00    +0.000 OA
ATOM     17  C   UNL     1     112.686 128.751 137.104  0.00  0.00    +0.000 A 
ATOM     18  C   UNL     1     111.991 129.140 136.887  0.00  0.00    +0.000 A 
ATOM     19  C   UNL     1     113.248 128.561 136.530  0.00  0.00    +0.000 A 
ATOM     20  C   UNL     1     111.857 129.338 136.099  0.00  0.00    +0.000 A 
ATOM     21  C   UNL     1     113.114 128.760 135.739  0.00  0.00    +0.000 A 
ATOM     22  C   UNL     1     112.419 129.148 135.525  0.00  0.00    +0.000 A 
ENDBRANCH   7  17
ENDBRANCH   1   6
BRANCH   1  29
ATOM     23  O   UNL     1     113.043 126.352 137.579  0.00  0.00    +0.000 OA
ATOM     24  O   UNL     1     111.276 124.619 137.517  0.00  0.00    +0.000 OA
ATOM     25  O   UNL     1     112.862 124.185 137.391  0.00  0.00    +0.000 OA
ATOM     26  C   UNL     1     111.660 125.991 137.622  0.00  0.00    +0.000 C 
ATOM     27  C   UNL     1     111.865 125.197 137.538  0.00  0.00    +0.000 C 
ATOM     28  C   UNL     1     112.658 124.979 137.475  0.00  0.00    +0.000 C 
ATOM     29  C   UNL     1     112.248 126.569 137.642  0.00  0.00    +0.000 C 
ATOM     30  C   UNL     1     113.246 125.557 137.495  0.00  0.00    +0.000 C 
BRANCH  30  32
ATOM     31  O   UNL     1     114.491 125.611 136.796  0.00  0.00    +0.000 OA
ATOM     32  C   UNL     1     114.040 125.340 137.432  0.00  0.00    +0.000 C 
ENDBRANCH  30  32
BRANCH  26  33
ATOM     33  O   UNL     1     110.867 126.209 137.685  0.00  0.00    +0.000 OA
BRANCH  33  38
ATOM     34  O   UNL     1     110.715 126.080 136.270  0.00  0.00    +0.000 OA
ATOM     35  O   UNL     1     109.320 126.771 137.798  0.00  0.00    +0.000 OA
ATOM     36  O   UNL     1     108.396 126.923 136.440  0.00  0.00    +0.000 OA
ATOM     37  O   UNL     1     109.018 126.512 134.968  0.00  0.00    +0.000 OA
ATOM     38  C   UNL     1     110.405 126.285 137.006  0.00  0.00    +0.000 C 
ATOM     39  C   UNL     1     109.631 126.566 137.062  0.00  0.00    +0.000 C 
ATOM     40  C   UNL     1     109.168 126.642 136.383  0.00  0.00    +0.000 C 
ATOM     41  C   UNL     1     109.480 126.436 135.647  0.00  0.00    +0.000 C 
ATOM     42  C   UNL     1     110.253 126.155 135.591  0.00  0.00    +0.000 C 
ATOM     43  C   UNL     1     110.565 125.950 134.855  0.00  0.00    +0.000 C 
ENDBRANCH  33  38
ENDBRANCH  26  33
ENDBRANCH   1  29
TORSDOF 6
ENDMDL
MODEL 5
REMARK VINA RESULT:      -9.9      1.605      4.472
REMARK  Name = 14034827
REMARK  6 active torsions:
REMARK  status: ('A' for Active; 'I' for Inactive)
REMARK    1  A    between atoms: O_1  and  C_17
REMARK    2  A    between atoms: O_1  and  C_20
REMARK    3  A    between atoms: O_4  and  C_21
REMARK    4  A    between atoms: O_4  and  C_29
REMARK    5  A    between atoms: C_23  and  C_27
REMARK    6  A    between atoms: C_30  and  C_33
REMARK                            x       y       z     vdW  Elec       q    Type
REMARK                         _______ _______ _______ _____ _____    ______ ____
ROOT
ATOM      1  O   UNL     1     112.185 127.461 137.958  0.00  0.00    +0.000 OA
ENDROOT
BRANCH   1   6
ATOM      2  O   UNL     1     112.436 125.298 138.115  0.00  0.00    +0.000 OA
ATOM      3  O   UNL     1     111.576 126.970 136.504  0.00  0.00    +0.000 OA
ATOM      4  O   UNL     1     111.242 125.932 135.560  0.00  0.00    +0.000 OA
ATOM      5  O   UNL     1     111.787 123.150 136.259  0.00  0.00    +0.000 OA
ATOM      6  C   UNL     1     112.167 126.658 137.768  0.00  0.00    +0.000 A 
ATOM      7  C   UNL     1     112.453 126.101 138.305  0.00  0.00    +0.000 A 
ATOM      8  C   UNL     1     111.863 126.413 137.042  0.00  0.00    +0.000 A 
ATOM      9  C   UNL     1     111.845 125.611 136.851  0.00  0.00    +0.000 A 
ATOM     10  C   UNL     1     112.131 125.053 137.387  0.00  0.00    +0.000 A 
ATOM     11  C   UNL     1     111.526 125.367 136.091  0.00  0.00    +0.000 A 
ATOM     12  C   UNL     1     112.119 124.214 137.202  0.00  0.00    +0.000 A 
ATOM     13  C   UNL     1     111.505 124.533 135.887  0.00  0.00    +0.000 A 
ATOM     14  C   UNL     1     111.803 123.953 136.446  0.00  0.00    +0.000 A 
BRANCH   7  17
ATOM     15  O   UNL     1     112.105 126.570 141.102  0.00  0.00    +0.000 OA
ATOM     16  O   UNL     1     113.671 127.081 141.211  0.00  0.00    +0.000 OA
ATOM     17  C   UNL     1     112.757 126.346 139.031  0.00  0.00    +0.000 A 
ATOM     18  C   UNL     1     112.279 126.336 139.704  0.00  0.00    +0.000 A 
ATOM     19  C   UNL     1     113.540 126.601 139.085  0.00  0.00    +0.000 A 
ATOM     20  C   UNL     1     112.583 126.580 140.430  0.00  0.00    +0.000 A 
ATOM     21  C   UNL     1     113.845 126.846 139.813  0.00  0.00    +0.000 A 
ATOM     22  C   UNL     1     113.366 126.835 140.484  0.00  0.00    +0.000 A 
ENDBRANCH   7  17
ENDBRANCH   1   6
BRANCH   1  29
ATOM     23  O   UNL     1     110.783 127.577 138.214  0.00  0.00    +0.000 OA
ATOM     24  O   UNL     1     110.815 129.891 137.337  0.00  0.00    +0.000 OA
ATOM     25  O   UNL     1     109.405 129.236 137.884  0.00  0.00    +0.000 OA
ATOM     26  C   UNL     1     111.500 128.676 137.647  0.00  0.00    +0.000 C 
ATOM     27  C   UNL     1     110.805 129.120 137.629  0.00  0.00    +0.000 C 
ATOM     28  C   UNL     1     110.099 128.792 137.903  0.00  0.00    +0.000 C 
ATOM     29  C   UNL     1     111.490 127.905 137.939  0.00  0.00    +0.000 C 
ATOM     30  C   UNL     1     110.089 128.021 138.195  0.00  0.00    +0.000 C 
BRANCH  30  32
ATOM     31  O   UNL     1     109.324 127.439 139.252  0.00  0.00    +0.000 OA
ATOM     32  C   UNL     1     109.383 127.693 138.469  0.00  0.00    +0.000 C 
ENDBRANCH  30  32
BRANCH  26  33
ATOM     33  O   UNL     1     112.206 129.003 137.373  0.00  0.00    +0.000 OA
BRANCH  33  38
ATOM     34  O   UNL     1     112.385 129.667 138.627  0.00  0.00    +0.000 OA
ATOM     35  O   UNL     1     113.598 129.690 136.812  0.00  0.00    +0.000 OA
ATOM     36  O   UNL     1     114.472 130.696 137.785  0.00  0.00    +0.000 OA
ATOM     37  O   UNL     1     113.954 131.016 139.319  0.00  0.00    +0.000 OA
ATOM     38  C   UNL     1     112.643 129.506 137.860  0.00  0.00    +0.000 C 
ATOM     39  C   UNL     1     113.339 129.850 137.579  0.00  0.00    +0.000 C 
ATOM     40  C   UNL     1     113.777 130.353 138.065  0.00  0.00    +0.000 C 
ATOM     41  C   UNL     1     113.517 130.513 138.832  0.00  0.00    +0.000 C 
ATOM     42  C   UNL     1     112.822 130.170 139.113  0.00  0.00    +0.000 C 
ATOM     43  C   UNL     1     112.563 130.330 139.880  0.00  0.00    +0.000 C 
ENDBRANCH  33  38
ENDBRANCH  26  33
ENDBRANCH   1  29
TORSDOF 6
ENDMDL
MODEL 6
REMARK VINA RESULT:      -9.9      1.667      3.798
REMARK  Name = 14034827
REMARK  6 active torsions:
REMARK  status: ('A' for Active; 'I' for Inactive)
REMARK    1  A    between atoms: O_1  and  C_17
REMARK    2  A    between atoms: O_1  and  C_20
REMARK    3  A    between atoms: O_4  and  C_21
REMARK    4  A    between atoms: O_4  and  C_29
REMARK    5  A    between atoms: C_23  and  C_27
REMARK    6  A    between atoms: C_30  and  C_33
REMARK                            x       y       z     vdW  Elec       q    Type
REMARK                         _______ _______ _______ _____ _____    ______ ____
ROOT
ATOM      1  O   UNL     1     111.238 127.813 136.883  0.00  0.00    +0.000 OA
ENDROOT
BRANCH   1   6
ATOM      2  O   UNL     1     112.816 126.437 136.266  0.00  0.00    +0.000 OA
ATOM      3  O   UNL     1     110.693 126.400 137.539  0.00  0.00    +0.000 OA
ATOM      4  O   UNL     1     110.834 124.986 137.788  0.00  0.00    +0.000 OA
ATOM      5  O   UNL     1     113.165 123.583 136.729  0.00  0.00    +0.000 OA
ATOM      6  C   UNL     1     111.673 127.119 136.787  0.00  0.00    +0.000 A 
ATOM      7  C   UNL     1     112.380 127.131 136.362  0.00  0.00    +0.000 A 
ATOM      8  C   UNL     1     111.401 126.413 137.115  0.00  0.00    +0.000 A 
ATOM      9  C   UNL     1     111.836 125.719 137.019  0.00  0.00    +0.000 A 
ATOM     10  C   UNL     1     112.544 125.730 136.595  0.00  0.00    +0.000 A 
ATOM     11  C   UNL     1     111.542 124.989 137.365  0.00  0.00    +0.000 A 
ATOM     12  C   UNL     1     113.006 125.014 136.487  0.00  0.00    +0.000 A 
ATOM     13  C   UNL     1     111.992 124.263 137.269  0.00  0.00    +0.000 A 
ATOM     14  C   UNL     1     112.728 124.276 136.827  0.00  0.00    +0.000 A 
BRANCH   7  17
ATOM     15  O   UNL     1     114.086 129.421 136.482  0.00  0.00    +0.000 OA
ATOM     16  O   UNL     1     113.469 129.956 135.048  0.00  0.00    +0.000 OA
ATOM     17  C   UNL     1     112.653 127.837 136.034  0.00  0.00    +0.000 A 
ATOM     18  C   UNL     1     113.233 128.276 136.422  0.00  0.00    +0.000 A 
ATOM     19  C   UNL     1     112.344 128.104 135.317  0.00  0.00    +0.000 A 
ATOM     20  C   UNL     1     113.506 128.982 136.094  0.00  0.00    +0.000 A 
ATOM     21  C   UNL     1     112.616 128.811 134.988  0.00  0.00    +0.000 A 
ATOM     22  C   UNL     1     113.197 129.249 135.377  0.00  0.00    +0.000 A 
ENDBRANCH   7  17
ENDBRANCH   1   6
BRANCH   1  29
ATOM     23  O   UNL     1     111.586 128.020 138.253  0.00  0.00    +0.000 OA
ATOM     24  O   UNL     1     109.335 128.955 138.683  0.00  0.00    +0.000 OA
ATOM     25  O   UNL     1     110.433 128.851 139.909  0.00  0.00    +0.000 OA
ATOM     26  C   UNL     1     110.286 128.384 137.783  0.00  0.00    +0.000 C 
ATOM     27  C   UNL     1     110.085 128.643 138.540  0.00  0.00    +0.000 C 
ATOM     28  C   UNL     1     110.634 128.592 139.153  0.00  0.00    +0.000 C 
ATOM     29  C   UNL     1     111.036 128.072 137.639  0.00  0.00    +0.000 C 
ATOM     30  C   UNL     1     111.384 128.280 139.009  0.00  0.00    +0.000 C 
BRANCH  30  32
ATOM     31  O   UNL     1     112.650 128.636 139.569  0.00  0.00    +0.000 OA
ATOM     32  C   UNL     1     111.934 128.228 139.622  0.00  0.00    +0.000 C 
ENDBRANCH  30  32
BRANCH  26  33
ATOM     33  O   UNL     1     109.737 128.436 137.170  0.00  0.00    +0.000 OA
BRANCH  33  38
ATOM     34  O   UNL     1     110.072 129.812 136.977  0.00  0.00    +0.000 OA
ATOM     35  O   UNL     1     108.496 128.587 136.093  0.00  0.00    +0.000 OA
ATOM     36  O   UNL     1     108.210 130.039 135.362  0.00  0.00    +0.000 OA
ATOM     37  O   UNL     1     109.166 131.339 135.708  0.00  0.00    +0.000 OA
ATOM     38  C   UNL     1     109.594 129.161 136.804  0.00  0.00    +0.000 C 
ATOM     39  C   UNL     1     108.973 129.237 136.266  0.00  0.00    +0.000 C 
ATOM     40  C   UNL     1     108.830 129.963 135.900  0.00  0.00    +0.000 C 
ATOM     41  C   UNL     1     109.309 130.613 136.073  0.00  0.00    +0.000 C 
ATOM     42  C   UNL     1     109.929 130.537 136.611  0.00  0.00    +0.000 C 
ATOM     43  C   UNL     1     110.407 131.187 136.784  0.00  0.00    +0.000 C 
ENDBRANCH  33  38
ENDBRANCH  26  33
ENDBRANCH   1  29
TORSDOF 6
ENDMDL
MODEL 7
REMARK VINA RESULT:      -9.9      1.608      3.547
REMARK  Name = 14034827
REMARK  6 active torsions:
REMARK  status: ('A' for Active; 'I' for Inactive)
REMARK    1  A    between atoms: O_1  and  C_17
REMARK    2  A    between atoms: O_1  and  C_20
REMARK    3  A    between atoms: O_4  and  C_21
REMARK    4  A    between atoms: O_4  and  C_29
REMARK    5  A    between atoms: C_23  and  C_27
REMARK    6  A    between atoms: C_30  and  C_33
REMARK                            x       y       z     vdW  Elec       q    Type
REMARK                         _______ _______ _______ _____ _____    ______ ____
ROOT
ATOM      1  O   UNL     1     112.238 127.959 138.125  0.00  0.00    +0.000 OA
ENDROOT
BRANCH   1   6
ATOM      2  O   UNL     1     113.524 129.723 138.139  0.00  0.00    +0.000 OA
ATOM      3  O   UNL     1     112.549 128.106 139.739  0.00  0.00    +0.000 OA
ATOM      4  O   UNL     1     113.179 128.780 140.849  0.00  0.00    +0.000 OA
ATOM      5  O   UNL     1     114.826 131.134 140.329  0.00  0.00    +0.000 OA
ATOM      6  C   UNL     1     112.719 128.572 138.399  0.00  0.00    +0.000 A 
ATOM      7  C   UNL     1     113.044 129.111 137.865  0.00  0.00    +0.000 A 
ATOM      8  C   UNL     1     112.873 128.645 139.205  0.00  0.00    +0.000 A 
ATOM      9  C   UNL     1     113.354 129.257 139.479  0.00  0.00    +0.000 A 
ATOM     10  C   UNL     1     113.679 129.797 138.947  0.00  0.00    +0.000 A 
ATOM     11  C   UNL     1     113.508 129.324 140.323  0.00  0.00    +0.000 A 
ATOM     12  C   UNL     1     114.181 130.439 139.219  0.00  0.00    +0.000 A 
ATOM     13  C   UNL     1     114.007 129.959 140.613  0.00  0.00    +0.000 A 
ATOM     14  C   UNL     1     114.346 130.520 140.058  0.00  0.00    +0.000 A 
BRANCH   7  17
ATOM     15  O   UNL     1     111.550 129.876 135.552  0.00  0.00    +0.000 OA
ATOM     16  O   UNL     1     112.424 128.817 134.637  0.00  0.00    +0.000 OA
ATOM     17  C   UNL     1     112.889 129.037 137.059  0.00  0.00    +0.000 A 
ATOM     18  C   UNL     1     112.297 129.493 136.709  0.00  0.00    +0.000 A 
ATOM     19  C   UNL     1     113.326 128.508 136.601  0.00  0.00    +0.000 A 
ATOM     20  C   UNL     1     112.142 129.420 135.902  0.00  0.00    +0.000 A 
ATOM     21  C   UNL     1     113.171 128.435 135.794  0.00  0.00    +0.000 A 
ATOM     22  C   UNL     1     112.579 128.891 135.445  0.00  0.00    +0.000 A 
ENDBRANCH   7  17
ENDBRANCH   1   6
BRANCH   1  29
ATOM     23  O   UNL     1     111.008 128.534 138.571  0.00  0.00    +0.000 OA
ATOM     24  O   UNL     1     110.115 126.270 139.022  0.00  0.00    +0.000 OA
ATOM     25  O   UNL     1     109.183 127.599 139.317  0.00  0.00    +0.000 OA
ATOM     26  C   UNL     1     111.177 127.114 138.574  0.00  0.00    +0.000 C 
ATOM     27  C   UNL     1     110.413 127.025 138.872  0.00  0.00    +0.000 C 
ATOM     28  C   UNL     1     109.947 127.689 139.019  0.00  0.00    +0.000 C 
ATOM     29  C   UNL     1     111.475 127.869 138.423  0.00  0.00    +0.000 C 
ATOM     30  C   UNL     1     110.244 128.443 138.869  0.00  0.00    +0.000 C 
BRANCH  30  32
ATOM     31  O   UNL     1     109.527 129.582 138.389  0.00  0.00    +0.000 OA
ATOM     32  C   UNL     1     109.779 129.108 139.016  0.00  0.00    +0.000 C 
ENDBRANCH  30  32
BRANCH  26  33
ATOM     33  O   UNL     1     111.643 126.450 138.426  0.00  0.00    +0.000 OA
BRANCH  33  38
ATOM     34  O   UNL     1     110.980 126.250 137.176  0.00  0.00    +0.000 OA
ATOM     35  O   UNL     1     112.399 124.993 138.257  0.00  0.00    +0.000 OA
ATOM     36  O   UNL     1     112.113 124.066 136.923  0.00  0.00    +0.000 OA
ATOM     37  O   UNL     1     111.072 124.595 135.757  0.00  0.00    +0.000 OA
ATOM     38  C   UNL     1     111.500 125.986 137.759  0.00  0.00    +0.000 C 
ATOM     39  C   UNL     1     111.878 125.257 137.674  0.00  0.00    +0.000 C 
ATOM     40  C   UNL     1     111.736 124.793 137.007  0.00  0.00    +0.000 C 
ATOM     41  C   UNL     1     111.215 125.059 136.425  0.00  0.00    +0.000 C 
ATOM     42  C   UNL     1     110.837 125.787 136.509  0.00  0.00    +0.000 C 
ATOM     43  C   UNL     1     110.316 126.052 135.926  0.00  0.00    +0.000 C 
ENDBRANCH  33  38
ENDBRANCH  26  33
ENDBRANCH   1  29
TORSDOF 6
ENDMDL
MODEL 8
REMARK VINA RESULT:      -9.9      1.831      3.724
REMARK  Name = 14034827
REMARK  6 active torsions:
REMARK  status: ('A' for Active; 'I' for Inactive)
REMARK    1  A    between atoms: O_1  and  C_17
REMARK    2  A    between atoms: O_1  and  C_20
REMARK    3  A    between atoms: O_4  and  C_21
REMARK    4  A    between atoms: O_4  and  C_29
REMARK    5  A    between atoms: C_23  and  C_27
REMARK    6  A    between atoms: C_30  and  C_33
REMARK                            x       y       z     vdW  Elec       q    Type
REMARK                         _______ _______ _______ _____ _____    ______ ____
ROOT
ATOM      1  O   UNL     1     110.804 127.708 136.813  0.00  0.00    +0.000 OA
ENDROOT
BRANCH   1   6
ATOM      2  O   UNL     1     111.301 125.974 138.041  0.00  0.00    +0.000 OA
ATOM      3  O   UNL     1     111.022 126.557 135.652  0.00  0.00    +0.000 OA
ATOM      4  O   UNL     1     111.332 125.205 135.256  0.00  0.00    +0.000 OA
ATOM      5  O   UNL     1     111.936 123.226 137.316  0.00  0.00    +0.000 OA
ATOM      6  C   UNL     1     111.006 126.938 137.029  0.00  0.00    +0.000 A 
ATOM      7  C   UNL     1     111.099 126.744 137.826  0.00  0.00    +0.000 A 
ATOM      8  C   UNL     1     111.115 126.363 136.449  0.00  0.00    +0.000 A 
ATOM      9  C   UNL     1     111.316 125.593 136.664  0.00  0.00    +0.000 A 
ATOM     10  C   UNL     1     111.410 125.397 137.460  0.00  0.00    +0.000 A 
ATOM     11  C   UNL     1     111.427 125.001 136.050  0.00  0.00    +0.000 A 
ATOM     12  C   UNL     1     111.619 124.599 137.698  0.00  0.00    +0.000 A 
ATOM     13  C   UNL     1     111.637 124.197 136.268  0.00  0.00    +0.000 A 
ATOM     14  C   UNL     1     111.734 123.995 137.098  0.00  0.00    +0.000 A 
BRANCH   7  17
ATOM     15  O   UNL     1     109.360 128.270 139.504  0.00  0.00    +0.000 OA
ATOM     16  O   UNL     1     110.664 129.047 140.149  0.00  0.00    +0.000 OA
ATOM     17  C   UNL     1     110.990 127.319 138.406  0.00  0.00    +0.000 A 
ATOM     18  C   UNL     1     110.229 127.507 138.665  0.00  0.00    +0.000 A 
ATOM     19  C   UNL     1     111.642 127.708 138.729  0.00  0.00    +0.000 A 
ATOM     20  C   UNL     1     110.121 128.082 139.245  0.00  0.00    +0.000 A 
ATOM     21  C   UNL     1     111.534 128.284 139.310  0.00  0.00    +0.000 A 
ATOM     22  C   UNL     1     110.773 128.471 139.568  0.00  0.00    +0.000 A 
ENDBRANCH   7  17
ENDBRANCH   1   6
BRANCH   1  29
ATOM     23  O   UNL     1     112.100 128.059 136.322  0.00  0.00    +0.000 OA
ATOM     24  O   UNL     1     111.058 129.513 134.612  0.00  0.00    +0.000 OA
ATOM     25  O   UNL     1     112.699 129.379 134.691  0.00  0.00    +0.000 OA
ATOM     26  C   UNL     1     110.930 128.611 135.713  0.00  0.00    +0.000 C 
ATOM     27  C   UNL     1     111.405 129.028 135.182  0.00  0.00    +0.000 C 
ATOM     28  C   UNL     1     112.226 128.961 135.221  0.00  0.00    +0.000 C 
ATOM     29  C   UNL     1     111.278 128.126 136.283  0.00  0.00    +0.000 C 
ATOM     30  C   UNL     1     112.573 128.477 135.791  0.00  0.00    +0.000 C 
BRANCH  30  32
ATOM     31  O   UNL     1     113.794 128.647 136.513  0.00  0.00    +0.000 OA
ATOM     32  C   UNL     1     113.394 128.409 135.831  0.00  0.00    +0.000 C 
ENDBRANCH  30  32
BRANCH  26  33
ATOM     33  O   UNL     1     110.110 128.678 135.673  0.00  0.00    +0.000 OA
BRANCH  33  38
ATOM     34  O   UNL     1     110.175 129.920 136.377  0.00  0.00    +0.000 OA
ATOM     35  O   UNL     1     108.482 128.871 135.485  0.00  0.00    +0.000 OA
ATOM     36  O   UNL     1     107.733 130.209 136.095  0.00  0.00    +0.000 OA
ATOM     37  O   UNL     1     108.613 131.354 136.893  0.00  0.00    +0.000 OA
ATOM     38  C   UNL     1     109.735 129.347 135.978  0.00  0.00    +0.000 C 
ATOM     39  C   UNL     1     108.921 129.444 135.884  0.00  0.00    +0.000 C 
ATOM     40  C   UNL     1     108.547 130.113 136.189  0.00  0.00    +0.000 C 
ATOM     41  C   UNL     1     108.987 130.685 136.588  0.00  0.00    +0.000 C 
ATOM     42  C   UNL     1     109.800 130.589 136.682  0.00  0.00    +0.000 C 
ATOM     43  C   UNL     1     110.241 131.162 137.081  0.00  0.00    +0.000 C 
ENDBRANCH  33  38
ENDBRANCH  26  33
ENDBRANCH   1  29
TORSDOF 6
ENDMDL
MODEL 9
REMARK VINA RESULT:      -9.8      2.165      4.315
REMARK  Name = 14034827
REMARK  6 active torsions:
REMARK  status: ('A' for Active; 'I' for Inactive)
REMARK    1  A    between atoms: O_1  and  C_17
REMARK    2  A    between atoms: O_1  and  C_20
REMARK    3  A    between atoms: O_4  and  C_21
REMARK    4  A    between atoms: O_4  and  C_29
REMARK    5  A    between atoms: C_23  and  C_27
REMARK    6  A    between atoms: C_30  and  C_33
REMARK                            x       y       z     vdW  Elec       q    Type
REMARK                         _______ _______ _______ _____ _____    ______ ____
ROOT
ATOM      1  O   UNL     1     110.641 128.116 137.552  0.00  0.00    +0.000 OA
ENDROOT
BRANCH   1   6
ATOM      2  O   UNL     1     110.570 126.574 136.009  0.00  0.00    +0.000 OA
ATOM      3  O   UNL     1     111.414 126.875 138.317  0.00  0.00    +0.000 OA
ATOM      4  O   UNL     1     111.919 125.524 138.339  0.00  0.00    +0.000 OA
ATOM      5  O   UNL     1     111.564 123.837 135.982  0.00  0.00    +0.000 OA
ATOM      6  C   UNL     1     110.746 127.395 137.165  0.00  0.00    +0.000 A 
ATOM      7  C   UNL     1     110.464 127.295 136.396  0.00  0.00    +0.000 A 
ATOM      8  C   UNL     1     111.132 126.775 137.547  0.00  0.00    +0.000 A 
ATOM      9  C   UNL     1     111.237 126.054 137.161  0.00  0.00    +0.000 A 
ATOM     10  C   UNL     1     110.956 125.953 136.392  0.00  0.00    +0.000 A 
ATOM     11  C   UNL     1     111.641 125.414 137.569  0.00  0.00    +0.000 A 
ATOM     12  C   UNL     1     111.059 125.207 135.978  0.00  0.00    +0.000 A 
ATOM     13  C   UNL     1     111.754 124.661 137.171  0.00  0.00    +0.000 A 
ATOM     14  C   UNL     1     111.461 124.557 136.371  0.00  0.00    +0.000 A 
BRANCH   7  17
ATOM     15  O   UNL     1     108.084 128.795 135.895  0.00  0.00    +0.000 OA
ATOM     16  O   UNL     1     108.920 129.778 134.866  0.00  0.00    +0.000 OA
ATOM     17  C   UNL     1     110.078 127.915 136.014  0.00  0.00    +0.000 A 
ATOM     18  C   UNL     1     109.274 128.045 136.146  0.00  0.00    +0.000 A 
ATOM     19  C   UNL     1     110.496 128.407 135.500  0.00  0.00    +0.000 A 
ATOM     20  C   UNL     1     108.888 128.665 135.763  0.00  0.00    +0.000 A 
ATOM     21  C   UNL     1     110.110 129.028 135.117  0.00  0.00    +0.000 A 
ATOM     22  C   UNL     1     109.306 129.157 135.249  0.00  0.00    +0.000 A 
ENDBRANCH   7  17
ENDBRANCH   1   6
BRANCH   1  29
ATOM     23  O   UNL     1     112.000 128.541 137.435  0.00  0.00    +0.000 OA
ATOM     24  O   UNL     1     111.832 129.682 139.625  0.00  0.00    +0.000 OA
ATOM     25  O   UNL     1     113.247 129.726 138.778  0.00  0.00    +0.000 OA
ATOM     26  C   UNL     1     111.236 128.899 138.589  0.00  0.00    +0.000 C 
ATOM     27  C   UNL     1     111.888 129.302 138.895  0.00  0.00    +0.000 C 
ATOM     28  C   UNL     1     112.596 129.324 138.472  0.00  0.00    +0.000 C 
ATOM     29  C   UNL     1     111.292 128.519 137.859  0.00  0.00    +0.000 C 
ATOM     30  C   UNL     1     112.652 128.944 137.742  0.00  0.00    +0.000 C 
BRANCH  30  32
ATOM     31  O   UNL     1     113.383 129.324 136.575  0.00  0.00    +0.000 OA
ATOM     32  C   UNL     1     113.359 128.966 137.318  0.00  0.00    +0.000 C 
ENDBRANCH  30  32
BRANCH  26  33
ATOM     33  O   UNL     1     110.529 128.877 139.012  0.00  0.00    +0.000 OA
BRANCH  33  38
ATOM     34  O   UNL     1     110.201 130.184 138.535  0.00  0.00    +0.000 OA
ATOM     35  O   UNL     1     109.152 128.864 139.921  0.00  0.00    +0.000 OA
ATOM     36  O   UNL     1     108.136 130.164 139.898  0.00  0.00    +0.000 OA
ATOM     37  O   UNL     1     108.497 131.477 138.966  0.00  0.00    +0.000 OA
ATOM     38  C   UNL     1     110.021 129.527 139.001  0.00  0.00    +0.000 C 
ATOM     39  C   UNL     1     109.332 129.521 139.455  0.00  0.00    +0.000 C 
ATOM     40  C   UNL     1     108.824 130.170 139.444  0.00  0.00    +0.000 C 
ATOM     41  C   UNL     1     109.005 130.827 138.977  0.00  0.00    +0.000 C 
ATOM     42  C   UNL     1     109.693 130.833 138.523  0.00  0.00    +0.000 C 
ATOM     43  C   UNL     1     109.874 131.490 138.057  0.00  0.00    +0.000 C 
ENDBRANCH  33  38
ENDBRANCH  26  33
ENDBRANCH   1  29
TORSDOF 6
ENDMDL
MODEL 10
REMARK VINA RESULT:      -9.7      1.823      4.103
REMARK  Name = 14034827
REMARK  6 active torsions:
REMARK  status: ('A' for Active; 'I' for Inactive)
REMARK    1  A    between atoms: O_1  and  C_17
REMARK    2  A    between atoms: O_1  and  C_20
REMARK    3  A    between atoms: O_4  and  C_21
REMARK    4  A    between atoms: O_4  and  C_29
REMARK    5  A    between atoms: C_23  and  C_27
REMARK    6  A    between atoms: C_30  and  C_33
REMARK                            x       y       z     vdW  Elec       q    Type
REMARK                         _______ _______ _______ _____ _____    ______ ____
ROOT
ATOM      1  O   UNL     1     111.644 128.053 137.219  0.00  0.00    +0.000 OA
ENDROOT
BRANCH   1   6
ATOM      2  O   UNL     1     113.202 126.696 136.515  0.00  0.00    +0.000 OA
ATOM      3  O   UNL     1     111.046 126.601 137.726  0.00  0.00    +0.000 OA
ATOM      4  O   UNL     1     111.142 125.166 137.844  0.00  0.00    +0.000 OA
ATOM      5  O   UNL     1     113.465 123.803 136.716  0.00  0.00    +0.000 OA
ATOM      6  C   UNL     1     112.064 127.358 137.069  0.00  0.00    +0.000 A 
ATOM      7  C   UNL     1     112.783 127.390 136.665  0.00  0.00    +0.000 A 
ATOM      8  C   UNL     1     111.765 126.633 137.322  0.00  0.00    +0.000 A 
ATOM      9  C   UNL     1     112.184 125.939 137.172  0.00  0.00    +0.000 A 
ATOM     10  C   UNL     1     112.903 125.970 136.769  0.00  0.00    +0.000 A 
ATOM     11  C   UNL     1     111.862 125.188 137.441  0.00  0.00    +0.000 A 
ATOM     12  C   UNL     1     113.350 125.254 136.606  0.00  0.00    +0.000 A 
ATOM     13  C   UNL     1     112.295 124.462 137.288  0.00  0.00    +0.000 A 
ATOM     14  C   UNL     1     113.043 124.495 136.867  0.00  0.00    +0.000 A 
BRANCH   7  17
ATOM     15  O   UNL     1     113.112 129.352 134.612  0.00  0.00    +0.000 OA
ATOM     16  O   UNL     1     113.981 130.293 135.651  0.00  0.00    +0.000 OA
ATOM     17  C   UNL     1     113.082 128.116 136.412  0.00  0.00    +0.000 A 
ATOM     18  C   UNL     1     112.947 128.371 135.639  0.00  0.00    +0.000 A 
ATOM     19  C   UNL     1     113.517 128.586 136.931  0.00  0.00    +0.000 A 
ATOM     20  C   UNL     1     113.246 129.096 135.385  0.00  0.00    +0.000 A 
ATOM     21  C   UNL     1     113.817 129.313 136.678  0.00  0.00    +0.000 A 
ATOM     22  C   UNL     1     113.681 129.567 135.905  0.00  0.00    +0.000 A 
ENDBRANCH   7  17
ENDBRANCH   1   6
BRANCH   1  29
ATOM     23  O   UNL     1     110.609 127.780 136.273  0.00  0.00    +0.000 OA
ATOM     24  O   UNL     1     108.987 128.987 137.701  0.00  0.00    +0.000 OA
ATOM     25  O   UNL     1     108.493 128.313 136.279  0.00  0.00    +0.000 OA
ATOM     26  C   UNL     1     110.316 128.520 137.460  0.00  0.00    +0.000 C 
ATOM     27  C   UNL     1     109.527 128.585 137.225  0.00  0.00    +0.000 C 
ATOM     28  C   UNL     1     109.280 128.248 136.514  0.00  0.00    +0.000 C 
ATOM     29  C   UNL     1     110.856 128.118 136.985  0.00  0.00    +0.000 C 
ATOM     30  C   UNL     1     109.821 127.845 136.038  0.00  0.00    +0.000 C 
BRANCH  30  32
ATOM     31  O   UNL     1     109.882 127.783 134.612  0.00  0.00    +0.000 OA
ATOM     32  C   UNL     1     109.574 127.508 135.327  0.00  0.00    +0.000 C 
ENDBRANCH  30  32
BRANCH  26  33
ATOM     33  O   UNL     1     110.563 128.857 138.171  0.00  0.00    +0.000 OA
BRANCH  33  38
ATOM     34  O   UNL     1     110.608 130.142 137.547  0.00  0.00    +0.000 OA
ATOM     35  O   UNL     1     110.969 129.544 139.615  0.00  0.00    +0.000 OA
ATOM     36  O   UNL     1     111.217 131.173 139.713  0.00  0.00    +0.000 OA
ATOM     37  O   UNL     1     111.059 132.114 138.367  0.00  0.00    +0.000 OA
ATOM     38  C   UNL     1     110.687 129.671 138.220  0.00  0.00    +0.000 C 
ATOM     39  C   UNL     1     110.890 130.015 138.943  0.00  0.00    +0.000 C 
ATOM     40  C   UNL     1     111.014 130.830 138.992  0.00  0.00    +0.000 C 
ATOM     41  C   UNL     1     110.935 131.300 138.318  0.00  0.00    +0.000 C 
ATOM     42  C   UNL     1     110.732 130.957 137.597  0.00  0.00    +0.000 C 
ATOM     43  C   UNL     1     110.653 131.427 136.923  0.00  0.00    +0.000 C 
ENDBRANCH  33  38
ENDBRANCH  26  33
ENDBRANCH   1  29
TORSDOF 6
ENDMDL
