MODEL 1
REMARK VINA RESULT:      -7.9      0.000      0.000
REMARK  Name = 633124
REMARK  5 active torsions:
REMARK  status: ('A' for Active; 'I' for Inactive)
REMARK    1  A    between atoms: O_2  and  C_14
REMARK    2  A    between atoms: O_3  and  C_18
REMARK    3  A    between atoms: O_7  and  C_22
REMARK    4  A    between atoms: O_8  and  C_24
REMARK    5  A    between atoms: C_12  and  C_13
REMARK                            x       y       z     vdW  Elec       q    Type
REMARK                         _______ _______ _______ _____ _____    ______ ____
ROOT
ATOM      1  O   UNL     1     110.606 127.397 136.134  0.00  0.00    +0.000 OA
ATOM      2  O   UNL     1     108.043 128.668 135.697  0.00  0.00    +0.000 OA
ATOM      3  O   UNL     1     110.455 130.115 135.190  0.00  0.00    +0.000 OA
ATOM      4  O   UNL     1     108.076 127.305 136.171  0.00  0.00    +0.000 OA
ATOM      5  C   UNL     1     109.310 128.042 135.912  0.00  0.00    +0.000 A 
ATOM      6  C   UNL     1     110.134 128.075 135.899  0.00  0.00    +0.000 A 
ATOM      7  C   UNL     1     110.215 126.675 136.386  0.00  0.00    +0.000 A 
ATOM      8  C   UNL     1     110.516 128.767 135.658  0.00  0.00    +0.000 A 
ATOM      9  C   UNL     1     108.868 128.701 135.684  0.00  0.00    +0.000 A 
ATOM     10  C   UNL     1     108.901 127.329 136.161  0.00  0.00    +0.000 A 
ATOM     11  C   UNL     1     109.357 126.640 136.399  0.00  0.00    +0.000 A 
ATOM     12  C   UNL     1     109.249 129.391 135.444  0.00  0.00    +0.000 A 
ATOM     13  C   UNL     1     110.073 129.424 135.431  0.00  0.00    +0.000 A 
ENDROOT
BRANCH   7  15
ATOM     14  O   UNL     1     111.473 124.191 135.738  0.00  0.00    +0.000 OA
ATOM     15  C   UNL     1     110.661 126.018 136.613  0.00  0.00    +0.000 A 
ATOM     16  C   UNL     1     110.924 125.949 137.392  0.00  0.00    +0.000 A 
ATOM     17  C   UNL     1     110.844 125.432 136.062  0.00  0.00    +0.000 A 
ATOM     18  C   UNL     1     111.370 125.293 137.620  0.00  0.00    +0.000 A 
ATOM     19  C   UNL     1     111.289 124.777 136.289  0.00  0.00    +0.000 A 
ATOM     20  C   UNL     1     111.553 124.707 137.069  0.00  0.00    +0.000 A 
BRANCH  18  21
ATOM     21  O   UNL     1     111.632 125.223 138.399  0.00  0.00    +0.000 OA
ATOM     22  C   UNL     1     111.463 125.817 138.946  0.00  0.00    +0.000 C 
ENDBRANCH  18  21
BRANCH  20  23
ATOM     23  O   UNL     1     111.998 124.052 137.296  0.00  0.00    +0.000 OA
ATOM     24  C   UNL     1     112.723 123.900 136.934  0.00  0.00    +0.000 C 
ENDBRANCH  20  23
ENDBRANCH   7  15
BRANCH   8  25
ATOM     25  O   UNL     1     111.340 128.799 135.645  0.00  0.00    +0.000 OA
ATOM     26  C   UNL     1     111.736 128.940 134.936  0.00  0.00    +0.000 C 
ENDBRANCH   8  25
BRANCH  12  27
ATOM     27  O   UNL     1     108.807 130.049 135.216  0.00  0.00    +0.000 OA
ATOM     28  C   UNL     1     108.595 130.618 135.774  0.00  0.00    +0.000 C 
ENDBRANCH  12  27
TORSDOF 5
ENDMDL
MODEL 2
REMARK VINA RESULT:      -7.8      2.620      5.244
REMARK  Name = 633124
REMARK  5 active torsions:
REMARK  status: ('A' for Active; 'I' for Inactive)
REMARK    1  A    between atoms: O_2  and  C_14
REMARK    2  A    between atoms: O_3  and  C_18
REMARK    3  A    between atoms: O_7  and  C_22
REMARK    4  A    between atoms: O_8  and  C_24
REMARK    5  A    between atoms: C_12  and  C_13
REMARK                            x       y       z     vdW  Elec       q    Type
REMARK                         _______ _______ _______ _____ _____    ______ ____
ROOT
ATOM      1  O   UNL     1     112.675 126.846 136.250  0.00  0.00    +0.000 OA
ATOM      2  O   UNL     1     113.677 124.201 136.859  0.00  0.00    +0.000 OA
ATOM      3  O   UNL     1     110.956 124.542 136.053  0.00  0.00    +0.000 OA
ATOM      4  O   UNL     1     114.570 125.329 136.970  0.00  0.00    +0.000 OA
ATOM      5  C   UNL     1     113.180 125.506 136.558  0.00  0.00    +0.000 A 
ATOM      6  C   UNL     1     112.561 125.998 136.323  0.00  0.00    +0.000 A 
ATOM      7  C   UNL     1     113.445 127.187 136.424  0.00  0.00    +0.000 A 
ATOM      8  C   UNL     1     111.819 125.677 136.155  0.00  0.00    +0.000 A 
ATOM      9  C   UNL     1     113.058 124.693 136.624  0.00  0.00    +0.000 A 
ATOM     10  C   UNL     1     113.956 125.828 136.736  0.00  0.00    +0.000 A 
ATOM     11  C   UNL     1     114.090 126.675 136.669  0.00  0.00    +0.000 A 
ATOM     12  C   UNL     1     112.317 124.372 136.456  0.00  0.00    +0.000 A 
ATOM     13  C   UNL     1     111.698 124.863 136.221  0.00  0.00    +0.000 A 
ENDROOT
BRANCH   7  15
ATOM     14  O   UNL     1     114.306 129.446 134.899  0.00  0.00    +0.000 OA
ATOM     15  C   UNL     1     113.563 128.001 136.356  0.00  0.00    +0.000 A 
ATOM     16  C   UNL     1     113.368 128.499 136.985  0.00  0.00    +0.000 A 
ATOM     17  C   UNL     1     113.876 128.317 135.661  0.00  0.00    +0.000 A 
ATOM     18  C   UNL     1     113.486 129.313 136.918  0.00  0.00    +0.000 A 
ATOM     19  C   UNL     1     113.993 129.130 135.594  0.00  0.00    +0.000 A 
ATOM     20  C   UNL     1     113.799 129.629 136.223  0.00  0.00    +0.000 A 
BRANCH  18  21
ATOM     21  O   UNL     1     113.292 129.811 137.546  0.00  0.00    +0.000 OA
ATOM     22  C   UNL     1     112.727 129.576 138.100  0.00  0.00    +0.000 C 
ENDBRANCH  18  21
BRANCH  20  23
ATOM     23  O   UNL     1     113.917 130.442 136.156  0.00  0.00    +0.000 OA
ATOM     24  C   UNL     1     114.682 130.745 136.103  0.00  0.00    +0.000 C 
ENDBRANCH  20  23
ENDBRANCH   7  15
BRANCH   8  25
ATOM     25  O   UNL     1     111.200 126.169 135.920  0.00  0.00    +0.000 OA
ATOM     26  C   UNL     1     110.830 126.047 135.193  0.00  0.00    +0.000 C 
ENDBRANCH   8  25
BRANCH  12  27
ATOM     27  O   UNL     1     112.195 123.558 136.523  0.00  0.00    +0.000 OA
ATOM     28  C   UNL     1     111.918 123.239 137.230  0.00  0.00    +0.000 C 
ENDBRANCH  12  27
TORSDOF 5
ENDMDL
MODEL 3
REMARK VINA RESULT:      -7.8      0.618      4.827
REMARK  Name = 633124
REMARK  5 active torsions:
REMARK  status: ('A' for Active; 'I' for Inactive)
REMARK    1  A    between atoms: O_2  and  C_14
REMARK    2  A    between atoms: O_3  and  C_18
REMARK    3  A    between atoms: O_7  and  C_22
REMARK    4  A    between atoms: O_8  and  C_24
REMARK    5  A    between atoms: C_12  and  C_13
REMARK                            x       y       z     vdW  Elec       q    Type
REMARK                         _______ _______ _______ _____ _____    ______ ____
ROOT
ATOM      1  O   UNL     1     110.436 126.891 136.680  0.00  0.00    +0.000 OA
ATOM      2  O   UNL     1     111.234 124.275 135.733  0.00  0.00    +0.000 OA
ATOM      3  O   UNL     1     111.687 125.002 138.460  0.00  0.00    +0.000 OA
ATOM      4  O   UNL     1     110.610 125.193 134.810  0.00  0.00    +0.000 OA
ATOM      5  C   UNL     1     110.841 125.566 136.203  0.00  0.00    +0.000 A 
ATOM      6  C   UNL     1     110.785 126.118 136.814  0.00  0.00    +0.000 A 
ATOM      7  C   UNL     1     110.141 127.093 135.898  0.00  0.00    +0.000 A 
ATOM      8  C   UNL     1     111.068 125.930 137.567  0.00  0.00    +0.000 A 
ATOM      9  C   UNL     1     111.178 124.827 136.344  0.00  0.00    +0.000 A 
ATOM     10  C   UNL     1     110.551 125.750 135.415  0.00  0.00    +0.000 A 
ATOM     11  C   UNL     1     110.198 126.519 135.262  0.00  0.00    +0.000 A 
ATOM     12  C   UNL     1     111.460 124.639 137.096  0.00  0.00    +0.000 A 
ATOM     13  C   UNL     1     111.405 125.190 137.707  0.00  0.00    +0.000 A 
ENDROOT
BRANCH   7  15
ATOM     14  O   UNL     1     107.846 128.795 135.830  0.00  0.00    +0.000 OA
ATOM     15  C   UNL     1     109.804 127.834 135.761  0.00  0.00    +0.000 A 
ATOM     16  C   UNL     1     110.279 128.464 135.520  0.00  0.00    +0.000 A 
ATOM     17  C   UNL     1     108.993 127.945 135.864  0.00  0.00    +0.000 A 
ATOM     18  C   UNL     1     109.943 129.205 135.383  0.00  0.00    +0.000 A 
ATOM     19  C   UNL     1     108.657 128.685 135.727  0.00  0.00    +0.000 A 
ATOM     20  C   UNL     1     109.132 129.316 135.486  0.00  0.00    +0.000 A 
BRANCH  18  21
ATOM     21  O   UNL     1     110.418 129.835 135.142  0.00  0.00    +0.000 OA
ATOM     22  C   UNL     1     111.208 129.705 134.945  0.00  0.00    +0.000 C 
ENDBRANCH  18  21
BRANCH  20  23
ATOM     23  O   UNL     1     108.796 130.056 135.349  0.00  0.00    +0.000 OA
ATOM     24  C   UNL     1     108.487 130.492 135.977  0.00  0.00    +0.000 C 
ENDBRANCH  20  23
ENDBRANCH   7  15
BRANCH   8  25
ATOM     25  O   UNL     1     111.012 126.481 138.178  0.00  0.00    +0.000 OA
ATOM     26  C   UNL     1     110.582 126.301 138.857  0.00  0.00    +0.000 C 
ENDBRANCH   8  25
BRANCH  12  27
ATOM     27  O   UNL     1     111.798 123.899 137.237  0.00  0.00    +0.000 OA
ATOM     28  C   UNL     1     112.599 123.776 137.089  0.00  0.00    +0.000 C 
ENDBRANCH  12  27
TORSDOF 5
ENDMDL
MODEL 4
REMARK VINA RESULT:      -7.7      2.608      5.270
REMARK  Name = 633124
REMARK  5 active torsions:
REMARK  status: ('A' for Active; 'I' for Inactive)
REMARK    1  A    between atoms: O_2  and  C_14
REMARK    2  A    between atoms: O_3  and  C_18
REMARK    3  A    between atoms: O_7  and  C_22
REMARK    4  A    between atoms: O_8  and  C_24
REMARK    5  A    between atoms: C_12  and  C_13
REMARK                            x       y       z     vdW  Elec       q    Type
REMARK                         _______ _______ _______ _____ _____    ______ ____
ROOT
ATOM      1  O   UNL     1     113.387 126.774 136.733  0.00  0.00    +0.000 OA
ATOM      2  O   UNL     1     111.258 124.976 135.953  0.00  0.00    +0.000 OA
ATOM      3  O   UNL     1     113.659 123.929 137.095  0.00  0.00    +0.000 OA
ATOM      4  O   UNL     1     111.082 126.395 135.755  0.00  0.00    +0.000 OA
ATOM      5  C   UNL     1     112.310 125.862 136.338  0.00  0.00    +0.000 A 
ATOM      6  C   UNL     1     113.061 125.983 136.658  0.00  0.00    +0.000 A 
ATOM      7  C   UNL     1     112.923 127.450 136.472  0.00  0.00    +0.000 A 
ATOM      8  C   UNL     1     113.511 125.338 136.910  0.00  0.00    +0.000 A 
ATOM      9  C   UNL     1     112.009 125.097 136.272  0.00  0.00    +0.000 A 
ATOM     10  C   UNL     1     111.832 126.524 136.072  0.00  0.00    +0.000 A 
ATOM     11  C   UNL     1     112.141 127.324 136.139  0.00  0.00    +0.000 A 
ATOM     12  C   UNL     1     112.458 124.453 136.524  0.00  0.00    +0.000 A 
ATOM     13  C   UNL     1     113.209 124.574 136.843  0.00  0.00    +0.000 A 
ENDROOT
BRANCH   7  15
ATOM     14  O   UNL     1     113.327 129.826 138.007  0.00  0.00    +0.000 OA
ATOM     15  C   UNL     1     113.228 128.214 136.540  0.00  0.00    +0.000 A 
ATOM     16  C   UNL     1     113.637 128.552 135.908  0.00  0.00    +0.000 A 
ATOM     17  C   UNL     1     113.125 128.639 137.240  0.00  0.00    +0.000 A 
ATOM     18  C   UNL     1     113.942 129.316 135.976  0.00  0.00    +0.000 A 
ATOM     19  C   UNL     1     113.430 129.401 137.308  0.00  0.00    +0.000 A 
ATOM     20  C   UNL     1     113.839 129.741 136.675  0.00  0.00    +0.000 A 
BRANCH  18  21
ATOM     21  O   UNL     1     114.350 129.654 135.344  0.00  0.00    +0.000 OA
ATOM     22  C   UNL     1     114.721 129.172 134.786  0.00  0.00    +0.000 C 
ENDBRANCH  18  21
BRANCH  20  23
ATOM     23  O   UNL     1     114.143 130.503 136.744  0.00  0.00    +0.000 OA
ATOM     24  C   UNL     1     113.633 131.148 136.806  0.00  0.00    +0.000 C 
ENDBRANCH  20  23
ENDBRANCH   7  15
BRANCH   8  25
ATOM     25  O   UNL     1     114.262 125.459 137.229  0.00  0.00    +0.000 OA
ATOM     26  C   UNL     1     114.920 125.104 136.880  0.00  0.00    +0.000 C 
ENDBRANCH   8  25
BRANCH  12  27
ATOM     27  O   UNL     1     112.157 123.688 136.457  0.00  0.00    +0.000 OA
ATOM     28  C   UNL     1     111.830 123.314 137.115  0.00  0.00    +0.000 C 
ENDBRANCH  12  27
TORSDOF 5
ENDMDL
MODEL 5
REMARK VINA RESULT:      -7.7     11.227     13.003
REMARK  Name = 633124
REMARK  5 active torsions:
REMARK  status: ('A' for Active; 'I' for Inactive)
REMARK    1  A    between atoms: O_2  and  C_14
REMARK    2  A    between atoms: O_3  and  C_18
REMARK    3  A    between atoms: O_7  and  C_22
REMARK    4  A    between atoms: O_8  and  C_24
REMARK    5  A    between atoms: C_12  and  C_13
REMARK                            x       y       z     vdW  Elec       q    Type
REMARK                         _______ _______ _______ _____ _____    ______ ____
ROOT
ATOM      1  O   UNL     1     104.356 124.190 146.864  0.00  0.00    +0.000 OA
ATOM      2  O   UNL     1     101.700 124.984 147.693  0.00  0.00    +0.000 OA
ATOM      3  O   UNL     1     102.037 122.740 145.956  0.00  0.00    +0.000 OA
ATOM      4  O   UNL     1     102.835 125.737 148.170  0.00  0.00    +0.000 OA
ATOM      5  C   UNL     1     103.010 124.590 147.282  0.00  0.00    +0.000 A 
ATOM      6  C   UNL     1     103.503 124.085 146.856  0.00  0.00    +0.000 A 
ATOM      7  C   UNL     1     104.700 124.830 147.322  0.00  0.00    +0.000 A 
ATOM      8  C   UNL     1     103.179 123.468 146.413  0.00  0.00    +0.000 A 
ATOM      9  C   UNL     1     102.193 124.479 147.266  0.00  0.00    +0.000 A 
ATOM     10  C   UNL     1     103.335 125.236 147.746  0.00  0.00    +0.000 A 
ATOM     11  C   UNL     1     104.186 125.357 147.767  0.00  0.00    +0.000 A 
ATOM     12  C   UNL     1     101.869 123.863 146.825  0.00  0.00    +0.000 A 
ATOM     13  C   UNL     1     102.362 123.357 146.398  0.00  0.00    +0.000 A 
ENDROOT
BRANCH   7  15
ATOM     14  O   UNL     1     107.225 124.466 148.611  0.00  0.00    +0.000 OA
ATOM     15  C   UNL     1     105.518 124.939 147.336  0.00  0.00    +0.000 A 
ATOM     16  C   UNL     1     105.891 125.337 146.717  0.00  0.00    +0.000 A 
ATOM     17  C   UNL     1     105.963 124.648 147.967  0.00  0.00    +0.000 A 
ATOM     18  C   UNL     1     106.709 125.446 146.729  0.00  0.00    +0.000 A 
ATOM     19  C   UNL     1     106.780 124.756 147.980  0.00  0.00    +0.000 A 
ATOM     20  C   UNL     1     107.154 125.156 147.361  0.00  0.00    +0.000 A 
BRANCH  18  21
ATOM     21  O   UNL     1     107.081 125.844 146.111  0.00  0.00    +0.000 OA
ATOM     22  C   UNL     1     106.632 126.172 145.501  0.00  0.00    +0.000 C 
ENDBRANCH  18  21
BRANCH  20  23
ATOM     23  O   UNL     1     107.970 125.264 147.373  0.00  0.00    +0.000 OA
ATOM     24  C   UNL     1     108.416 124.971 148.003  0.00  0.00    +0.000 C 
ENDBRANCH  20  23
ENDBRANCH   7  15
BRANCH   8  25
ATOM     25  O   UNL     1     103.672 122.962 145.987  0.00  0.00    +0.000 OA
ATOM     26  C   UNL     1     103.650 122.964 145.163  0.00  0.00    +0.000 C 
ENDBRANCH   8  25
BRANCH  12  27
ATOM     27  O   UNL     1     101.051 123.751 146.809  0.00  0.00    +0.000 OA
ATOM     28  C   UNL     1     100.711 123.130 147.230  0.00  0.00    +0.000 C 
ENDBRANCH  12  27
TORSDOF 5
ENDMDL
MODEL 6
REMARK VINA RESULT:      -7.6      2.825      3.608
REMARK  Name = 633124
REMARK  5 active torsions:
REMARK  status: ('A' for Active; 'I' for Inactive)
REMARK    1  A    between atoms: O_2  and  C_14
REMARK    2  A    between atoms: O_3  and  C_18
REMARK    3  A    between atoms: O_7  and  C_22
REMARK    4  A    between atoms: O_8  and  C_24
REMARK    5  A    between atoms: C_12  and  C_13
REMARK                            x       y       z     vdW  Elec       q    Type
REMARK                         _______ _______ _______ _____ _____    ______ ____
ROOT
ATOM      1  O   UNL     1     112.607 127.363 137.308  0.00  0.00    +0.000 OA
ATOM      2  O   UNL     1     114.057 129.666 136.323  0.00  0.00    +0.000 OA
ATOM      3  O   UNL     1     112.428 129.901 138.659  0.00  0.00    +0.000 OA
ATOM      4  O   UNL     1     114.174 128.412 135.617  0.00  0.00    +0.000 OA
ATOM      5  C   UNL     1     113.340 128.530 136.811  0.00  0.00    +0.000 A 
ATOM      6  C   UNL     1     112.830 128.191 137.363  0.00  0.00    +0.000 A 
ATOM      7  C   UNL     1     112.921 126.881 136.668  0.00  0.00    +0.000 A 
ATOM      8  C   UNL     1     112.525 128.648 137.980  0.00  0.00    +0.000 A 
ATOM      9  C   UNL     1     113.547 129.326 136.875  0.00  0.00    +0.000 A 
ATOM     10  C   UNL     1     113.664 128.065 136.165  0.00  0.00    +0.000 A 
ATOM     11  C   UNL     1     113.452 127.235 136.093  0.00  0.00    +0.000 A 
ATOM     12  C   UNL     1     113.243 129.783 137.491  0.00  0.00    +0.000 A 
ATOM     13  C   UNL     1     112.732 129.444 138.043  0.00  0.00    +0.000 A 
ENDROOT
BRANCH   7  15
ATOM     14  O   UNL     1     113.545 124.121 137.067  0.00  0.00    +0.000 OA
ATOM     15  C   UNL     1     112.712 126.085 136.607  0.00  0.00    +0.000 A 
ATOM     16  C   UNL     1     111.982 125.874 136.286  0.00  0.00    +0.000 A 
ATOM     17  C   UNL     1     113.233 125.501 136.868  0.00  0.00    +0.000 A 
ATOM     18  C   UNL     1     111.773 125.078 136.225  0.00  0.00    +0.000 A 
ATOM     19  C   UNL     1     113.024 124.706 136.807  0.00  0.00    +0.000 A 
ATOM     20  C   UNL     1     112.293 124.494 136.485  0.00  0.00    +0.000 A 
BRANCH  18  21
ATOM     21  O   UNL     1     111.043 124.867 135.903  0.00  0.00    +0.000 OA
ATOM     22  C   UNL     1     110.624 125.407 135.440  0.00  0.00    +0.000 C 
ENDBRANCH  18  21
BRANCH  20  23
ATOM     23  O   UNL     1     112.085 123.699 136.425  0.00  0.00    +0.000 OA
ATOM     24  C   UNL     1     111.958 123.252 137.106  0.00  0.00    +0.000 C 
ENDBRANCH  20  23
ENDBRANCH   7  15
BRANCH   8  25
ATOM     25  O   UNL     1     112.015 128.309 138.532  0.00  0.00    +0.000 OA
ATOM     26  C   UNL     1     112.229 128.280 139.327  0.00  0.00    +0.000 C 
ENDBRANCH   8  25
BRANCH  12  27
ATOM     27  O   UNL     1     113.449 130.580 137.555  0.00  0.00    +0.000 OA
ATOM     28  C   UNL     1     112.978 131.158 137.204  0.00  0.00    +0.000 C 
ENDBRANCH  12  27
TORSDOF 5
ENDMDL
MODEL 7
REMARK VINA RESULT:      -7.6      8.594     10.399
REMARK  Name = 633124
REMARK  5 active torsions:
REMARK  status: ('A' for Active; 'I' for Inactive)
REMARK    1  A    between atoms: O_2  and  C_14
REMARK    2  A    between atoms: O_3  and  C_18
REMARK    3  A    between atoms: O_7  and  C_22
REMARK    4  A    between atoms: O_8  and  C_24
REMARK    5  A    between atoms: C_12  and  C_13
REMARK                            x       y       z     vdW  Elec       q    Type
REMARK                         _______ _______ _______ _____ _____    ______ ____
ROOT
ATOM      1  O   UNL     1     103.010 132.089 141.217  0.00  0.00    +0.000 OA
ATOM      2  O   UNL     1     100.892 133.929 141.925  0.00  0.00    +0.000 OA
ATOM      3  O   UNL     1     103.293 134.914 140.729  0.00  0.00    +0.000 OA
ATOM      4  O   UNL     1     100.711 132.521 142.186  0.00  0.00    +0.000 OA
ATOM      5  C   UNL     1     101.939 133.022 141.575  0.00  0.00    +0.000 A 
ATOM      6  C   UNL     1     102.688 132.884 141.259  0.00  0.00    +0.000 A 
ATOM      7  C   UNL     1     102.544 131.427 141.509  0.00  0.00    +0.000 A 
ATOM      8  C   UNL     1     103.140 133.515 140.977  0.00  0.00    +0.000 A 
ATOM      9  C   UNL     1     101.641 133.791 141.609  0.00  0.00    +0.000 A 
ATOM     10  C   UNL     1     101.459 132.374 141.871  0.00  0.00    +0.000 A 
ATOM     11  C   UNL     1     101.764 131.571 141.838  0.00  0.00    +0.000 A 
ATOM     12  C   UNL     1     102.092 134.421 141.327  0.00  0.00    +0.000 A 
ATOM     13  C   UNL     1     102.841 134.283 141.011  0.00  0.00    +0.000 A 
ENDROOT
BRANCH   7  15
ATOM     14  O   UNL     1     103.960 129.264 142.727  0.00  0.00    +0.000 OA
ATOM     15  C   UNL     1     102.846 130.660 141.473  0.00  0.00    +0.000 A 
ATOM     16  C   UNL     1     102.740 130.207 140.791  0.00  0.00    +0.000 A 
ATOM     17  C   UNL     1     103.252 130.345 142.118  0.00  0.00    +0.000 A 
ATOM     18  C   UNL     1     103.041 129.440 140.755  0.00  0.00    +0.000 A 
ATOM     19  C   UNL     1     103.553 129.578 142.082  0.00  0.00    +0.000 A 
ATOM     20  C   UNL     1     103.448 129.125 141.400  0.00  0.00    +0.000 A 
BRANCH  18  21
ATOM     21  O   UNL     1     102.936 128.988 140.073  0.00  0.00    +0.000 OA
ATOM     22  C   UNL     1     102.289 129.129 139.580  0.00  0.00    +0.000 C 
ENDBRANCH  18  21
BRANCH  20  23
ATOM     23  O   UNL     1     103.749 128.359 141.363  0.00  0.00    +0.000 OA
ATOM     24  C   UNL     1     104.549 128.222 141.510  0.00  0.00    +0.000 C 
ENDBRANCH  20  23
ENDBRANCH   7  15
BRANCH   8  25
ATOM     25  O   UNL     1     103.889 133.377 140.660  0.00  0.00    +0.000 OA
ATOM     26  C   UNL     1     104.056 133.598 139.884  0.00  0.00    +0.000 C 
ENDBRANCH   8  25
BRANCH  12  27
ATOM     27  O   UNL     1     101.794 135.190 141.362  0.00  0.00    +0.000 OA
ATOM     28  C   UNL     1     102.023 135.694 141.972  0.00  0.00    +0.000 C 
ENDBRANCH  12  27
TORSDOF 5
ENDMDL
MODEL 8
REMARK VINA RESULT:      -7.4      3.011      3.442
REMARK  Name = 633124
REMARK  5 active torsions:
REMARK  status: ('A' for Active; 'I' for Inactive)
REMARK    1  A    between atoms: O_2  and  C_14
REMARK    2  A    between atoms: O_3  and  C_18
REMARK    3  A    between atoms: O_7  and  C_22
REMARK    4  A    between atoms: O_8  and  C_24
REMARK    5  A    between atoms: C_12  and  C_13
REMARK                            x       y       z     vdW  Elec       q    Type
REMARK                         _______ _______ _______ _____ _____    ______ ____
ROOT
ATOM      1  O   UNL     1     113.285 127.654 136.498  0.00  0.00    +0.000 OA
ATOM      2  O   UNL     1     112.974 129.895 138.303  0.00  0.00    +0.000 OA
ATOM      3  O   UNL     1     114.070 130.307 135.696  0.00  0.00    +0.000 OA
ATOM      4  O   UNL     1     112.569 128.581 138.743  0.00  0.00    +0.000 OA
ATOM      5  C   UNL     1     113.128 128.790 137.410  0.00  0.00    +0.000 A 
ATOM      6  C   UNL     1     113.363 128.490 136.678  0.00  0.00    +0.000 A 
ATOM      7  C   UNL     1     112.959 127.122 137.090  0.00  0.00    +0.000 A 
ATOM      8  C   UNL     1     113.677 128.996 136.106  0.00  0.00    +0.000 A 
ATOM      9  C   UNL     1     113.208 129.595 137.571  0.00  0.00    +0.000 A 
ATOM     10  C   UNL     1     112.800 128.274 138.013  0.00  0.00    +0.000 A 
ATOM     11  C   UNL     1     112.715 127.433 137.852  0.00  0.00    +0.000 A 
ATOM     12  C   UNL     1     113.522 130.101 137.000  0.00  0.00    +0.000 A 
ATOM     13  C   UNL     1     113.756 129.801 136.268  0.00  0.00    +0.000 A 
ENDROOT
BRANCH   7  15
ATOM     14  O   UNL     1     111.441 124.949 136.019  0.00  0.00    +0.000 OA
ATOM     15  C   UNL     1     112.881 126.316 136.925  0.00  0.00    +0.000 A 
ATOM     16  C   UNL     1     113.484 125.793 137.132  0.00  0.00    +0.000 A 
ATOM     17  C   UNL     1     112.200 126.035 136.554  0.00  0.00    +0.000 A 
ATOM     18  C   UNL     1     113.407 124.989 136.968  0.00  0.00    +0.000 A 
ATOM     19  C   UNL     1     112.122 125.231 136.390  0.00  0.00    +0.000 A 
ATOM     20  C   UNL     1     112.726 124.707 136.597  0.00  0.00    +0.000 A 
BRANCH  18  21
ATOM     21  O   UNL     1     114.011 124.466 137.175  0.00  0.00    +0.000 OA
ATOM     22  C   UNL     1     114.773 124.749 137.313  0.00  0.00    +0.000 C 
ENDBRANCH  18  21
BRANCH  20  23
ATOM     23  O   UNL     1     112.649 123.903 136.433  0.00  0.00    +0.000 OA
ATOM     24  C   UNL     1     112.108 123.446 136.856  0.00  0.00    +0.000 C 
ENDBRANCH  20  23
ENDBRANCH   7  15
BRANCH   8  25
ATOM     25  O   UNL     1     113.911 128.697 135.374  0.00  0.00    +0.000 OA
ATOM     26  C   UNL     1     114.684 128.811 135.110  0.00  0.00    +0.000 C 
ENDBRANCH   8  25
BRANCH  12  27
ATOM     27  O   UNL     1     113.601 130.906 137.160  0.00  0.00    +0.000 OA
ATOM     28  C   UNL     1     112.992 131.428 136.970  0.00  0.00    +0.000 C 
ENDBRANCH  12  27
TORSDOF 5
ENDMDL
MODEL 9
REMARK VINA RESULT:      -7.4      9.264     11.036
REMARK  Name = 633124
REMARK  5 active torsions:
REMARK  status: ('A' for Active; 'I' for Inactive)
REMARK    1  A    between atoms: O_2  and  C_14
REMARK    2  A    between atoms: O_3  and  C_18
REMARK    3  A    between atoms: O_7  and  C_22
REMARK    4  A    between atoms: O_8  and  C_24
REMARK    5  A    between atoms: C_12  and  C_13
REMARK                            x       y       z     vdW  Elec       q    Type
REMARK                         _______ _______ _______ _____ _____    ______ ____
ROOT
ATOM      1  O   UNL     1     106.371 125.261 145.872  0.00  0.00    +0.000 OA
ATOM      2  O   UNL     1     106.179 127.453 143.993  0.00  0.00    +0.000 OA
ATOM      3  O   UNL     1     105.479 124.808 143.171  0.00  0.00    +0.000 OA
ATOM      4  O   UNL     1     106.630 127.722 145.337  0.00  0.00    +0.000 OA
ATOM      5  C   UNL     1     106.273 126.370 144.919  0.00  0.00    +0.000 A 
ATOM      6  C   UNL     1     106.188 125.567 145.091  0.00  0.00    +0.000 A 
ATOM      7  C   UNL     1     106.648 125.798 146.484  0.00  0.00    +0.000 A 
ATOM      8  C   UNL     1     105.923 125.046 144.508  0.00  0.00    +0.000 A 
ATOM      9  C   UNL     1     106.094 126.651 144.165  0.00  0.00    +0.000 A 
ATOM     10  C   UNL     1     106.548 126.922 145.517  0.00  0.00    +0.000 A 
ATOM     11  C   UNL     1     106.737 126.634 146.305  0.00  0.00    +0.000 A 
ATOM     12  C   UNL     1     105.829 126.131 143.582  0.00  0.00    +0.000 A 
ATOM     13  C   UNL     1     105.744 125.329 143.754  0.00  0.00    +0.000 A 
ENDROOT
BRANCH   7  15
ATOM     14  O   UNL     1     108.538 124.731 148.343  0.00  0.00    +0.000 OA
ATOM     15  C   UNL     1     106.826 125.513 147.238  0.00  0.00    +0.000 A 
ATOM     16  C   UNL     1     106.237 125.476 147.814  0.00  0.00    +0.000 A 
ATOM     17  C   UNL     1     107.593 125.264 147.414  0.00  0.00    +0.000 A 
ATOM     18  C   UNL     1     106.415 125.191 148.568  0.00  0.00    +0.000 A 
ATOM     19  C   UNL     1     107.771 124.979 148.167  0.00  0.00    +0.000 A 
ATOM     20  C   UNL     1     107.182 124.942 148.744  0.00  0.00    +0.000 A 
BRANCH  18  21
ATOM     21  O   UNL     1     105.826 125.154 149.144  0.00  0.00    +0.000 OA
ATOM     22  C   UNL     1     105.150 125.621 149.074  0.00  0.00    +0.000 C 
ENDBRANCH  18  21
BRANCH  20  23
ATOM     23  O   UNL     1     107.360 124.657 149.497  0.00  0.00    +0.000 OA
ATOM     24  C   UNL     1     107.496 123.852 149.612  0.00  0.00    +0.000 C 
ENDBRANCH  20  23
ENDBRANCH   7  15
BRANCH   8  25
ATOM     25  O   UNL     1     105.838 124.244 144.679  0.00  0.00    +0.000 OA
ATOM     26  C   UNL     1     105.095 123.889 144.634  0.00  0.00    +0.000 C 
ENDBRANCH   8  25
BRANCH  12  27
ATOM     27  O   UNL     1     105.649 126.412 142.828  0.00  0.00    +0.000 OA
ATOM     28  C   UNL     1     106.210 126.365 142.225  0.00  0.00    +0.000 C 
ENDBRANCH  12  27
TORSDOF 5
ENDMDL
MODEL 10
REMARK VINA RESULT:      -7.3      3.090      4.655
REMARK  Name = 633124
REMARK  5 active torsions:
REMARK  status: ('A' for Active; 'I' for Inactive)
REMARK    1  A    between atoms: O_2  and  C_14
REMARK    2  A    between atoms: O_3  and  C_18
REMARK    3  A    between atoms: O_7  and  C_22
REMARK    4  A    between atoms: O_8  and  C_24
REMARK    5  A    between atoms: C_12  and  C_13
REMARK                            x       y       z     vdW  Elec       q    Type
REMARK                         _______ _______ _______ _____ _____    ______ ____
ROOT
ATOM      1  O   UNL     1     113.076 127.502 138.491  0.00  0.00    +0.000 OA
ATOM      2  O   UNL     1     114.071 128.440 141.041  0.00  0.00    +0.000 OA
ATOM      3  O   UNL     1     113.294 130.323 139.036  0.00  0.00    +0.000 OA
ATOM      4  O   UNL     1     113.977 127.019 140.808  0.00  0.00    +0.000 OA
ATOM      5  C   UNL     1     113.579 127.979 139.781  0.00  0.00    +0.000 A 
ATOM      6  C   UNL     1     113.286 128.139 139.027  0.00  0.00    +0.000 A 
ATOM      7  C   UNL     1     113.173 126.686 138.744  0.00  0.00    +0.000 A 
ATOM      8  C   UNL     1     113.191 128.921 138.779  0.00  0.00    +0.000 A 
ATOM      9  C   UNL     1     113.777 128.601 140.287  0.00  0.00    +0.000 A 
ATOM     10  C   UNL     1     113.683 127.171 140.052  0.00  0.00    +0.000 A 
ATOM     11  C   UNL     1     113.478 126.519 139.529  0.00  0.00    +0.000 A 
ATOM     12  C   UNL     1     113.682 129.381 140.039  0.00  0.00    +0.000 A 
ATOM     13  C   UNL     1     113.389 129.541 139.285  0.00  0.00    +0.000 A 
ENDROOT
BRANCH   7  15
ATOM     14  O   UNL     1     111.229 124.874 137.692  0.00  0.00    +0.000 OA
ATOM     15  C   UNL     1     112.974 126.067 138.235  0.00  0.00    +0.000 A 
ATOM     16  C   UNL     1     113.548 125.737 137.743  0.00  0.00    +0.000 A 
ATOM     17  C   UNL     1     112.201 125.779 138.218  0.00  0.00    +0.000 A 
ATOM     18  C   UNL     1     113.350 125.119 137.234  0.00  0.00    +0.000 A 
ATOM     19  C   UNL     1     112.002 125.162 137.710  0.00  0.00    +0.000 A 
ATOM     20  C   UNL     1     112.577 124.831 137.217  0.00  0.00    +0.000 A 
BRANCH  18  21
ATOM     21  O   UNL     1     113.924 124.789 136.743  0.00  0.00    +0.000 OA
ATOM     22  C   UNL     1     114.613 125.210 136.573  0.00  0.00    +0.000 C 
ENDBRANCH  18  21
BRANCH  20  23
ATOM     23  O   UNL     1     112.378 124.213 136.709  0.00  0.00    +0.000 OA
ATOM     24  C   UNL     1     112.120 123.493 137.016  0.00  0.00    +0.000 C 
ENDBRANCH  20  23
ENDBRANCH   7  15
BRANCH   8  25
ATOM     25  O   UNL     1     112.898 129.081 138.024  0.00  0.00    +0.000 OA
ATOM     26  C   UNL     1     112.198 129.508 137.936  0.00  0.00    +0.000 C 
ENDBRANCH   8  25
BRANCH  12  27
ATOM     27  O   UNL     1     113.881 130.002 140.545  0.00  0.00    +0.000 OA
ATOM     28  C   UNL     1     114.636 130.331 140.519  0.00  0.00    +0.000 C 
ENDBRANCH  12  27
TORSDOF 5
ENDMDL
