MODEL 1
REMARK VINA RESULT:      -8.1      0.000      0.000
REMARK  Name = 131753179
REMARK  2 active torsions:
REMARK  status: ('A' for Active; 'I' for Inactive)
REMARK    1  A    between atoms: O_2  and  C_15
REMARK    2  A    between atoms: C_5  and  C_9
REMARK                            x       y       z     vdW  Elec       q    Type
REMARK                         _______ _______ _______ _____ _____    ______ ____
ROOT
ATOM      1  O   UNL     1     105.107 125.203 139.652  0.00  0.00    +0.000 OA
ATOM      2  O   UNL     1     107.153 124.671 141.655  0.00  0.00    +0.000 OA
ATOM      3  C   UNL     1     104.452 124.124 138.983  0.00  0.00    +0.000 C 
ATOM      4  C   UNL     1     104.902 123.583 139.415  0.00  0.00    +0.000 C 
ATOM      5  C   UNL     1     104.554 124.933 139.102  0.00  0.00    +0.000 C 
ATOM      6  C   UNL     1     105.455 123.853 139.965  0.00  0.00    +0.000 A 
ATOM      7  C   UNL     1     105.557 124.663 140.083  0.00  0.00    +0.000 A 
ATOM      8  C   UNL     1     105.918 123.280 140.408  0.00  0.00    +0.000 A 
ATOM      9  C   UNL     1     106.129 124.956 140.654  0.00  0.00    +0.000 A 
ATOM     10  C   UNL     1     106.495 123.555 140.982  0.00  0.00    +0.000 A 
ATOM     11  C   UNL     1     106.601 124.399 141.106  0.00  0.00    +0.000 A 
ENDROOT
BRANCH   3  13
ATOM     12  O   UNL     1     102.241 123.042 136.785  0.00  0.00    +0.000 OA
ATOM     13  C   UNL     1     103.900 123.853 138.433  0.00  0.00    +0.000 A 
ATOM     14  C   UNL     1     103.101 123.810 138.638  0.00  0.00    +0.000 A 
ATOM     15  C   UNL     1     104.145 123.626 137.679  0.00  0.00    +0.000 A 
ATOM     16  C   UNL     1     102.549 123.539 138.088  0.00  0.00    +0.000 A 
ATOM     17  C   UNL     1     103.592 123.356 137.130  0.00  0.00    +0.000 A 
ATOM     18  C   UNL     1     102.794 123.312 137.334  0.00  0.00    +0.000 A 
BRANCH  16  19
ATOM     19  O   UNL     1     101.750 123.496 138.293  0.00  0.00    +0.000 OA
ATOM     20  C   UNL     1     101.515 123.047 138.944  0.00  0.00    +0.000 C 
ENDBRANCH  16  19
ENDBRANCH   3  13
TORSDOF 2
ENDMDL
MODEL 2
REMARK VINA RESULT:      -7.9      7.174      8.085
REMARK  Name = 131753179
REMARK  2 active torsions:
REMARK  status: ('A' for Active; 'I' for Inactive)
REMARK    1  A    between atoms: O_2  and  C_15
REMARK    2  A    between atoms: C_5  and  C_9
REMARK                            x       y       z     vdW  Elec       q    Type
REMARK                         _______ _______ _______ _____ _____    ______ ____
ROOT
ATOM      1  O   UNL     1     112.256 124.164 136.537  0.00  0.00    +0.000 OA
ATOM      2  O   UNL     1     115.057 124.405 137.297  0.00  0.00    +0.000 OA
ATOM      3  C   UNL     1     111.497 125.325 136.196  0.00  0.00    +0.000 C 
ATOM      4  C   UNL     1     112.160 125.799 136.330  0.00  0.00    +0.000 C 
ATOM      5  C   UNL     1     111.545 124.508 136.299  0.00  0.00    +0.000 C 
ATOM      6  C   UNL     1     112.870 125.453 136.568  0.00  0.00    +0.000 A 
ATOM      7  C   UNL     1     112.919 124.636 136.671  0.00  0.00    +0.000 A 
ATOM      8  C   UNL     1     113.554 125.956 136.704  0.00  0.00    +0.000 A 
ATOM      9  C   UNL     1     113.654 124.266 136.918  0.00  0.00    +0.000 A 
ATOM     10  C   UNL     1     114.297 125.603 136.952  0.00  0.00    +0.000 A 
ATOM     11  C   UNL     1     114.347 124.752 137.060  0.00  0.00    +0.000 A 
ENDROOT
BRANCH   3  13
ATOM     12  O   UNL     1     108.654 126.707 135.247  0.00  0.00    +0.000 OA
ATOM     13  C   UNL     1     110.786 125.671 135.958  0.00  0.00    +0.000 A 
ATOM     14  C   UNL     1     110.300 126.039 136.515  0.00  0.00    +0.000 A 
ATOM     15  C   UNL     1     110.561 125.648 135.165  0.00  0.00    +0.000 A 
ATOM     16  C   UNL     1     109.590 126.384 136.277  0.00  0.00    +0.000 A 
ATOM     17  C   UNL     1     109.850 125.994 134.928  0.00  0.00    +0.000 A 
ATOM     18  C   UNL     1     109.365 126.361 135.484  0.00  0.00    +0.000 A 
BRANCH  16  19
ATOM     19  O   UNL     1     109.104 126.752 136.834  0.00  0.00    +0.000 OA
ATOM     20  C   UNL     1     109.337 126.790 137.625  0.00  0.00    +0.000 C 
ENDBRANCH  16  19
ENDBRANCH   3  13
TORSDOF 2
ENDMDL
MODEL 3
REMARK VINA RESULT:      -7.9      7.596      9.482
REMARK  Name = 131753179
REMARK  2 active torsions:
REMARK  status: ('A' for Active; 'I' for Inactive)
REMARK    1  A    between atoms: O_2  and  C_15
REMARK    2  A    between atoms: C_5  and  C_9
REMARK                            x       y       z     vdW  Elec       q    Type
REMARK                         _______ _______ _______ _____ _____    ______ ____
ROOT
ATOM      1  O   UNL     1     111.103 124.634 136.070  0.00  0.00    +0.000 OA
ATOM      2  O   UNL     1     109.086 126.147 134.613  0.00  0.00    +0.000 OA
ATOM      3  C   UNL     1     112.334 125.250 136.452  0.00  0.00    +0.000 C 
ATOM      4  C   UNL     1     112.088 125.957 136.103  0.00  0.00    +0.000 C 
ATOM      5  C   UNL     1     111.841 124.589 136.436  0.00  0.00    +0.000 C 
ATOM      6  C   UNL     1     111.350 126.001 135.737  0.00  0.00    +0.000 A 
ATOM      7  C   UNL     1     110.857 125.339 135.721  0.00  0.00    +0.000 A 
ATOM      8  C   UNL     1     111.105 126.742 135.377  0.00  0.00    +0.000 A 
ATOM      9  C   UNL     1     110.086 125.373 135.343  0.00  0.00    +0.000 A 
ATOM     10  C   UNL     1     110.338 126.794 134.995  0.00  0.00    +0.000 A 
ATOM     11  C   UNL     1     109.825 126.106 134.978  0.00  0.00    +0.000 A 
ENDROOT
BRANCH   3  13
ATOM     12  O   UNL     1     115.287 125.076 137.916  0.00  0.00    +0.000 OA
ATOM     13  C   UNL     1     113.072 125.207 136.817  0.00  0.00    +0.000 A 
ATOM     14  C   UNL     1     113.185 125.549 137.560  0.00  0.00    +0.000 A 
ATOM     15  C   UNL     1     113.697 124.821 136.441  0.00  0.00    +0.000 A 
ATOM     16  C   UNL     1     113.924 125.505 137.925  0.00  0.00    +0.000 A 
ATOM     17  C   UNL     1     114.435 124.778 136.807  0.00  0.00    +0.000 A 
ATOM     18  C   UNL     1     114.549 125.119 137.549  0.00  0.00    +0.000 A 
BRANCH  16  19
ATOM     19  O   UNL     1     114.037 125.847 138.668  0.00  0.00    +0.000 OA
ATOM     20  C   UNL     1     113.496 126.401 138.954  0.00  0.00    +0.000 C 
ENDBRANCH  16  19
ENDBRANCH   3  13
TORSDOF 2
ENDMDL
MODEL 4
REMARK VINA RESULT:      -7.8      7.036      8.182
REMARK  Name = 131753179
REMARK  2 active torsions:
REMARK  status: ('A' for Active; 'I' for Inactive)
REMARK    1  A    between atoms: O_2  and  C_15
REMARK    2  A    between atoms: C_5  and  C_9
REMARK                            x       y       z     vdW  Elec       q    Type
REMARK                         _______ _______ _______ _____ _____    ______ ____
ROOT
ATOM      1  O   UNL     1     102.741 129.753 140.630  0.00  0.00    +0.000 OA
ATOM      2  O   UNL     1     104.659 127.699 141.395  0.00  0.00    +0.000 OA
ATOM      3  C   UNL     1     102.408 130.805 141.537  0.00  0.00    +0.000 C 
ATOM      4  C   UNL     1     102.925 130.487 142.097  0.00  0.00    +0.000 C 
ATOM      5  C   UNL     1     102.316 130.439 140.804  0.00  0.00    +0.000 C 
ATOM      6  C   UNL     1     103.350 129.802 141.921  0.00  0.00    +0.000 A 
ATOM      7  C   UNL     1     103.258 129.435 141.188  0.00  0.00    +0.000 A 
ATOM      8  C   UNL     1     103.885 129.479 142.512  0.00  0.00    +0.000 A 
ATOM      9  C   UNL     1     103.695 128.721 140.994  0.00  0.00    +0.000 A 
ATOM     10  C   UNL     1     104.331 128.766 142.335  0.00  0.00    +0.000 A 
ATOM     11  C   UNL     1     104.235 128.385 141.572  0.00  0.00    +0.000 A 
ENDROOT
BRANCH   3  13
ATOM     12  O   UNL     1     100.710 133.547 142.238  0.00  0.00    +0.000 OA
ATOM     13  C   UNL     1     101.983 131.490 141.713  0.00  0.00    +0.000 A 
ATOM     14  C   UNL     1     102.332 132.231 141.605  0.00  0.00    +0.000 A 
ATOM     15  C   UNL     1     101.209 131.436 141.995  0.00  0.00    +0.000 A 
ATOM     16  C   UNL     1     101.907 132.916 141.781  0.00  0.00    +0.000 A 
ATOM     17  C   UNL     1     100.786 132.122 142.170  0.00  0.00    +0.000 A 
ATOM     18  C   UNL     1     101.134 132.861 142.063  0.00  0.00    +0.000 A 
BRANCH  16  19
ATOM     19  O   UNL     1     102.257 133.656 141.673  0.00  0.00    +0.000 OA
ATOM     20  C   UNL     1     102.715 133.803 141.003  0.00  0.00    +0.000 C 
ENDBRANCH  16  19
ENDBRANCH   3  13
TORSDOF 2
ENDMDL
MODEL 5
REMARK VINA RESULT:      -7.8      6.728      8.342
REMARK  Name = 131753179
REMARK  2 active torsions:
REMARK  status: ('A' for Active; 'I' for Inactive)
REMARK    1  A    between atoms: O_2  and  C_15
REMARK    2  A    between atoms: C_5  and  C_9
REMARK                            x       y       z     vdW  Elec       q    Type
REMARK                         _______ _______ _______ _____ _____    ______ ____
ROOT
ATOM      1  O   UNL     1     103.054 124.896 147.009  0.00  0.00    +0.000 OA
ATOM      2  O   UNL     1     100.911 123.069 146.267  0.00  0.00    +0.000 OA
ATOM      3  C   UNL     1     104.411 124.590 146.682  0.00  0.00    +0.000 C 
ATOM      4  C   UNL     1     104.166 123.886 146.327  0.00  0.00    +0.000 C 
ATOM      5  C   UNL     1     103.855 125.095 147.023  0.00  0.00    +0.000 C 
ATOM      6  C   UNL     1     103.366 123.688 146.314  0.00  0.00    +0.000 A 
ATOM      7  C   UNL     1     102.809 124.193 146.655  0.00  0.00    +0.000 A 
ATOM      8  C   UNL     1     103.123 122.952 145.941  0.00  0.00    +0.000 A 
ATOM      9  C   UNL     1     101.972 123.997 146.647  0.00  0.00    +0.000 A 
ATOM     10  C   UNL     1     102.291 122.740 145.924  0.00  0.00    +0.000 A 
ATOM     11  C   UNL     1     101.712 123.266 146.279  0.00  0.00    +0.000 A 
ENDROOT
BRANCH   3  13
ATOM     12  O   UNL     1     107.614 125.383 146.732  0.00  0.00    +0.000 OA
ATOM     13  C   UNL     1     105.211 124.788 146.695  0.00  0.00    +0.000 A 
ATOM     14  C   UNL     1     105.575 125.079 146.013  0.00  0.00    +0.000 A 
ATOM     15  C   UNL     1     105.648 124.696 147.389  0.00  0.00    +0.000 A 
ATOM     16  C   UNL     1     106.376 125.277 146.026  0.00  0.00    +0.000 A 
ATOM     17  C   UNL     1     106.449 124.894 147.401  0.00  0.00    +0.000 A 
ATOM     18  C   UNL     1     106.813 125.185 146.720  0.00  0.00    +0.000 A 
BRANCH  16  19
ATOM     19  O   UNL     1     106.740 125.567 145.345  0.00  0.00    +0.000 OA
ATOM     20  C   UNL     1     106.381 126.170 144.910  0.00  0.00    +0.000 C 
ENDBRANCH  16  19
ENDBRANCH   3  13
TORSDOF 2
ENDMDL
MODEL 6
REMARK VINA RESULT:      -7.7      7.554      8.727
REMARK  Name = 131753179
REMARK  2 active torsions:
REMARK  status: ('A' for Active; 'I' for Inactive)
REMARK    1  A    between atoms: O_2  and  C_15
REMARK    2  A    between atoms: C_5  and  C_9
REMARK                            x       y       z     vdW  Elec       q    Type
REMARK                         _______ _______ _______ _____ _____    ______ ____
ROOT
ATOM      1  O   UNL     1     100.925 131.953 142.019  0.00  0.00    +0.000 OA
ATOM      2  O   UNL     1     100.743 134.855 141.862  0.00  0.00    +0.000 OA
ATOM      3  C   UNL     1     102.131 131.283 141.650  0.00  0.00    +0.000 C 
ATOM      4  C   UNL     1     102.481 132.010 141.473  0.00  0.00    +0.000 C 
ATOM      5  C   UNL     1     101.353 131.255 141.923  0.00  0.00    +0.000 C 
ATOM      6  C   UNL     1     102.051 132.707 141.570  0.00  0.00    +0.000 A 
ATOM      7  C   UNL     1     101.273 132.679 141.843  0.00  0.00    +0.000 A 
ATOM      8  C   UNL     1     102.426 133.458 141.382  0.00  0.00    +0.000 A 
ATOM      9  C   UNL     1     100.816 133.400 141.947  0.00  0.00    +0.000 A 
ATOM     10  C   UNL     1     101.984 134.188 141.480  0.00  0.00    +0.000 A 
ATOM     11  C   UNL     1     101.174 134.159 141.764  0.00  0.00    +0.000 A 
ENDROOT
BRANCH   3  13
ATOM     12  O   UNL     1     103.849 128.492 141.262  0.00  0.00    +0.000 OA
ATOM     13  C   UNL     1     102.561 130.585 141.554  0.00  0.00    +0.000 A 
ATOM     14  C   UNL     1     102.553 130.193 140.827  0.00  0.00    +0.000 A 
ATOM     15  C   UNL     1     102.999 130.280 142.183  0.00  0.00    +0.000 A 
ATOM     16  C   UNL     1     102.982 129.496 140.731  0.00  0.00    +0.000 A 
ATOM     17  C   UNL     1     103.428 129.582 142.085  0.00  0.00    +0.000 A 
ATOM     18  C   UNL     1     103.420 129.190 141.360  0.00  0.00    +0.000 A 
BRANCH  16  19
ATOM     19  O   UNL     1     102.974 129.104 140.004  0.00  0.00    +0.000 OA
ATOM     20  C   UNL     1     102.292 129.110 139.540  0.00  0.00    +0.000 C 
ENDBRANCH  16  19
ENDBRANCH   3  13
TORSDOF 2
ENDMDL
MODEL 7
REMARK VINA RESULT:      -7.7      6.917      8.050
REMARK  Name = 131753179
REMARK  2 active torsions:
REMARK  status: ('A' for Active; 'I' for Inactive)
REMARK    1  A    between atoms: O_2  and  C_15
REMARK    2  A    between atoms: C_5  and  C_9
REMARK                            x       y       z     vdW  Elec       q    Type
REMARK                         _______ _______ _______ _____ _____    ______ ____
ROOT
ATOM      1  O   UNL     1     105.961 125.301 146.300  0.00  0.00    +0.000 OA
ATOM      2  O   UNL     1     108.530 125.362 147.669  0.00  0.00    +0.000 OA
ATOM      3  C   UNL     1     104.811 124.748 146.943  0.00  0.00    +0.000 C 
ATOM      4  C   UNL     1     105.266 124.581 147.611  0.00  0.00    +0.000 C 
ATOM      5  C   UNL     1     105.158 125.108 146.287  0.00  0.00    +0.000 C 
ATOM      6  C   UNL     1     106.067 124.774 147.623  0.00  0.00    +0.000 A 
ATOM      7  C   UNL     1     106.415 125.134 146.967  0.00  0.00    +0.000 A 
ATOM      8  C   UNL     1     106.531 124.594 148.324  0.00  0.00    +0.000 A 
ATOM      9  C   UNL     1     107.250 125.340 146.967  0.00  0.00    +0.000 A 
ATOM     10  C   UNL     1     107.366 124.793 148.343  0.00  0.00    +0.000 A 
ATOM     11  C   UNL     1     107.728 125.168 147.660  0.00  0.00    +0.000 A 
ENDROOT
BRANCH   3  13
ATOM     12  O   UNL     1     101.603 123.973 146.896  0.00  0.00    +0.000 OA
ATOM     13  C   UNL     1     104.009 124.555 146.932  0.00  0.00    +0.000 A 
ATOM     14  C   UNL     1     103.757 123.865 146.554  0.00  0.00    +0.000 A 
ATOM     15  C   UNL     1     103.460 125.050 147.297  0.00  0.00    +0.000 A 
ATOM     16  C   UNL     1     102.955 123.672 146.543  0.00  0.00    +0.000 A 
ATOM     17  C   UNL     1     102.658 124.856 147.285  0.00  0.00    +0.000 A 
ATOM     18  C   UNL     1     102.405 124.167 146.908  0.00  0.00    +0.000 A 
BRANCH  16  19
ATOM     19  O   UNL     1     102.702 122.982 146.165  0.00  0.00    +0.000 OA
ATOM     20  C   UNL     1     103.064 122.739 145.465  0.00  0.00    +0.000 C 
ENDBRANCH  16  19
ENDBRANCH   3  13
TORSDOF 2
ENDMDL
MODEL 8
REMARK VINA RESULT:      -7.5      6.897      7.732
REMARK  Name = 131753179
REMARK  2 active torsions:
REMARK  status: ('A' for Active; 'I' for Inactive)
REMARK    1  A    between atoms: O_2  and  C_15
REMARK    2  A    between atoms: C_5  and  C_9
REMARK                            x       y       z     vdW  Elec       q    Type
REMARK                         _______ _______ _______ _____ _____    ______ ____
ROOT
ATOM      1  O   UNL     1     110.773 125.028 135.322  0.00  0.00    +0.000 OA
ATOM      2  O   UNL     1     112.453 123.315 136.972  0.00  0.00    +0.000 OA
ATOM      3  C   UNL     1     110.236 126.241 135.852  0.00  0.00    +0.000 C 
ATOM      4  C   UNL     1     110.606 126.090 136.574  0.00  0.00    +0.000 C 
ATOM      5  C   UNL     1     110.319 125.711 135.226  0.00  0.00    +0.000 C 
ATOM      6  C   UNL     1     111.059 125.407 136.669  0.00  0.00    +0.000 A 
ATOM      7  C   UNL     1     111.143 124.876 136.043  0.00  0.00    +0.000 A 
ATOM      8  C   UNL     1     111.440 125.260 137.425  0.00  0.00    +0.000 A 
ATOM      9  C   UNL     1     111.612 124.161 136.130  0.00  0.00    +0.000 A 
ATOM     10  C   UNL     1     111.913 124.551 137.531  0.00  0.00    +0.000 A 
ATOM     11  C   UNL     1     112.000 123.998 136.879  0.00  0.00    +0.000 A 
ENDROOT
BRANCH   3  13
ATOM     12  O   UNL     1     108.425 128.974 135.471  0.00  0.00    +0.000 OA
ATOM     13  C   UNL     1     109.783 126.924 135.757  0.00  0.00    +0.000 A 
ATOM     14  C   UNL     1     110.094 127.573 135.351  0.00  0.00    +0.000 A 
ATOM     15  C   UNL     1     109.019 126.959 136.067  0.00  0.00    +0.000 A 
ATOM     16  C   UNL     1     109.641 128.255 135.257  0.00  0.00    +0.000 A 
ATOM     17  C   UNL     1     108.567 127.643 135.971  0.00  0.00    +0.000 A 
ATOM     18  C   UNL     1     108.877 128.290 135.566  0.00  0.00    +0.000 A 
BRANCH  16  19
ATOM     19  O   UNL     1     109.953 128.904 134.851  0.00  0.00    +0.000 OA
ATOM     20  C   UNL     1     110.703 129.188 135.042  0.00  0.00    +0.000 C 
ENDBRANCH  16  19
ENDBRANCH   3  13
TORSDOF 2
ENDMDL
MODEL 9
REMARK VINA RESULT:      -7.4      9.047     10.564
REMARK  Name = 131753179
REMARK  2 active torsions:
REMARK  status: ('A' for Active; 'I' for Inactive)
REMARK    1  A    between atoms: O_2  and  C_15
REMARK    2  A    between atoms: C_5  and  C_9
REMARK                            x       y       z     vdW  Elec       q    Type
REMARK                         _______ _______ _______ _____ _____    ______ ____
ROOT
ATOM      1  O   UNL     1     112.375 126.289 136.271  0.00  0.00    +0.000 OA
ATOM      2  O   UNL     1     113.100 123.549 136.941  0.00  0.00    +0.000 OA
ATOM      3  C   UNL     1     113.329 127.344 136.408  0.00  0.00    +0.000 C 
ATOM      4  C   UNL     1     113.890 126.801 136.675  0.00  0.00    +0.000 C 
ATOM      5  C   UNL     1     112.571 127.088 136.206  0.00  0.00    +0.000 C 
ATOM      6  C   UNL     1     113.693 126.002 136.740  0.00  0.00    +0.000 A 
ATOM      7  C   UNL     1     112.935 125.746 136.538  0.00  0.00    +0.000 A 
ATOM      8  C   UNL     1     114.287 125.446 137.019  0.00  0.00    +0.000 A 
ATOM      9  C   UNL     1     112.719 124.917 136.601  0.00  0.00    +0.000 A 
ATOM     10  C   UNL     1     114.088 124.614 137.088  0.00  0.00    +0.000 A 
ATOM     11  C   UNL     1     113.299 124.347 136.878  0.00  0.00    +0.000 A 
ENDROOT
BRANCH   3  13
ATOM     12  O   UNL     1     114.116 130.538 136.153  0.00  0.00    +0.000 OA
ATOM     13  C   UNL     1     113.526 128.142 136.344  0.00  0.00    +0.000 A 
ATOM     14  C   UNL     1     113.325 128.666 136.949  0.00  0.00    +0.000 A 
ATOM     15  C   UNL     1     113.923 128.417 135.675  0.00  0.00    +0.000 A 
ATOM     16  C   UNL     1     113.522 129.465 136.885  0.00  0.00    +0.000 A 
ATOM     17  C   UNL     1     114.120 129.216 135.612  0.00  0.00    +0.000 A 
ATOM     18  C   UNL     1     113.920 129.739 136.216  0.00  0.00    +0.000 A 
BRANCH  16  19
ATOM     19  O   UNL     1     113.322 129.989 137.490  0.00  0.00    +0.000 OA
ATOM     20  C   UNL     1     113.445 129.776 138.278  0.00  0.00    +0.000 C 
ENDBRANCH  16  19
ENDBRANCH   3  13
TORSDOF 2
ENDMDL
MODEL 10
REMARK VINA RESULT:      -7.4      8.785     10.193
REMARK  Name = 131753179
REMARK  2 active torsions:
REMARK  status: ('A' for Active; 'I' for Inactive)
REMARK    1  A    between atoms: O_2  and  C_15
REMARK    2  A    between atoms: C_5  and  C_9
REMARK                            x       y       z     vdW  Elec       q    Type
REMARK                         _______ _______ _______ _____ _____    ______ ____
ROOT
ATOM      1  O   UNL     1     113.091 128.263 137.365  0.00  0.00    +0.000 OA
ATOM      2  O   UNL     1     113.930 130.740 136.084  0.00  0.00    +0.000 OA
ATOM      3  C   UNL     1     113.398 127.001 136.770  0.00  0.00    +0.000 C 
ATOM      4  C   UNL     1     113.778 127.387 136.147  0.00  0.00    +0.000 C 
ATOM      5  C   UNL     1     113.054 127.439 137.379  0.00  0.00    +0.000 C 
ATOM      6  C   UNL     1     113.814 128.211 136.134  0.00  0.00    +0.000 A 
ATOM      7  C   UNL     1     113.470 128.649 136.743  0.00  0.00    +0.000 A 
ATOM      8  C   UNL     1     114.213 128.602 135.481  0.00  0.00    +0.000 A 
ATOM      9  C   UNL     1     113.501 129.508 136.740  0.00  0.00    +0.000 A 
ATOM     10  C   UNL     1     114.254 129.460 135.461  0.00  0.00    +0.000 A 
ATOM     11  C   UNL     1     113.896 129.916 136.095  0.00  0.00    +0.000 A 
ENDROOT
BRANCH   3  13
ATOM     12  O   UNL     1     113.252 123.704 136.821  0.00  0.00    +0.000 OA
ATOM     13  C   UNL     1     113.362 126.177 136.783  0.00  0.00    +0.000 A 
ATOM     14  C   UNL     1     112.701 125.788 136.476  0.00  0.00    +0.000 A 
ATOM     15  C   UNL     1     113.986 125.741 137.103  0.00  0.00    +0.000 A 
ATOM     16  C   UNL     1     112.666 124.964 136.489  0.00  0.00    +0.000 A 
ATOM     17  C   UNL     1     113.949 124.917 137.115  0.00  0.00    +0.000 A 
ATOM     18  C   UNL     1     113.289 124.529 136.809  0.00  0.00    +0.000 A 
BRANCH  16  19
ATOM     19  O   UNL     1     112.005 124.576 136.182  0.00  0.00    +0.000 OA
ATOM     20  C   UNL     1     111.280 124.966 136.138  0.00  0.00    +0.000 C 
ENDBRANCH  16  19
ENDBRANCH   3  13
TORSDOF 2
ENDMDL
