MODEL 1
REMARK VINA RESULT:      -7.5      0.000      0.000
REMARK  Name = 9844898
REMARK  7 active torsions:
REMARK  status: ('A' for Active; 'I' for Inactive)
REMARK    1  A    between atoms: O_2  and  C_13
REMARK    2  A    between atoms: O_3  and  C_15
REMARK    3  A    between atoms: O_4  and  C_16
REMARK    4  A    between atoms: O_5  and  C_18
REMARK    5  A    between atoms: O_8  and  C_22
REMARK    6  A    between atoms: O_9  and  C_23
REMARK    7  A    between atoms: C_12  and  C_17
REMARK                            x       y       z     vdW  Elec       q    Type
REMARK                         _______ _______ _______ _____ _____    ______ ____
ROOT
ATOM      1  O   UNL     1     113.562 127.590 136.256  0.00  0.00    +0.000 OA
ATOM      2  O   UNL     1     113.149 124.864 137.091  0.00  0.00    +0.000 OA
ATOM      3  O   UNL     1     111.141 127.695 135.519  0.00  0.00    +0.000 OA
ATOM      4  C   UNL     1     112.253 126.949 136.102  0.00  0.00    +0.000 A 
ATOM      5  C   UNL     1     113.042 126.912 136.343  0.00  0.00    +0.000 A 
ATOM      6  C   UNL     1     113.257 128.317 135.913  0.00  0.00    +0.000 A 
ATOM      7  C   UNL     1     111.764 126.291 136.191  0.00  0.00    +0.000 A 
ATOM      8  C   UNL     1     111.931 127.667 135.757  0.00  0.00    +0.000 A 
ATOM      9  C   UNL     1     112.436 128.356 135.662  0.00  0.00    +0.000 A 
ATOM     10  C   UNL     1     113.340 126.217 136.673  0.00  0.00    +0.000 A 
ATOM     11  C   UNL     1     112.062 125.596 136.520  0.00  0.00    +0.000 A 
ATOM     12  C   UNL     1     112.850 125.559 136.761  0.00  0.00    +0.000 A 
ENDROOT
BRANCH   6  13
ATOM     13  C   UNL     1     113.749 128.974 135.825  0.00  0.00    +0.000 A 
ATOM     14  C   UNL     1     113.843 129.505 136.449  0.00  0.00    +0.000 A 
ATOM     15  C   UNL     1     114.146 129.100 135.114  0.00  0.00    +0.000 A 
ATOM     16  C   UNL     1     114.335 130.161 136.363  0.00  0.00    +0.000 A 
ATOM     17  C   UNL     1     114.733 130.287 135.650  0.00  0.00    +0.000 A 
ATOM     18  C   UNL     1     114.638 129.756 135.026  0.00  0.00    +0.000 A 
BRANCH  16  19
ATOM     19  O   UNL     1     114.429 130.692 136.987  0.00  0.00    +0.000 OA
ATOM     20  C   UNL     1     114.089 130.530 137.722  0.00  0.00    +0.000 C 
ENDBRANCH  16  19
BRANCH  17  21
ATOM     21  O   UNL     1     115.224 130.943 135.563  0.00  0.00    +0.000 OA
ATOM     22  C   UNL     1     115.581 131.097 134.836  0.00  0.00    +0.000 C 
ENDBRANCH  17  21
ENDBRANCH   6  13
BRANCH   7  23
ATOM     23  O   UNL     1     110.976 126.328 135.950  0.00  0.00    +0.000 OA
ATOM     24  C   UNL     1     110.767 126.101 135.185  0.00  0.00    +0.000 C 
ENDBRANCH   7  23
BRANCH   9  25
ATOM     25  O   UNL     1     112.135 129.049 135.332  0.00  0.00    +0.000 OA
ATOM     26  C   UNL     1     111.352 129.267 135.473  0.00  0.00    +0.000 C 
ENDBRANCH   9  25
BRANCH  10  27
ATOM     27  O   UNL     1     114.128 126.180 136.913  0.00  0.00    +0.000 OA
ATOM     28  C   UNL     1     114.641 125.637 136.564  0.00  0.00    +0.000 C 
ENDBRANCH  10  27
BRANCH  11  29
ATOM     29  O   UNL     1     111.573 124.938 136.610  0.00  0.00    +0.000 OA
ATOM     30  C   UNL     1     111.367 124.675 137.363  0.00  0.00    +0.000 C 
ENDBRANCH  11  29
TORSDOF 7
ENDMDL
MODEL 2
REMARK VINA RESULT:      -7.2     12.578     14.675
REMARK  Name = 9844898
REMARK  7 active torsions:
REMARK  status: ('A' for Active; 'I' for Inactive)
REMARK    1  A    between atoms: O_2  and  C_13
REMARK    2  A    between atoms: O_3  and  C_15
REMARK    3  A    between atoms: O_4  and  C_16
REMARK    4  A    between atoms: O_5  and  C_18
REMARK    5  A    between atoms: O_8  and  C_22
REMARK    6  A    between atoms: O_9  and  C_23
REMARK    7  A    between atoms: C_12  and  C_17
REMARK                            x       y       z     vdW  Elec       q    Type
REMARK                         _______ _______ _______ _____ _____    ______ ____
ROOT
ATOM      1  O   UNL     1     104.563 124.153 146.941  0.00  0.00    +0.000 OA
ATOM      2  O   UNL     1     102.284 122.740 145.887  0.00  0.00    +0.000 OA
ATOM      3  O   UNL     1     103.028 125.355 148.557  0.00  0.00    +0.000 OA
ATOM      4  C   UNL     1     103.220 124.391 147.477  0.00  0.00    +0.000 A 
ATOM      5  C   UNL     1     103.718 123.998 146.949  0.00  0.00    +0.000 A 
ATOM      6  C   UNL     1     104.894 124.725 147.491  0.00  0.00    +0.000 A 
ATOM      7  C   UNL     1     102.410 124.234 147.474  0.00  0.00    +0.000 A 
ATOM      8  C   UNL     1     103.533 124.966 148.033  0.00  0.00    +0.000 A 
ATOM      9  C   UNL     1     104.376 125.134 148.040  0.00  0.00    +0.000 A 
ATOM     10  C   UNL     1     103.406 123.447 146.419  0.00  0.00    +0.000 A 
ATOM     11  C   UNL     1     102.098 123.684 146.945  0.00  0.00    +0.000 A 
ATOM     12  C   UNL     1     102.596 123.291 146.418  0.00  0.00    +0.000 A 
ENDROOT
BRANCH   6  13
ATOM     13  C   UNL     1     105.704 124.880 147.491  0.00  0.00    +0.000 A 
ATOM     14  C   UNL     1     106.022 125.415 146.949  0.00  0.00    +0.000 A 
ATOM     15  C   UNL     1     106.198 124.501 148.032  0.00  0.00    +0.000 A 
ATOM     16  C   UNL     1     106.832 125.571 146.948  0.00  0.00    +0.000 A 
ATOM     17  C   UNL     1     107.325 125.191 147.490  0.00  0.00    +0.000 A 
ATOM     18  C   UNL     1     107.008 124.656 148.032  0.00  0.00    +0.000 A 
BRANCH  16  19
ATOM     19  O   UNL     1     107.149 126.107 146.406  0.00  0.00    +0.000 OA
ATOM     20  C   UNL     1     106.662 126.459 145.841  0.00  0.00    +0.000 C 
ENDBRANCH  16  19
BRANCH  17  21
ATOM     21  O   UNL     1     108.135 125.347 147.489  0.00  0.00    +0.000 OA
ATOM     22  C   UNL     1     108.629 124.963 148.027  0.00  0.00    +0.000 C 
ENDBRANCH  17  21
ENDBRANCH   6  13
BRANCH   7  23
ATOM     23  O   UNL     1     101.912 124.627 148.002  0.00  0.00    +0.000 OA
ATOM     24  C   UNL     1     101.577 125.350 147.791  0.00  0.00    +0.000 C 
ENDBRANCH   7  23
BRANCH   9  25
ATOM     25  O   UNL     1     104.685 125.685 148.571  0.00  0.00    +0.000 OA
ATOM     26  C   UNL     1     104.215 126.307 148.840  0.00  0.00    +0.000 C 
ENDBRANCH   9  25
BRANCH  10  27
ATOM     27  O   UNL     1     103.903 123.055 145.892  0.00  0.00    +0.000 OA
ATOM     28  C   UNL     1     103.685 122.974 145.101  0.00  0.00    +0.000 C 
ENDBRANCH  10  27
BRANCH  11  29
ATOM     29  O   UNL     1     101.288 123.526 146.942  0.00  0.00    +0.000 OA
ATOM     30  C   UNL     1     101.006 122.809 147.235  0.00  0.00    +0.000 C 
ENDBRANCH  11  29
TORSDOF 7
ENDMDL
MODEL 3
REMARK VINA RESULT:      -7.0     10.477     12.636
REMARK  Name = 9844898
REMARK  7 active torsions:
REMARK  status: ('A' for Active; 'I' for Inactive)
REMARK    1  A    between atoms: O_2  and  C_13
REMARK    2  A    between atoms: O_3  and  C_15
REMARK    3  A    between atoms: O_4  and  C_16
REMARK    4  A    between atoms: O_5  and  C_18
REMARK    5  A    between atoms: O_8  and  C_22
REMARK    6  A    between atoms: O_9  and  C_23
REMARK    7  A    between atoms: C_12  and  C_17
REMARK                            x       y       z     vdW  Elec       q    Type
REMARK                         _______ _______ _______ _____ _____    ______ ____
ROOT
ATOM      1  O   UNL     1     106.309 125.166 145.752  0.00  0.00    +0.000 OA
ATOM      2  O   UNL     1     105.512 124.715 143.021  0.00  0.00    +0.000 OA
ATOM      3  O   UNL     1     106.520 127.638 145.247  0.00  0.00    +0.000 OA
ATOM      4  C   UNL     1     106.211 126.280 144.806  0.00  0.00    +0.000 A 
ATOM      5  C   UNL     1     106.141 125.474 144.968  0.00  0.00    +0.000 A 
ATOM      6  C   UNL     1     106.552 125.705 146.377  0.00  0.00    +0.000 A 
ATOM      7  C   UNL     1     106.048 126.564 144.049  0.00  0.00    +0.000 A 
ATOM      8  C   UNL     1     106.453 126.834 145.417  0.00  0.00    +0.000 A 
ATOM      9  C   UNL     1     106.624 126.544 146.208  0.00  0.00    +0.000 A 
ATOM     10  C   UNL     1     105.908 124.952 144.373  0.00  0.00    +0.000 A 
ATOM     11  C   UNL     1     105.815 126.043 143.454  0.00  0.00    +0.000 A 
ATOM     12  C   UNL     1     105.745 125.237 143.616  0.00  0.00    +0.000 A 
ENDROOT
BRANCH   6  13
ATOM     13  C   UNL     1     106.715 125.418 147.133  0.00  0.00    +0.000 A 
ATOM     14  C   UNL     1     106.100 125.303 147.672  0.00  0.00    +0.000 A 
ATOM     15  C   UNL     1     107.491 125.245 147.351  0.00  0.00    +0.000 A 
ATOM     16  C   UNL     1     106.262 125.017 148.428  0.00  0.00    +0.000 A 
ATOM     17  C   UNL     1     107.039 124.844 148.646  0.00  0.00    +0.000 A 
ATOM     18  C   UNL     1     107.654 124.959 148.108  0.00  0.00    +0.000 A 
BRANCH  16  19
ATOM     19  O   UNL     1     105.647 124.902 148.967  0.00  0.00    +0.000 OA
ATOM     20  C   UNL     1     104.864 124.981 148.721  0.00  0.00    +0.000 C 
ENDBRANCH  16  19
BRANCH  17  21
ATOM     21  O   UNL     1     107.202 124.557 149.402  0.00  0.00    +0.000 OA
ATOM     22  C   UNL     1     107.975 124.362 149.612  0.00  0.00    +0.000 C 
ENDBRANCH  17  21
ENDBRANCH   6  13
BRANCH   7  23
ATOM     23  O   UNL     1     106.117 127.370 143.887  0.00  0.00    +0.000 OA
ATOM     24  C   UNL     1     105.463 127.865 143.967  0.00  0.00    +0.000 C 
ENDBRANCH   7  23
BRANCH   9  25
ATOM     25  O   UNL     1     106.857 127.068 146.802  0.00  0.00    +0.000 OA
ATOM     26  C   UNL     1     107.241 127.771 146.604  0.00  0.00    +0.000 C 
ENDBRANCH   9  25
BRANCH  10  27
ATOM     27  O   UNL     1     105.839 124.147 144.535  0.00  0.00    +0.000 OA
ATOM     28  C   UNL     1     105.102 123.779 144.490  0.00  0.00    +0.000 C 
ENDBRANCH  10  27
BRANCH  11  29
ATOM     29  O   UNL     1     105.651 126.326 142.697  0.00  0.00    +0.000 OA
ATOM     30  C   UNL     1     106.159 126.151 142.072  0.00  0.00    +0.000 C 
ENDBRANCH  11  29
TORSDOF 7
ENDMDL
MODEL 4
REMARK VINA RESULT:      -7.0     10.337     12.455
REMARK  Name = 9844898
REMARK  7 active torsions:
REMARK  status: ('A' for Active; 'I' for Inactive)
REMARK    1  A    between atoms: O_2  and  C_13
REMARK    2  A    between atoms: O_3  and  C_15
REMARK    3  A    between atoms: O_4  and  C_16
REMARK    4  A    between atoms: O_5  and  C_18
REMARK    5  A    between atoms: O_8  and  C_22
REMARK    6  A    between atoms: O_9  and  C_23
REMARK    7  A    between atoms: C_12  and  C_17
REMARK                            x       y       z     vdW  Elec       q    Type
REMARK                         _______ _______ _______ _____ _____    ______ ____
ROOT
ATOM      1  O   UNL     1     106.757 126.448 145.762  0.00  0.00    +0.000 OA
ATOM      2  O   UNL     1     106.997 128.145 143.446  0.00  0.00    +0.000 OA
ATOM      3  O   UNL     1     105.356 124.840 144.397  0.00  0.00    +0.000 OA
ATOM      4  C   UNL     1     106.122 126.080 144.494  0.00  0.00    +0.000 A 
ATOM      5  C   UNL     1     106.578 126.605 144.937  0.00  0.00    +0.000 A 
ATOM      6  C   UNL     1     106.456 125.732 146.132  0.00  0.00    +0.000 A 
ATOM      7  C   UNL     1     105.957 126.243 143.702  0.00  0.00    +0.000 A 
ATOM      8  C   UNL     1     105.812 125.360 144.847  0.00  0.00    +0.000 A 
ATOM      9  C   UNL     1     105.981 125.185 145.671  0.00  0.00    +0.000 A 
ATOM     10  C   UNL     1     106.870 127.294 144.587  0.00  0.00    +0.000 A 
ATOM     11  C   UNL     1     106.248 126.930 143.353  0.00  0.00    +0.000 A 
ATOM     12  C   UNL     1     106.705 127.456 143.796  0.00  0.00    +0.000 A 
ENDROOT
BRANCH   6  13
ATOM     13  C   UNL     1     106.623 125.572 146.924  0.00  0.00    +0.000 A 
ATOM     14  C   UNL     1     106.153 125.899 147.518  0.00  0.00    +0.000 A 
ATOM     15  C   UNL     1     107.258 125.086 147.122  0.00  0.00    +0.000 A 
ATOM     16  C   UNL     1     106.319 125.740 148.310  0.00  0.00    +0.000 A 
ATOM     17  C   UNL     1     106.955 125.252 148.509  0.00  0.00    +0.000 A 
ATOM     18  C   UNL     1     107.425 124.926 147.914  0.00  0.00    +0.000 A 
BRANCH  16  19
ATOM     19  O   UNL     1     105.849 126.066 148.905  0.00  0.00    +0.000 OA
ATOM     20  C   UNL     1     105.299 126.653 148.720  0.00  0.00    +0.000 C 
ENDBRANCH  16  19
BRANCH  17  21
ATOM     21  O   UNL     1     107.121 125.093 149.300  0.00  0.00    +0.000 OA
ATOM     22  C   UNL     1     107.686 124.525 149.497  0.00  0.00    +0.000 C 
ENDBRANCH  17  21
ENDBRANCH   6  13
BRANCH   7  23
ATOM     23  O   UNL     1     105.500 125.717 143.260  0.00  0.00    +0.000 OA
ATOM     24  C   UNL     1     105.861 125.094 142.857  0.00  0.00    +0.000 C 
ENDBRANCH   7  23
BRANCH   9  25
ATOM     25  O   UNL     1     105.688 124.496 146.018  0.00  0.00    +0.000 OA
ATOM     26  C   UNL     1     104.921 124.244 145.850  0.00  0.00    +0.000 C 
ENDBRANCH   9  25
BRANCH  10  27
ATOM     27  O   UNL     1     107.326 127.819 145.029  0.00  0.00    +0.000 OA
ATOM     28  C   UNL     1     107.061 128.589 145.158  0.00  0.00    +0.000 C 
ENDBRANCH  10  27
BRANCH  11  29
ATOM     29  O   UNL     1     106.084 127.093 142.561  0.00  0.00    +0.000 OA
ATOM     30  C   UNL     1     105.541 127.682 142.365  0.00  0.00    +0.000 C 
ENDBRANCH  11  29
TORSDOF 7
ENDMDL
MODEL 5
REMARK VINA RESULT:      -7.0      8.305     10.124
REMARK  Name = 9844898
REMARK  7 active torsions:
REMARK  status: ('A' for Active; 'I' for Inactive)
REMARK    1  A    between atoms: O_2  and  C_13
REMARK    2  A    between atoms: O_3  and  C_15
REMARK    3  A    between atoms: O_4  and  C_16
REMARK    4  A    between atoms: O_5  and  C_18
REMARK    5  A    between atoms: O_8  and  C_22
REMARK    6  A    between atoms: O_9  and  C_23
REMARK    7  A    between atoms: C_12  and  C_17
REMARK                            x       y       z     vdW  Elec       q    Type
REMARK                         _______ _______ _______ _____ _____    ______ ____
ROOT
ATOM      1  O   UNL     1     111.603 131.198 145.238  0.00  0.00    +0.000 OA
ATOM      2  O   UNL     1     111.421 128.831 143.605  0.00  0.00    +0.000 OA
ATOM      3  O   UNL     1     112.410 132.490 143.216  0.00  0.00    +0.000 OA
ATOM      4  C   UNL     1     111.958 131.238 143.817  0.00  0.00    +0.000 A 
ATOM      5  C   UNL     1     111.695 130.815 144.474  0.00  0.00    +0.000 A 
ATOM      6  C   UNL     1     111.788 132.033 145.318  0.00  0.00    +0.000 A 
ATOM      7  C   UNL     1     112.042 130.859 143.089  0.00  0.00    +0.000 A 
ATOM      8  C   UNL     1     112.147 132.074 143.878  0.00  0.00    +0.000 A 
ATOM      9  C   UNL     1     112.062 132.474 144.634  0.00  0.00    +0.000 A 
ATOM     10  C   UNL     1     111.515 130.012 144.404  0.00  0.00    +0.000 A 
ATOM     11  C   UNL     1     111.863 130.057 143.018  0.00  0.00    +0.000 A 
ATOM     12  C   UNL     1     111.600 129.634 143.675  0.00  0.00    +0.000 A 
ENDROOT
BRANCH   6  13
ATOM     13  C   UNL     1     111.703 132.410 146.048  0.00  0.00    +0.000 A 
ATOM     14  C   UNL     1     110.992 132.782 146.239  0.00  0.00    +0.000 A 
ATOM     15  C   UNL     1     112.327 132.413 146.586  0.00  0.00    +0.000 A 
ATOM     16  C   UNL     1     110.906 133.159 146.967  0.00  0.00    +0.000 A 
ATOM     17  C   UNL     1     111.532 133.162 147.506  0.00  0.00    +0.000 A 
ATOM     18  C   UNL     1     112.242 132.789 147.315  0.00  0.00    +0.000 A 
BRANCH  16  19
ATOM     19  O   UNL     1     110.195 133.532 147.159  0.00  0.00    +0.000 OA
ATOM     20  C   UNL     1     109.492 133.286 146.804  0.00  0.00    +0.000 C 
ENDBRANCH  16  19
BRANCH  17  21
ATOM     21  O   UNL     1     111.446 133.538 148.235  0.00  0.00    +0.000 OA
ATOM     22  C   UNL     1     111.966 133.366 148.851  0.00  0.00    +0.000 C 
ENDBRANCH  17  21
ENDBRANCH   6  13
BRANCH   7  23
ATOM     23  O   UNL     1     112.305 131.283 142.432  0.00  0.00    +0.000 OA
ATOM     24  C   UNL     1     113.111 131.323 142.262  0.00  0.00    +0.000 C 
ENDBRANCH   7  23
BRANCH   9  25
ATOM     25  O   UNL     1     112.241 133.277 144.702  0.00  0.00    +0.000 OA
ATOM     26  C   UNL     1     112.073 133.791 144.079  0.00  0.00    +0.000 C 
ENDBRANCH   9  25
BRANCH  10  27
ATOM     27  O   UNL     1     111.253 129.589 145.060  0.00  0.00    +0.000 OA
ATOM     28  C   UNL     1     111.713 128.979 145.370  0.00  0.00    +0.000 C 
ENDBRANCH  10  27
BRANCH  11  29
ATOM     29  O   UNL     1     111.947 129.678 142.290  0.00  0.00    +0.000 OA
ATOM     30  C   UNL     1     111.280 129.425 141.877  0.00  0.00    +0.000 C 
ENDBRANCH  11  29
TORSDOF 7
ENDMDL
MODEL 6
REMARK VINA RESULT:      -7.0      2.462      3.795
REMARK  Name = 9844898
REMARK  7 active torsions:
REMARK  status: ('A' for Active; 'I' for Inactive)
REMARK    1  A    between atoms: O_2  and  C_13
REMARK    2  A    between atoms: O_3  and  C_15
REMARK    3  A    between atoms: O_4  and  C_16
REMARK    4  A    between atoms: O_5  and  C_18
REMARK    5  A    between atoms: O_8  and  C_22
REMARK    6  A    between atoms: O_9  and  C_23
REMARK    7  A    between atoms: C_12  and  C_17
REMARK                            x       y       z     vdW  Elec       q    Type
REMARK                         _______ _______ _______ _____ _____    ______ ____
ROOT
ATOM      1  O   UNL     1     112.020 126.062 137.808  0.00  0.00    +0.000 OA
ATOM      2  O   UNL     1     110.867 124.590 135.616  0.00  0.00    +0.000 OA
ATOM      3  O   UNL     1     111.467 128.220 136.604  0.00  0.00    +0.000 OA
ATOM      4  C   UNL     1     111.452 126.761 136.652  0.00  0.00    +0.000 A 
ATOM      5  C   UNL     1     111.631 126.056 137.042  0.00  0.00    +0.000 A 
ATOM      6  C   UNL     1     112.225 126.813 138.173  0.00  0.00    +0.000 A 
ATOM      7  C   UNL     1     111.078 126.741 135.916  0.00  0.00    +0.000 A 
ATOM      8  C   UNL     1     111.650 127.520 137.001  0.00  0.00    +0.000 A 
ATOM      9  C   UNL     1     112.039 127.547 137.767  0.00  0.00    +0.000 A 
ATOM     10  C   UNL     1     111.436 125.332 136.696  0.00  0.00    +0.000 A 
ATOM     11  C   UNL     1     110.883 126.018 135.571  0.00  0.00    +0.000 A 
ATOM     12  C   UNL     1     111.062 125.314 135.961  0.00  0.00    +0.000 A 
ENDROOT
BRANCH   6  13
ATOM     13  C   UNL     1     112.599 126.829 138.908  0.00  0.00    +0.000 A 
ATOM     14  C   UNL     1     112.151 126.787 139.600  0.00  0.00    +0.000 A 
ATOM     15  C   UNL     1     113.420 126.887 138.953  0.00  0.00    +0.000 A 
ATOM     16  C   UNL     1     112.523 126.802 140.335  0.00  0.00    +0.000 A 
ATOM     17  C   UNL     1     113.345 126.861 140.380  0.00  0.00    +0.000 A 
ATOM     18  C   UNL     1     113.794 126.903 139.688  0.00  0.00    +0.000 A 
BRANCH  16  19
ATOM     19  O   UNL     1     112.075 126.760 141.027  0.00  0.00    +0.000 OA
ATOM     20  C   UNL     1     111.269 126.589 140.986  0.00  0.00    +0.000 C 
ENDBRANCH  16  19
BRANCH  17  21
ATOM     21  O   UNL     1     113.718 126.877 141.115  0.00  0.00    +0.000 OA
ATOM     22  C   UNL     1     114.526 127.034 141.164  0.00  0.00    +0.000 C 
ENDBRANCH  17  21
ENDBRANCH   6  13
BRANCH   7  23
ATOM     23  O   UNL     1     110.899 127.446 135.526  0.00  0.00    +0.000 OA
ATOM     24  C   UNL     1     111.455 127.793 135.025  0.00  0.00    +0.000 C 
ENDBRANCH   7  23
BRANCH   9  25
ATOM     25  O   UNL     1     112.233 128.272 138.110  0.00  0.00    +0.000 OA
ATOM     26  C   UNL     1     111.724 128.916 138.028  0.00  0.00    +0.000 C 
ENDBRANCH   9  25
BRANCH  10  27
ATOM     27  O   UNL     1     111.614 124.628 137.086  0.00  0.00    +0.000 OA
ATOM     28  C   UNL     1     112.128 124.083 136.739  0.00  0.00    +0.000 C 
ENDBRANCH  10  27
BRANCH  11  29
ATOM     29  O   UNL     1     110.510 125.999 134.836  0.00  0.00    +0.000 OA
ATOM     30  C   UNL     1     109.715 125.788 134.782  0.00  0.00    +0.000 C 
ENDBRANCH  11  29
TORSDOF 7
ENDMDL
MODEL 7
REMARK VINA RESULT:      -6.9      1.475      4.781
REMARK  Name = 9844898
REMARK  7 active torsions:
REMARK  status: ('A' for Active; 'I' for Inactive)
REMARK    1  A    between atoms: O_2  and  C_13
REMARK    2  A    between atoms: O_3  and  C_15
REMARK    3  A    between atoms: O_4  and  C_16
REMARK    4  A    between atoms: O_5  and  C_18
REMARK    5  A    between atoms: O_8  and  C_22
REMARK    6  A    between atoms: O_9  and  C_23
REMARK    7  A    between atoms: C_12  and  C_17
REMARK                            x       y       z     vdW  Elec       q    Type
REMARK                         _______ _______ _______ _____ _____    ______ ____
ROOT
ATOM      1  O   UNL     1     112.893 127.540 136.550  0.00  0.00    +0.000 OA
ATOM      2  O   UNL     1     114.030 130.104 135.891  0.00  0.00    +0.000 OA
ATOM      3  O   UNL     1     112.109 128.493 138.760  0.00  0.00    +0.000 OA
ATOM      4  C   UNL     1     112.792 128.666 137.481  0.00  0.00    +0.000 A 
ATOM      5  C   UNL     1     113.049 128.358 136.760  0.00  0.00    +0.000 A 
ATOM      6  C   UNL     1     112.464 127.035 137.098  0.00  0.00    +0.000 A 
ATOM      7  C   UNL     1     112.949 129.453 137.672  0.00  0.00    +0.000 A 
ATOM      8  C   UNL     1     112.362 128.177 138.041  0.00  0.00    +0.000 A 
ATOM      9  C   UNL     1     112.196 127.356 137.848  0.00  0.00    +0.000 A 
ATOM     10  C   UNL     1     113.462 128.837 136.230  0.00  0.00    +0.000 A 
ATOM     11  C   UNL     1     113.361 129.932 137.142  0.00  0.00    +0.000 A 
ATOM     12  C   UNL     1     113.617 129.624 136.421  0.00  0.00    +0.000 A 
ENDROOT
BRANCH   6  13
ATOM     13  C   UNL     1     112.309 126.248 136.904  0.00  0.00    +0.000 A 
ATOM     14  C   UNL     1     111.671 126.061 136.415  0.00  0.00    +0.000 A 
ATOM     15  C   UNL     1     112.791 125.648 137.199  0.00  0.00    +0.000 A 
ATOM     16  C   UNL     1     111.516 125.275 136.221  0.00  0.00    +0.000 A 
ATOM     17  C   UNL     1     111.999 124.674 136.516  0.00  0.00    +0.000 A 
ATOM     18  C   UNL     1     112.637 124.861 137.005  0.00  0.00    +0.000 A 
BRANCH  16  19
ATOM     19  O   UNL     1     110.878 125.088 135.732  0.00  0.00    +0.000 OA
ATOM     20  C   UNL     1     110.522 125.676 135.276  0.00  0.00    +0.000 C 
ENDBRANCH  16  19
BRANCH  17  21
ATOM     21  O   UNL     1     111.844 123.888 136.323  0.00  0.00    +0.000 OA
ATOM     22  C   UNL     1     112.166 123.280 136.777  0.00  0.00    +0.000 C 
ENDBRANCH  17  21
ENDBRANCH   6  13
BRANCH   7  23
ATOM     23  O   UNL     1     112.692 129.761 138.393  0.00  0.00    +0.000 OA
ATOM     24  C   UNL     1     113.181 129.722 139.056  0.00  0.00    +0.000 C 
ENDBRANCH   7  23
BRANCH   9  25
ATOM     25  O   UNL     1     111.784 126.879 138.380  0.00  0.00    +0.000 OA
ATOM     26  C   UNL     1     111.156 127.193 138.814  0.00  0.00    +0.000 C 
ENDBRANCH   9  25
BRANCH  10  27
ATOM     27  O   UNL     1     113.718 128.529 135.510  0.00  0.00    +0.000 OA
ATOM     28  C   UNL     1     114.520 128.541 135.318  0.00  0.00    +0.000 C 
ENDBRANCH  10  27
BRANCH  11  29
ATOM     29  O   UNL     1     113.517 130.720 137.333  0.00  0.00    +0.000 OA
ATOM     30  C   UNL     1     113.128 131.326 136.933  0.00  0.00    +0.000 C 
ENDBRANCH  11  29
TORSDOF 7
ENDMDL
MODEL 8
REMARK VINA RESULT:      -6.9      0.879      2.423
REMARK  Name = 9844898
REMARK  7 active torsions:
REMARK  status: ('A' for Active; 'I' for Inactive)
REMARK    1  A    between atoms: O_2  and  C_13
REMARK    2  A    between atoms: O_3  and  C_15
REMARK    3  A    between atoms: O_4  and  C_16
REMARK    4  A    between atoms: O_5  and  C_18
REMARK    5  A    between atoms: O_8  and  C_22
REMARK    6  A    between atoms: O_9  and  C_23
REMARK    7  A    between atoms: C_12  and  C_17
REMARK                            x       y       z     vdW  Elec       q    Type
REMARK                         _______ _______ _______ _____ _____    ______ ____
ROOT
ATOM      1  O   UNL     1     112.172 128.566 135.381  0.00  0.00    +0.000 OA
ATOM      2  O   UNL     1     109.552 127.598 134.675  0.00  0.00    +0.000 OA
ATOM      3  O   UNL     1     112.638 126.362 136.537  0.00  0.00    +0.000 OA
ATOM      4  C   UNL     1     111.738 127.224 135.776  0.00  0.00    +0.000 A 
ATOM      5  C   UNL     1     111.583 127.941 135.399  0.00  0.00    +0.000 A 
ATOM      6  C   UNL     1     112.933 128.442 135.762  0.00  0.00    +0.000 A 
ATOM      7  C   UNL     1     111.163 126.631 135.786  0.00  0.00    +0.000 A 
ATOM      8  C   UNL     1     112.492 127.082 136.162  0.00  0.00    +0.000 A 
ATOM      9  C   UNL     1     113.094 127.696 136.155  0.00  0.00    +0.000 A 
ATOM     10  C   UNL     1     110.854 128.066 135.032  0.00  0.00    +0.000 A 
ATOM     11  C   UNL     1     110.435 126.756 135.420  0.00  0.00    +0.000 A 
ATOM     12  C   UNL     1     110.281 127.473 135.043  0.00  0.00    +0.000 A 
ENDROOT
BRANCH   6  13
ATOM     13  C   UNL     1     113.505 129.037 135.750  0.00  0.00    +0.000 A 
ATOM     14  C   UNL     1     113.530 129.597 136.355  0.00  0.00    +0.000 A 
ATOM     15  C   UNL     1     114.052 129.071 135.134  0.00  0.00    +0.000 A 
ATOM     16  C   UNL     1     114.101 130.192 136.344  0.00  0.00    +0.000 A 
ATOM     17  C   UNL     1     114.649 130.226 135.727  0.00  0.00    +0.000 A 
ATOM     18  C   UNL     1     114.624 129.665 135.123  0.00  0.00    +0.000 A 
BRANCH  16  19
ATOM     19  O   UNL     1     114.126 130.753 136.949  0.00  0.00    +0.000 OA
ATOM     20  C   UNL     1     113.464 130.873 137.427  0.00  0.00    +0.000 C 
ENDBRANCH  16  19
BRANCH  17  21
ATOM     21  O   UNL     1     115.220 130.820 135.716  0.00  0.00    +0.000 OA
ATOM     22  C   UNL     1     115.710 130.909 135.058  0.00  0.00    +0.000 C 
ENDBRANCH  17  21
ENDBRANCH   6  13
BRANCH   7  23
ATOM     23  O   UNL     1     111.318 125.914 136.163  0.00  0.00    +0.000 OA
ATOM     24  C   UNL     1     111.118 125.814 136.958  0.00  0.00    +0.000 C 
ENDBRANCH   7  23
BRANCH   9  25
ATOM     25  O   UNL     1     113.821 127.568 136.522  0.00  0.00    +0.000 OA
ATOM     26  C   UNL     1     114.149 126.811 136.538  0.00  0.00    +0.000 C 
ENDBRANCH   9  25
BRANCH  10  27
ATOM     27  O   UNL     1     110.700 128.782 134.655  0.00  0.00    +0.000 OA
ATOM     28  C   UNL     1     110.086 129.265 134.921  0.00  0.00    +0.000 C 
ENDBRANCH  10  27
BRANCH  11  29
ATOM     29  O   UNL     1     109.861 126.163 135.430  0.00  0.00    +0.000 OA
ATOM     30  C   UNL     1     109.684 125.749 134.740  0.00  0.00    +0.000 C 
ENDBRANCH  11  29
TORSDOF 7
ENDMDL
MODEL 9
REMARK VINA RESULT:      -6.8      2.343      4.943
REMARK  Name = 9844898
REMARK  7 active torsions:
REMARK  status: ('A' for Active; 'I' for Inactive)
REMARK    1  A    between atoms: O_2  and  C_13
REMARK    2  A    between atoms: O_3  and  C_15
REMARK    3  A    between atoms: O_4  and  C_16
REMARK    4  A    between atoms: O_5  and  C_18
REMARK    5  A    between atoms: O_8  and  C_22
REMARK    6  A    between atoms: O_9  and  C_23
REMARK    7  A    between atoms: C_12  and  C_17
REMARK                            x       y       z     vdW  Elec       q    Type
REMARK                         _______ _______ _______ _____ _____    ______ ____
ROOT
ATOM      1  O   UNL     1     113.237 127.027 138.969  0.00  0.00    +0.000 OA
ATOM      2  O   UNL     1     113.844 128.820 141.141  0.00  0.00    +0.000 OA
ATOM      3  O   UNL     1     112.900 129.028 137.455  0.00  0.00    +0.000 OA
ATOM      4  C   UNL     1     113.224 128.478 138.769  0.00  0.00    +0.000 A 
ATOM      5  C   UNL     1     113.334 127.828 139.264  0.00  0.00    +0.000 A 
ATOM      6  C   UNL     1     113.021 126.901 138.146  0.00  0.00    +0.000 A 
ATOM      7  C   UNL     1     113.320 129.242 139.064  0.00  0.00    +0.000 A 
ATOM      8  C   UNL     1     113.009 128.373 137.944  0.00  0.00    +0.000 A 
ATOM      9  C   UNL     1     112.907 127.578 137.630  0.00  0.00    +0.000 A 
ATOM     10  C   UNL     1     113.541 127.942 140.055  0.00  0.00    +0.000 A 
ATOM     11  C   UNL     1     113.527 129.357 139.854  0.00  0.00    +0.000 A 
ATOM     12  C   UNL     1     113.637 128.706 140.350  0.00  0.00    +0.000 A 
ENDROOT
BRANCH   6  13
ATOM     13  C   UNL     1     112.926 126.136 137.854  0.00  0.00    +0.000 A 
ATOM     14  C   UNL     1     113.583 125.703 137.607  0.00  0.00    +0.000 A 
ATOM     15  C   UNL     1     112.173 125.802 137.808  0.00  0.00    +0.000 A 
ATOM     16  C   UNL     1     113.489 124.938 137.315  0.00  0.00    +0.000 A 
ATOM     17  C   UNL     1     112.735 124.604 137.269  0.00  0.00    +0.000 A 
ATOM     18  C   UNL     1     112.077 125.037 137.516  0.00  0.00    +0.000 A 
BRANCH  16  19
ATOM     19  O   UNL     1     114.147 124.506 137.068  0.00  0.00    +0.000 OA
ATOM     20  C   UNL     1     114.907 124.780 137.234  0.00  0.00    +0.000 C 
ENDBRANCH  16  19
BRANCH  17  21
ATOM     21  O   UNL     1     112.640 123.840 136.977  0.00  0.00    +0.000 OA
ATOM     22  C   UNL     1     111.886 123.508 136.926  0.00  0.00    +0.000 C 
ENDBRANCH  17  21
ENDBRANCH   6  13
BRANCH   7  23
ATOM     23  O   UNL     1     113.210 129.893 138.569  0.00  0.00    +0.000 OA
ATOM     24  C   UNL     1     112.464 130.238 138.500  0.00  0.00    +0.000 C 
ENDBRANCH   7  23
BRANCH   9  25
ATOM     25  O   UNL     1     112.700 127.467 136.840  0.00  0.00    +0.000 OA
ATOM     26  C   UNL     1     113.011 127.963 136.258  0.00  0.00    +0.000 C 
ENDBRANCH   9  25
BRANCH  10  27
ATOM     27  O   UNL     1     113.651 127.292 140.550  0.00  0.00    +0.000 OA
ATOM     28  C   UNL     1     113.150 127.175 141.195  0.00  0.00    +0.000 C 
ENDBRANCH  10  27
BRANCH  11  29
ATOM     29  O   UNL     1     113.624 130.121 140.150  0.00  0.00    +0.000 OA
ATOM     30  C   UNL     1     114.375 130.393 140.353  0.00  0.00    +0.000 C 
ENDBRANCH  11  29
TORSDOF 7
ENDMDL
MODEL 10
REMARK VINA RESULT:      -6.8     12.609     14.546
REMARK  Name = 9844898
REMARK  7 active torsions:
REMARK  status: ('A' for Active; 'I' for Inactive)
REMARK    1  A    between atoms: O_2  and  C_13
REMARK    2  A    between atoms: O_3  and  C_15
REMARK    3  A    between atoms: O_4  and  C_16
REMARK    4  A    between atoms: O_5  and  C_18
REMARK    5  A    between atoms: O_8  and  C_22
REMARK    6  A    between atoms: O_9  and  C_23
REMARK    7  A    between atoms: C_12  and  C_17
REMARK                            x       y       z     vdW  Elec       q    Type
REMARK                         _______ _______ _______ _____ _____    ______ ____
ROOT
ATOM      1  O   UNL     1     104.236 125.368 147.667  0.00  0.00    +0.000 OA
ATOM      2  O   UNL     1     102.143 124.368 149.376  0.00  0.00    +0.000 OA
ATOM      3  O   UNL     1     103.349 123.920 145.789  0.00  0.00    +0.000 OA
ATOM      4  C   UNL     1     103.263 124.394 147.168  0.00  0.00    +0.000 A 
ATOM      5  C   UNL     1     103.550 124.864 147.782  0.00  0.00    +0.000 A 
ATOM      6  C   UNL     1     104.630 125.381 146.903  0.00  0.00    +0.000 A 
ATOM      7  C   UNL     1     102.603 123.914 147.290  0.00  0.00    +0.000 A 
ATOM      8  C   UNL     1     103.643 124.394 146.397  0.00  0.00    +0.000 A 
ATOM      9  C   UNL     1     104.331 124.891 146.264  0.00  0.00    +0.000 A 
ATOM     10  C   UNL     1     103.177 124.856 148.518  0.00  0.00    +0.000 A 
ATOM     11  C   UNL     1     102.230 123.905 148.025  0.00  0.00    +0.000 A 
ATOM     12  C   UNL     1     102.517 124.376 148.639  0.00  0.00    +0.000 A 
ENDROOT
BRANCH   6  13
ATOM     13  C   UNL     1     105.290 125.862 146.784  0.00  0.00    +0.000 A 
ATOM     14  C   UNL     1     106.042 125.588 146.985  0.00  0.00    +0.000 A 
ATOM     15  C   UNL     1     105.199 126.616 146.463  0.00  0.00    +0.000 A 
ATOM     16  C   UNL     1     106.702 126.067 146.866  0.00  0.00    +0.000 A 
ATOM     17  C   UNL     1     106.611 126.822 146.546  0.00  0.00    +0.000 A 
ATOM     18  C   UNL     1     105.859 127.097 146.344  0.00  0.00    +0.000 A 
BRANCH  16  19
ATOM     19  O   UNL     1     107.454 125.793 147.068  0.00  0.00    +0.000 OA
ATOM     20  C   UNL     1     107.535 125.150 147.579  0.00  0.00    +0.000 C 
ENDBRANCH  16  19
BRANCH  17  21
ATOM     21  O   UNL     1     107.270 127.302 146.427  0.00  0.00    +0.000 OA
ATOM     22  C   UNL     1     107.184 128.042 146.073  0.00  0.00    +0.000 C 
ENDBRANCH  17  21
ENDBRANCH   6  13
BRANCH   7  23
ATOM     23  O   UNL     1     102.316 123.443 146.677  0.00  0.00    +0.000 OA
ATOM     24  C   UNL     1     101.723 123.729 146.180  0.00  0.00    +0.000 C 
ENDBRANCH   7  23
BRANCH   9  25
ATOM     25  O   UNL     1     104.703 124.898 145.527  0.00  0.00    +0.000 OA
ATOM     26  C   UNL     1     104.798 124.195 145.107  0.00  0.00    +0.000 C 
ENDBRANCH   9  25
BRANCH  10  27
ATOM     27  O   UNL     1     103.463 125.326 149.131  0.00  0.00    +0.000 OA
ATOM     28  C   UNL     1     102.998 125.934 149.437  0.00  0.00    +0.000 C 
ENDBRANCH  10  27
BRANCH  11  29
ATOM     29  O   UNL     1     101.569 123.426 148.148  0.00  0.00    +0.000 OA
ATOM     30  C   UNL     1     101.636 122.739 148.599  0.00  0.00    +0.000 C 
ENDBRANCH  11  29
TORSDOF 7
ENDMDL
