MODEL 1
REMARK VINA RESULT:     -10.0      0.000      0.000
REMARK  Name = 13915662
REMARK  8 active torsions:
REMARK  status: ('A' for Active; 'I' for Inactive)
REMARK    1  A    between atoms: O_2  and  C_18
REMARK    2  A    between atoms: O_2  and  C_20
REMARK    3  A    between atoms: O_6  and  C_19
REMARK    4  A    between atoms: O_6  and  C_24
REMARK    5  A    between atoms: C_16  and  C_19
REMARK    6  A    between atoms: C_21  and  C_26
REMARK    7  A    between atoms: C_24  and  C_31
REMARK    8  A    between atoms: C_37  and  C_38
REMARK                            x       y       z     vdW  Elec       q    Type
REMARK                         _______ _______ _______ _____ _____    ______ ____
ROOT
ATOM      1  O   UNL     1     112.748 125.753 137.397  0.00  0.00    +0.000 OA
ATOM      2  O   UNL     1     113.712 124.197 136.208  0.00  0.00    +0.000 OA
ATOM      3  O   UNL     1     114.904 124.540 137.297  0.00  0.00    +0.000 OA
ATOM      4  O   UNL     1     114.658 125.692 138.453  0.00  0.00    +0.000 OA
ATOM      5  C   UNL     1     113.589 124.773 136.785  0.00  0.00    +0.000 C 
ATOM      6  C   UNL     1     114.185 124.945 137.330  0.00  0.00    +0.000 C 
ATOM      7  C   UNL     1     112.871 125.177 136.819  0.00  0.00    +0.000 C 
ATOM      8  C   UNL     1     114.062 125.521 137.908  0.00  0.00    +0.000 C 
ATOM      9  C   UNL     1     113.343 125.925 137.941  0.00  0.00    +0.000 C 
ENDROOT
BRANCH   9  10
ATOM     10  O   UNL     1     113.221 126.501 138.519  0.00  0.00    +0.000 OA
BRANCH  10  14
ATOM     11  O   UNL     1     112.090 128.368 138.561  0.00  0.00    +0.000 OA
ATOM     12  O   UNL     1     113.792 128.344 136.227  0.00  0.00    +0.000 OA
ATOM     13  O   UNL     1     112.065 130.642 136.742  0.00  0.00    +0.000 OA
ATOM     14  C   UNL     1     112.937 127.245 138.305  0.00  0.00    +0.000 A 
ATOM     15  C   UNL     1     112.374 127.623 138.775  0.00  0.00    +0.000 A 
ATOM     16  C   UNL     1     113.215 127.613 137.620  0.00  0.00    +0.000 A 
ATOM     17  C   UNL     1     112.931 128.357 137.406  0.00  0.00    +0.000 A 
ATOM     18  C   UNL     1     112.368 128.734 137.878  0.00  0.00    +0.000 A 
ATOM     19  C   UNL     1     113.229 128.729 136.691  0.00  0.00    +0.000 A 
ATOM     20  C   UNL     1     112.065 129.509 137.665  0.00  0.00    +0.000 A 
ATOM     21  C   UNL     1     112.937 129.504 136.464  0.00  0.00    +0.000 A 
ATOM     22  C   UNL     1     112.351 129.897 136.954  0.00  0.00    +0.000 A 
BRANCH  15  25
ATOM     23  O   UNL     1     110.398 126.050 140.111  0.00  0.00    +0.000 OA
ATOM     24  O   UNL     1     111.261 126.155 141.513  0.00  0.00    +0.000 OA
ATOM     25  C   UNL     1     112.096 127.256 139.460  0.00  0.00    +0.000 A 
ATOM     26  C   UNL     1     111.386 126.836 139.444  0.00  0.00    +0.000 A 
ATOM     27  C   UNL     1     112.528 127.309 140.161  0.00  0.00    +0.000 A 
ATOM     28  C   UNL     1     111.108 126.469 140.128  0.00  0.00    +0.000 A 
ATOM     29  C   UNL     1     112.249 126.942 140.845  0.00  0.00    +0.000 A 
ATOM     30  C   UNL     1     111.539 126.522 140.828  0.00  0.00    +0.000 A 
ENDBRANCH  15  25
ENDBRANCH  10  14
ENDBRANCH   9  10
BRANCH   7  31
ATOM     31  C   UNL     1     112.276 125.006 136.274  0.00  0.00    +0.000 C 
BRANCH  31  32
ATOM     32  O   UNL     1     111.499 125.239 136.424  0.00  0.00    +0.000 OA
BRANCH  32  34
ATOM     33  O   UNL     1     110.709 124.726 135.350  0.00  0.00    +0.000 OA
ATOM     34  C   UNL     1     110.977 125.365 135.798  0.00  0.00    +0.000 C 
BRANCH  34  35
ATOM     35  C   UNL     1     110.723 126.129 135.619  0.00  0.00    +0.000 C 
ATOM     36  C   UNL     1     109.990 126.394 135.889  0.00  0.00    +0.000 C 
BRANCH  36  38
ATOM     37  O   UNL     1     108.971 129.451 135.175  0.00  0.00    +0.000 OA
ATOM     38  C   UNL     1     109.736 127.158 135.710  0.00  0.00    +0.000 A 
ATOM     39  C   UNL     1     109.194 127.538 136.203  0.00  0.00    +0.000 A 
ATOM     40  C   UNL     1     110.022 127.543 135.039  0.00  0.00    +0.000 A 
ATOM     41  C   UNL     1     108.939 128.302 136.025  0.00  0.00    +0.000 A 
ATOM     42  C   UNL     1     109.768 128.306 134.861  0.00  0.00    +0.000 A 
ATOM     43  C   UNL     1     109.226 128.686 135.354  0.00  0.00    +0.000 A 
ENDBRANCH  36  38
ENDBRANCH  34  35
ENDBRANCH  32  34
ENDBRANCH  31  32
ENDBRANCH   7  31
TORSDOF 8
ENDMDL
MODEL 2
REMARK VINA RESULT:      -9.9      1.270      4.743
REMARK  Name = 13915662
REMARK  8 active torsions:
REMARK  status: ('A' for Active; 'I' for Inactive)
REMARK    1  A    between atoms: O_2  and  C_18
REMARK    2  A    between atoms: O_2  and  C_20
REMARK    3  A    between atoms: O_6  and  C_19
REMARK    4  A    between atoms: O_6  and  C_24
REMARK    5  A    between atoms: C_16  and  C_19
REMARK    6  A    between atoms: C_21  and  C_26
REMARK    7  A    between atoms: C_24  and  C_31
REMARK    8  A    between atoms: C_37  and  C_38
REMARK                            x       y       z     vdW  Elec       q    Type
REMARK                         _______ _______ _______ _____ _____    ______ ____
ROOT
ATOM      1  O   UNL     1     110.222 128.274 136.372  0.00  0.00    +0.000 OA
ATOM      2  O   UNL     1     108.127 128.413 135.776  0.00  0.00    +0.000 OA
ATOM      3  O   UNL     1     108.336 129.868 136.526  0.00  0.00    +0.000 OA
ATOM      4  O   UNL     1     109.802 130.260 137.173  0.00  0.00    +0.000 OA
ATOM      5  C   UNL     1     108.860 128.609 136.100  0.00  0.00    +0.000 C 
ATOM      6  C   UNL     1     108.965 129.337 136.475  0.00  0.00    +0.000 C 
ATOM      7  C   UNL     1     109.489 128.077 136.048  0.00  0.00    +0.000 C 
ATOM      8  C   UNL     1     109.698 129.532 136.798  0.00  0.00    +0.000 C 
ATOM      9  C   UNL     1     110.327 129.001 136.747  0.00  0.00    +0.000 C 
ENDROOT
BRANCH   9  10
ATOM     10  O   UNL     1     111.060 129.197 137.070  0.00  0.00    +0.000 OA
BRANCH  10  14
ATOM     11  O   UNL     1     112.613 128.082 138.123  0.00  0.00    +0.000 OA
ATOM     12  O   UNL     1     110.036 127.398 139.236  0.00  0.00    +0.000 OA
ATOM     13  O   UNL     1     112.456 126.164 140.309  0.00  0.00    +0.000 OA
ATOM     14  C   UNL     1     111.427 128.683 137.602  0.00  0.00    +0.000 A 
ATOM     15  C   UNL     1     112.247 128.596 137.592  0.00  0.00    +0.000 A 
ATOM     16  C   UNL     1     110.973 128.256 138.143  0.00  0.00    +0.000 A 
ATOM     17  C   UNL     1     111.339 127.743 138.675  0.00  0.00    +0.000 A 
ATOM     18  C   UNL     1     112.160 127.656 138.664  0.00  0.00    +0.000 A 
ATOM     19  C   UNL     1     110.856 127.304 139.234  0.00  0.00    +0.000 A 
ATOM     20  C   UNL     1     112.553 127.124 139.212  0.00  0.00    +0.000 A 
ATOM     21  C   UNL     1     111.232 126.768 139.789  0.00  0.00    +0.000 A 
ATOM     22  C   UNL     1     112.087 126.677 139.779  0.00  0.00    +0.000 A 
BRANCH  15  25
ATOM     23  O   UNL     1     113.613 130.995 136.855  0.00  0.00    +0.000 OA
ATOM     24  O   UNL     1     114.061 130.302 135.426  0.00  0.00    +0.000 OA
ATOM     25  C   UNL     1     112.701 129.023 137.050  0.00  0.00    +0.000 A 
ATOM     26  C   UNL     1     112.930 129.796 137.223  0.00  0.00    +0.000 A 
ATOM     27  C   UNL     1     112.924 128.675 136.336  0.00  0.00    +0.000 A 
ATOM     28  C   UNL     1     113.383 130.222 136.682  0.00  0.00    +0.000 A 
ATOM     29  C   UNL     1     113.377 129.102 135.796  0.00  0.00    +0.000 A 
ATOM     30  C   UNL     1     113.607 129.876 135.968  0.00  0.00    +0.000 A 
ENDBRANCH  15  25
ENDBRANCH  10  14
ENDBRANCH   9  10
BRANCH   7  31
ATOM     31  C   UNL     1     109.385 127.350 135.673  0.00  0.00    +0.000 C 
BRANCH  31  32
ATOM     32  O   UNL     1     110.037 126.942 135.375  0.00  0.00    +0.000 OA
BRANCH  32  34
ATOM     33  O   UNL     1     109.509 125.749 134.792  0.00  0.00    +0.000 OA
ATOM     34  C   UNL     1     110.020 126.119 135.324  0.00  0.00    +0.000 C 
BRANCH  34  35
ATOM     35  C   UNL     1     110.514 125.665 135.804  0.00  0.00    +0.000 C 
ATOM     36  C   UNL     1     111.251 125.423 135.526  0.00  0.00    +0.000 C 
BRANCH  36  38
ATOM     37  O   UNL     1     113.229 123.607 137.445  0.00  0.00    +0.000 OA
ATOM     38  C   UNL     1     111.745 124.968 136.006  0.00  0.00    +0.000 A 
ATOM     39  C   UNL     1     112.546 125.157 136.068  0.00  0.00    +0.000 A 
ATOM     40  C   UNL     1     111.440 124.326 136.423  0.00  0.00    +0.000 A 
ATOM     41  C   UNL     1     113.041 124.704 136.548  0.00  0.00    +0.000 A 
ATOM     42  C   UNL     1     111.934 123.873 136.902  0.00  0.00    +0.000 A 
ATOM     43  C   UNL     1     112.734 124.061 136.965  0.00  0.00    +0.000 A 
ENDBRANCH  36  38
ENDBRANCH  34  35
ENDBRANCH  32  34
ENDBRANCH  31  32
ENDBRANCH   7  31
TORSDOF 8
ENDMDL
MODEL 3
REMARK VINA RESULT:      -9.8      1.636      4.867
REMARK  Name = 13915662
REMARK  8 active torsions:
REMARK  status: ('A' for Active; 'I' for Inactive)
REMARK    1  A    between atoms: O_2  and  C_18
REMARK    2  A    between atoms: O_2  and  C_20
REMARK    3  A    between atoms: O_6  and  C_19
REMARK    4  A    between atoms: O_6  and  C_24
REMARK    5  A    between atoms: C_16  and  C_19
REMARK    6  A    between atoms: C_21  and  C_26
REMARK    7  A    between atoms: C_24  and  C_31
REMARK    8  A    between atoms: C_37  and  C_38
REMARK                            x       y       z     vdW  Elec       q    Type
REMARK                         _______ _______ _______ _____ _____    ______ ____
ROOT
ATOM      1  O   UNL     1     111.559 129.040 138.552  0.00  0.00    +0.000 OA
ATOM      2  O   UNL     1     111.886 129.557 140.647  0.00  0.00    +0.000 OA
ATOM      3  O   UNL     1     111.303 130.985 140.061  0.00  0.00    +0.000 OA
ATOM      4  O   UNL     1     110.892 131.117 138.468  0.00  0.00    +0.000 OA
ATOM      5  C   UNL     1     111.680 129.622 139.851  0.00  0.00    +0.000 C 
ATOM      6  C   UNL     1     111.389 130.337 139.558  0.00  0.00    +0.000 C 
ATOM      7  C   UNL     1     111.765 128.974 139.348  0.00  0.00    +0.000 C 
ATOM      8  C   UNL     1     111.183 130.402 138.762  0.00  0.00    +0.000 C 
ATOM      9  C   UNL     1     111.268 129.753 138.259  0.00  0.00    +0.000 C 
ENDROOT
BRANCH   9  10
ATOM     10  O   UNL     1     111.062 129.820 137.462  0.00  0.00    +0.000 OA
BRANCH  10  14
ATOM     11  O   UNL     1     111.928 129.085 135.598  0.00  0.00    +0.000 OA
ATOM     12  O   UNL     1     114.020 130.234 137.225  0.00  0.00    +0.000 OA
ATOM     13  O   UNL     1     114.668 129.104 134.612  0.00  0.00    +0.000 OA
ATOM     14  C   UNL     1     111.615 129.639 136.877  0.00  0.00    +0.000 A 
ATOM     15  C   UNL     1     111.375 129.265 136.183  0.00  0.00    +0.000 A 
ATOM     16  C   UNL     1     112.411 129.834 136.987  0.00  0.00    +0.000 A 
ATOM     17  C   UNL     1     112.964 129.653 136.402  0.00  0.00    +0.000 A 
ATOM     18  C   UNL     1     112.722 129.279 135.707  0.00  0.00    +0.000 A 
ATOM     19  C   UNL     1     113.788 129.860 136.528  0.00  0.00    +0.000 A 
ATOM     20  C   UNL     1     113.288 129.086 135.091  0.00  0.00    +0.000 A 
ATOM     21  C   UNL     1     114.368 129.675 135.922  0.00  0.00    +0.000 A 
ATOM     22  C   UNL     1     114.117 129.285 135.199  0.00  0.00    +0.000 A 
BRANCH  15  25
ATOM     23  O   UNL     1     108.736 130.003 135.372  0.00  0.00    +0.000 OA
ATOM     24  O   UNL     1     108.197 128.489 135.746  0.00  0.00    +0.000 OA
ATOM     25  C   UNL     1     110.580 129.071 136.073  0.00  0.00    +0.000 A 
ATOM     26  C   UNL     1     110.055 129.634 135.777  0.00  0.00    +0.000 A 
ATOM     27  C   UNL     1     110.311 128.314 136.260  0.00  0.00    +0.000 A 
ATOM     28  C   UNL     1     109.261 129.440 135.668  0.00  0.00    +0.000 A 
ATOM     29  C   UNL     1     109.517 128.121 136.151  0.00  0.00    +0.000 A 
ATOM     30  C   UNL     1     108.992 128.684 135.855  0.00  0.00    +0.000 A 
ENDBRANCH  15  25
ENDBRANCH  10  14
ENDBRANCH   9  10
BRANCH   7  31
ATOM     31  C   UNL     1     112.056 128.260 139.641  0.00  0.00    +0.000 C 
BRANCH  31  32
ATOM     32  O   UNL     1     111.961 127.565 139.207  0.00  0.00    +0.000 OA
BRANCH  32  34
ATOM     33  O   UNL     1     112.371 126.498 140.063  0.00  0.00    +0.000 OA
ATOM     34  C   UNL     1     112.446 126.916 139.355  0.00  0.00    +0.000 C 
BRANCH  34  35
ATOM     35  C   UNL     1     113.007 126.682 138.797  0.00  0.00    +0.000 C 
ATOM     36  C   UNL     1     112.856 126.037 138.306  0.00  0.00    +0.000 C 
BRANCH  36  38
ATOM     37  O   UNL     1     115.096 125.104 136.069  0.00  0.00    +0.000 OA
ATOM     38  C   UNL     1     113.417 125.804 137.747  0.00  0.00    +0.000 A 
ATOM     39  C   UNL     1     113.285 125.950 136.946  0.00  0.00    +0.000 A 
ATOM     40  C   UNL     1     114.108 125.425 137.988  0.00  0.00    +0.000 A 
ATOM     41  C   UNL     1     113.845 125.717 136.386  0.00  0.00    +0.000 A 
ATOM     42  C   UNL     1     114.667 125.191 137.430  0.00  0.00    +0.000 A 
ATOM     43  C   UNL     1     114.536 125.338 136.629  0.00  0.00    +0.000 A 
ENDBRANCH  36  38
ENDBRANCH  34  35
ENDBRANCH  32  34
ENDBRANCH  31  32
ENDBRANCH   7  31
TORSDOF 8
ENDMDL
MODEL 4
REMARK VINA RESULT:      -9.7      1.514      4.097
REMARK  Name = 13915662
REMARK  8 active torsions:
REMARK  status: ('A' for Active; 'I' for Inactive)
REMARK    1  A    between atoms: O_2  and  C_18
REMARK    2  A    between atoms: O_2  and  C_20
REMARK    3  A    between atoms: O_6  and  C_19
REMARK    4  A    between atoms: O_6  and  C_24
REMARK    5  A    between atoms: C_16  and  C_19
REMARK    6  A    between atoms: C_21  and  C_26
REMARK    7  A    between atoms: C_24  and  C_31
REMARK    8  A    between atoms: C_37  and  C_38
REMARK                            x       y       z     vdW  Elec       q    Type
REMARK                         _______ _______ _______ _____ _____    ______ ____
ROOT
ATOM      1  O   UNL     1     111.425 126.360 137.241  0.00  0.00    +0.000 OA
ATOM      2  O   UNL     1     111.752 124.274 137.794  0.00  0.00    +0.000 OA
ATOM      3  O   UNL     1     111.383 124.118 136.193  0.00  0.00    +0.000 OA
ATOM      4  O   UNL     1     111.043 125.457 135.291  0.00  0.00    +0.000 OA
ATOM      5  C   UNL     1     111.582 124.944 137.344  0.00  0.00    +0.000 C 
ATOM      6  C   UNL     1     111.397 124.866 136.543  0.00  0.00    +0.000 C 
ATOM      7  C   UNL     1     111.596 125.691 137.693  0.00  0.00    +0.000 C 
ATOM      8  C   UNL     1     111.227 125.535 136.092  0.00  0.00    +0.000 C 
ATOM      9  C   UNL     1     111.241 126.283 136.442  0.00  0.00    +0.000 C 
ENDROOT
BRANCH   9  10
ATOM     10  O   UNL     1     111.071 126.952 135.990  0.00  0.00    +0.000 OA
BRANCH  10  14
ATOM     11  O   UNL     1     111.833 128.997 135.946  0.00  0.00    +0.000 OA
ATOM     12  O   UNL     1     114.059 127.158 136.044  0.00  0.00    +0.000 OA
ATOM     13  O   UNL     1     114.554 130.035 135.971  0.00  0.00    +0.000 OA
ATOM     14  C   UNL     1     111.596 127.588 135.982  0.00  0.00    +0.000 A 
ATOM     15  C   UNL     1     111.308 128.361 135.954  0.00  0.00    +0.000 A 
ATOM     16  C   UNL     1     112.410 127.452 136.002  0.00  0.00    +0.000 A 
ATOM     17  C   UNL     1     112.935 128.088 135.994  0.00  0.00    +0.000 A 
ATOM     18  C   UNL     1     112.646 128.861 135.966  0.00  0.00    +0.000 A 
ATOM     19  C   UNL     1     113.780 127.933 136.016  0.00  0.00    +0.000 A 
ATOM     20  C   UNL     1     113.183 129.531 135.958  0.00  0.00    +0.000 A 
ATOM     21  C   UNL     1     114.331 128.592 136.008  0.00  0.00    +0.000 A 
ATOM     22  C   UNL     1     114.031 129.397 135.979  0.00  0.00    +0.000 A 
BRANCH  15  25
ATOM     23  O   UNL     1     108.875 129.022 137.299  0.00  0.00    +0.000 OA
ATOM     24  O   UNL     1     108.054 128.905 135.873  0.00  0.00    +0.000 OA
ATOM     25  C   UNL     1     110.494 128.497 135.934  0.00  0.00    +0.000 A 
ATOM     26  C   UNL     1     110.091 128.692 136.627  0.00  0.00    +0.000 A 
ATOM     27  C   UNL     1     110.084 128.438 135.220  0.00  0.00    +0.000 A 
ATOM     28  C   UNL     1     109.278 128.828 136.606  0.00  0.00    +0.000 A 
ATOM     29  C   UNL     1     109.271 128.574 135.201  0.00  0.00    +0.000 A 
ATOM     30  C   UNL     1     108.868 128.769 135.894  0.00  0.00    +0.000 A 
ENDBRANCH  15  25
ENDBRANCH  10  14
ENDBRANCH   9  10
BRANCH   7  31
ATOM     31  C   UNL     1     111.780 125.768 138.493  0.00  0.00    +0.000 C 
BRANCH  31  32
ATOM     32  O   UNL     1     111.548 126.443 138.907  0.00  0.00    +0.000 OA
BRANCH  32  34
ATOM     33  O   UNL     1     111.947 126.267 140.267  0.00  0.00    +0.000 OA
ATOM     34  C   UNL     1     111.981 126.695 139.562  0.00  0.00    +0.000 C 
BRANCH  34  35
ATOM     35  C   UNL     1     112.447 127.374 139.514  0.00  0.00    +0.000 C 
ATOM     36  C   UNL     1     112.146 128.100 139.759  0.00  0.00    +0.000 C 
BRANCH  36  38
ATOM     37  O   UNL     1     114.009 130.817 139.565  0.00  0.00    +0.000 OA
ATOM     38  C   UNL     1     112.612 128.779 139.711  0.00  0.00    +0.000 A 
ATOM     39  C   UNL     1     112.262 129.510 139.554  0.00  0.00    +0.000 A 
ATOM     40  C   UNL     1     113.428 128.729 139.819  0.00  0.00    +0.000 A 
ATOM     41  C   UNL     1     112.727 130.189 139.505  0.00  0.00    +0.000 A 
ATOM     42  C   UNL     1     113.893 129.407 139.771  0.00  0.00    +0.000 A 
ATOM     43  C   UNL     1     113.543 130.137 139.614  0.00  0.00    +0.000 A 
ENDBRANCH  36  38
ENDBRANCH  34  35
ENDBRANCH  32  34
ENDBRANCH  31  32
ENDBRANCH   7  31
TORSDOF 8
ENDMDL
MODEL 5
REMARK VINA RESULT:      -9.6      2.128      4.981
REMARK  Name = 13915662
REMARK  8 active torsions:
REMARK  status: ('A' for Active; 'I' for Inactive)
REMARK    1  A    between atoms: O_2  and  C_18
REMARK    2  A    between atoms: O_2  and  C_20
REMARK    3  A    between atoms: O_6  and  C_19
REMARK    4  A    between atoms: O_6  and  C_24
REMARK    5  A    between atoms: C_16  and  C_19
REMARK    6  A    between atoms: C_21  and  C_26
REMARK    7  A    between atoms: C_24  and  C_31
REMARK    8  A    between atoms: C_37  and  C_38
REMARK                            x       y       z     vdW  Elec       q    Type
REMARK                         _______ _______ _______ _____ _____    ______ ____
ROOT
ATOM      1  O   UNL     1     112.738 129.791 138.081  0.00  0.00    +0.000 OA
ATOM      2  O   UNL     1     111.669 130.429 136.289  0.00  0.00    +0.000 OA
ATOM      3  O   UNL     1     110.991 131.415 137.424  0.00  0.00    +0.000 OA
ATOM      4  O   UNL     1     111.477 131.318 138.998  0.00  0.00    +0.000 OA
ATOM      5  C   UNL     1     111.913 130.380 137.075  0.00  0.00    +0.000 C 
ATOM      6  C   UNL     1     111.573 130.874 137.643  0.00  0.00    +0.000 C 
ATOM      7  C   UNL     1     112.496 129.839 137.294  0.00  0.00    +0.000 C 
ATOM      8  C   UNL     1     111.817 130.825 138.430  0.00  0.00    +0.000 C 
ATOM      9  C   UNL     1     112.399 130.283 138.649  0.00  0.00    +0.000 C 
ENDROOT
BRANCH   9  10
ATOM     10  O   UNL     1     112.642 130.235 139.436  0.00  0.00    +0.000 OA
BRANCH  10  14
ATOM     11  O   UNL     1     113.142 128.604 140.798  0.00  0.00    +0.000 OA
ATOM     12  O   UNL     1     110.759 127.908 139.321  0.00  0.00    +0.000 OA
ATOM     13  O   UNL     1     111.846 126.043 141.287  0.00  0.00    +0.000 OA
ATOM     14  C   UNL     1     112.607 129.514 139.835  0.00  0.00    +0.000 A 
ATOM     15  C   UNL     1     113.178 129.326 140.399  0.00  0.00    +0.000 A 
ATOM     16  C   UNL     1     111.999 128.980 139.669  0.00  0.00    +0.000 A 
ATOM     17  C   UNL     1     111.963 128.259 140.068  0.00  0.00    +0.000 A 
ATOM     18  C   UNL     1     112.535 128.072 140.633  0.00  0.00    +0.000 A 
ATOM     19  C   UNL     1     111.326 127.712 139.886  0.00  0.00    +0.000 A 
ATOM     20  C   UNL     1     112.509 127.324 141.055  0.00  0.00    +0.000 A 
ATOM     21  C   UNL     1     111.284 126.959 140.299  0.00  0.00    +0.000 A 
ATOM     22  C   UNL     1     111.879 126.763 140.887  0.00  0.00    +0.000 A 
BRANCH  15  25
ATOM     23  O   UNL     1     114.167 131.575 141.859  0.00  0.00    +0.000 OA
ATOM     24  O   UNL     1     115.607 131.460 141.061  0.00  0.00    +0.000 OA
ATOM     25  C   UNL     1     113.785 129.860 140.565  0.00  0.00    +0.000 A 
ATOM     26  C   UNL     1     113.673 130.451 141.129  0.00  0.00    +0.000 A 
ATOM     27  C   UNL     1     114.505 129.802 140.166  0.00  0.00    +0.000 A 
ATOM     28  C   UNL     1     114.280 130.984 141.295  0.00  0.00    +0.000 A 
ATOM     29  C   UNL     1     115.112 130.335 140.332  0.00  0.00    +0.000 A 
ATOM     30  C   UNL     1     114.999 130.926 140.896  0.00  0.00    +0.000 A 
ENDBRANCH  15  25
ENDBRANCH  10  14
ENDBRANCH   9  10
BRANCH   7  31
ATOM     31  C   UNL     1     112.835 129.346 136.727  0.00  0.00    +0.000 C 
BRANCH  31  32
ATOM     32  O   UNL     1     113.317 128.719 136.959  0.00  0.00    +0.000 OA
BRANCH  32  34
ATOM     33  O   UNL     1     114.055 128.446 135.767  0.00  0.00    +0.000 OA
ATOM     34  C   UNL     1     113.595 128.182 136.399  0.00  0.00    +0.000 C 
BRANCH  34  35
ATOM     35  C   UNL     1     113.415 127.380 136.470  0.00  0.00    +0.000 C 
ATOM     36  C   UNL     1     113.961 126.861 136.806  0.00  0.00    +0.000 C 
BRANCH  36  38
ATOM     37  O   UNL     1     113.241 123.653 137.087  0.00  0.00    +0.000 OA
ATOM     38  C   UNL     1     113.780 126.059 136.876  0.00  0.00    +0.000 A 
ATOM     39  C   UNL     1     114.194 125.503 136.429  0.00  0.00    +0.000 A 
ATOM     40  C   UNL     1     113.188 125.814 137.394  0.00  0.00    +0.000 A 
ATOM     41  C   UNL     1     114.014 124.701 136.499  0.00  0.00    +0.000 A 
ATOM     42  C   UNL     1     113.008 125.012 137.464  0.00  0.00    +0.000 A 
ATOM     43  C   UNL     1     113.421 124.456 137.017  0.00  0.00    +0.000 A 
ENDBRANCH  36  38
ENDBRANCH  34  35
ENDBRANCH  32  34
ENDBRANCH  31  32
ENDBRANCH   7  31
TORSDOF 8
ENDMDL
MODEL 6
REMARK VINA RESULT:      -9.5      1.548      4.153
REMARK  Name = 13915662
REMARK  8 active torsions:
REMARK  status: ('A' for Active; 'I' for Inactive)
REMARK    1  A    between atoms: O_2  and  C_18
REMARK    2  A    between atoms: O_2  and  C_20
REMARK    3  A    between atoms: O_6  and  C_19
REMARK    4  A    between atoms: O_6  and  C_24
REMARK    5  A    between atoms: C_16  and  C_19
REMARK    6  A    between atoms: C_21  and  C_26
REMARK    7  A    between atoms: C_24  and  C_31
REMARK    8  A    between atoms: C_37  and  C_38
REMARK                            x       y       z     vdW  Elec       q    Type
REMARK                         _______ _______ _______ _____ _____    ______ ____
ROOT
ATOM      1  O   UNL     1     110.242 127.948 136.730  0.00  0.00    +0.000 OA
ATOM      2  O   UNL     1     108.479 127.322 135.606  0.00  0.00    +0.000 OA
ATOM      3  O   UNL     1     108.155 128.925 135.826  0.00  0.00    +0.000 OA
ATOM      4  O   UNL     1     109.222 129.876 136.649  0.00  0.00    +0.000 OA
ATOM      5  C   UNL     1     109.013 127.797 136.017  0.00  0.00    +0.000 C 
ATOM      6  C   UNL     1     108.851 128.599 136.127  0.00  0.00    +0.000 C 
ATOM      7  C   UNL     1     109.709 127.472 136.318  0.00  0.00    +0.000 C 
ATOM      8  C   UNL     1     109.385 129.074 136.539  0.00  0.00    +0.000 C 
ATOM      9  C   UNL     1     110.081 128.749 136.840  0.00  0.00    +0.000 C 
ENDROOT
BRANCH   9  10
ATOM     10  O   UNL     1     110.614 129.226 137.251  0.00  0.00    +0.000 OA
BRANCH  10  14
ATOM     11  O   UNL     1     112.791 129.304 137.400  0.00  0.00    +0.000 OA
ATOM     12  O   UNL     1     112.039 129.062 134.621  0.00  0.00    +0.000 OA
ATOM     13  O   UNL     1     114.862 129.206 135.355  0.00  0.00    +0.000 OA
ATOM     14  C   UNL     1     111.410 129.233 137.036  0.00  0.00    +0.000 A 
ATOM     15  C   UNL     1     111.994 129.296 137.615  0.00  0.00    +0.000 A 
ATOM     16  C   UNL     1     111.624 129.177 136.240  0.00  0.00    +0.000 A 
ATOM     17  C   UNL     1     112.420 129.184 136.025  0.00  0.00    +0.000 A 
ATOM     18  C   UNL     1     113.003 129.248 136.606  0.00  0.00    +0.000 A 
ATOM     19  C   UNL     1     112.629 129.125 135.193  0.00  0.00    +0.000 A 
ATOM     20  C   UNL     1     113.836 129.257 136.394  0.00  0.00    +0.000 A 
ATOM     21  C   UNL     1     113.457 129.133 134.964  0.00  0.00    +0.000 A 
ATOM     22  C   UNL     1     114.065 129.199 135.567  0.00  0.00    +0.000 A 
BRANCH  15  25
ATOM     23  O   UNL     1     111.223 130.880 139.866  0.00  0.00    +0.000 OA
ATOM     24  O   UNL     1     111.142 129.520 140.796  0.00  0.00    +0.000 OA
ATOM     25  C   UNL     1     111.781 129.352 138.411  0.00  0.00    +0.000 A 
ATOM     26  C   UNL     1     111.608 130.089 138.741  0.00  0.00    +0.000 A 
ATOM     27  C   UNL     1     111.740 128.672 138.875  0.00  0.00    +0.000 A 
ATOM     28  C   UNL     1     111.395 130.144 139.536  0.00  0.00    +0.000 A 
ATOM     29  C   UNL     1     111.527 128.728 139.670  0.00  0.00    +0.000 A 
ATOM     30  C   UNL     1     111.355 129.465 140.000  0.00  0.00    +0.000 A 
ENDBRANCH  15  25
ENDBRANCH  10  14
ENDBRANCH   9  10
BRANCH   7  31
ATOM     31  C   UNL     1     109.870 126.671 136.208  0.00  0.00    +0.000 C 
BRANCH  31  32
ATOM     32  O   UNL     1     110.414 126.288 136.696  0.00  0.00    +0.000 OA
BRANCH  32  34
ATOM     33  O   UNL     1     110.415 125.002 136.074  0.00  0.00    +0.000 OA
ATOM     34  C   UNL     1     110.825 125.629 136.420  0.00  0.00    +0.000 C 
BRANCH  34  35
ATOM     35  C   UNL     1     111.647 125.595 136.488  0.00  0.00    +0.000 C 
ATOM     36  C   UNL     1     111.997 125.052 137.000  0.00  0.00    +0.000 C 
BRANCH  36  38
ATOM     37  O   UNL     1     115.283 124.915 137.274  0.00  0.00    +0.000 OA
ATOM     38  C   UNL     1     112.818 125.018 137.069  0.00  0.00    +0.000 A 
ATOM     39  C   UNL     1     113.236 124.400 136.717  0.00  0.00    +0.000 A 
ATOM     40  C   UNL     1     113.222 125.601 137.489  0.00  0.00    +0.000 A 
ATOM     41  C   UNL     1     114.058 124.365 136.785  0.00  0.00    +0.000 A 
ATOM     42  C   UNL     1     114.042 125.568 137.557  0.00  0.00    +0.000 A 
ATOM     43  C   UNL     1     114.460 124.950 137.205  0.00  0.00    +0.000 A 
ENDBRANCH  36  38
ENDBRANCH  34  35
ENDBRANCH  32  34
ENDBRANCH  31  32
ENDBRANCH   7  31
TORSDOF 8
ENDMDL
MODEL 7
REMARK VINA RESULT:      -9.5      1.307      4.380
REMARK  Name = 13915662
REMARK  8 active torsions:
REMARK  status: ('A' for Active; 'I' for Inactive)
REMARK    1  A    between atoms: O_2  and  C_18
REMARK    2  A    between atoms: O_2  and  C_20
REMARK    3  A    between atoms: O_6  and  C_19
REMARK    4  A    between atoms: O_6  and  C_24
REMARK    5  A    between atoms: C_16  and  C_19
REMARK    6  A    between atoms: C_21  and  C_26
REMARK    7  A    between atoms: C_24  and  C_31
REMARK    8  A    between atoms: C_37  and  C_38
REMARK                            x       y       z     vdW  Elec       q    Type
REMARK                         _______ _______ _______ _____ _____    ______ ____
ROOT
ATOM      1  O   UNL     1     111.445 126.770 136.034  0.00  0.00    +0.000 OA
ATOM      2  O   UNL     1     109.772 127.094 134.669  0.00  0.00    +0.000 OA
ATOM      3  O   UNL     1     109.751 125.449 134.805  0.00  0.00    +0.000 OA
ATOM      4  O   UNL     1     110.858 124.685 135.760  0.00  0.00    +0.000 OA
ATOM      5  C   UNL     1     110.326 126.712 135.147  0.00  0.00    +0.000 C 
ATOM      6  C   UNL     1     110.315 125.890 135.214  0.00  0.00    +0.000 C 
ATOM      7  C   UNL     1     110.891 127.153 135.557  0.00  0.00    +0.000 C 
ATOM      8  C   UNL     1     110.869 125.508 135.692  0.00  0.00    +0.000 C 
ATOM      9  C   UNL     1     111.434 125.948 136.102  0.00  0.00    +0.000 C 
ENDROOT
BRANCH   9  10
ATOM     10  O   UNL     1     111.987 125.566 136.579  0.00  0.00    +0.000 OA
BRANCH  10  14
ATOM     11  O   UNL     1     112.954 126.081 138.468  0.00  0.00    +0.000 OA
ATOM     12  O   UNL     1     110.098 126.416 138.743  0.00  0.00    +0.000 OA
ATOM     13  O   UNL     1     111.852 126.983 141.008  0.00  0.00    +0.000 OA
ATOM     14  C   UNL     1     112.092 125.805 137.362  0.00  0.00    +0.000 A 
ATOM     15  C   UNL     1     112.850 125.842 137.685  0.00  0.00    +0.000 A 
ATOM     16  C   UNL     1     111.437 126.008 137.823  0.00  0.00    +0.000 A 
ATOM     17  C   UNL     1     111.542 126.247 138.605  0.00  0.00    +0.000 A 
ATOM     18  C   UNL     1     112.300 126.284 138.927  0.00  0.00    +0.000 A 
ATOM     19  C   UNL     1     110.852 126.456 139.074  0.00  0.00    +0.000 A 
ATOM     20  C   UNL     1     112.422 126.531 139.741  0.00  0.00    +0.000 A 
ATOM     21  C   UNL     1     110.955 126.706 139.890  0.00  0.00    +0.000 A 
ATOM     22  C   UNL     1     111.745 126.744 140.226  0.00  0.00    +0.000 A 
BRANCH  15  25
ATOM     23  O   UNL     1     114.997 126.608 135.961  0.00  0.00    +0.000 OA
ATOM     24  O   UNL     1     115.466 125.030 135.844  0.00  0.00    +0.000 OA
ATOM     25  C   UNL     1     113.504 125.639 137.225  0.00  0.00    +0.000 A 
ATOM     26  C   UNL     1     113.924 126.225 136.823  0.00  0.00    +0.000 A 
ATOM     27  C   UNL     1     113.738 124.850 137.167  0.00  0.00    +0.000 A 
ATOM     28  C   UNL     1     114.577 126.022 136.363  0.00  0.00    +0.000 A 
ATOM     29  C   UNL     1     114.392 124.648 136.706  0.00  0.00    +0.000 A 
ATOM     30  C   UNL     1     114.812 125.234 136.305  0.00  0.00    +0.000 A 
ENDBRANCH  15  25
ENDBRANCH  10  14
ENDBRANCH   9  10
BRANCH   7  31
ATOM     31  C   UNL     1     110.902 127.974 135.489  0.00  0.00    +0.000 C 
BRANCH  31  32
ATOM     32  O   UNL     1     111.583 128.396 135.685  0.00  0.00    +0.000 OA
BRANCH  32  34
ATOM     33  O   UNL     1     111.327 129.766 135.372  0.00  0.00    +0.000 OA
ATOM     34  C   UNL     1     111.527 129.184 135.922  0.00  0.00    +0.000 C 
BRANCH  34  35
ATOM     35  C   UNL     1     111.670 129.391 136.708  0.00  0.00    +0.000 C 
ATOM     36  C   UNL     1     112.429 129.608 136.946  0.00  0.00    +0.000 C 
BRANCH  36  38
ATOM     37  O   UNL     1     113.000 130.436 140.089  0.00  0.00    +0.000 OA
ATOM     38  C   UNL     1     112.572 129.815 137.732  0.00  0.00    +0.000 A 
ATOM     39  C   UNL     1     111.953 130.083 138.207  0.00  0.00    +0.000 A 
ATOM     40  C   UNL     1     113.333 129.753 138.043  0.00  0.00    +0.000 A 
ATOM     41  C   UNL     1     112.095 130.290 138.992  0.00  0.00    +0.000 A 
ATOM     42  C   UNL     1     113.476 129.960 138.828  0.00  0.00    +0.000 A 
ATOM     43  C   UNL     1     112.857 130.229 139.303  0.00  0.00    +0.000 A 
ENDBRANCH  36  38
ENDBRANCH  34  35
ENDBRANCH  32  34
ENDBRANCH  31  32
ENDBRANCH   7  31
TORSDOF 8
ENDMDL
MODEL 8
REMARK VINA RESULT:      -9.5      1.591      5.010
REMARK  Name = 13915662
REMARK  8 active torsions:
REMARK  status: ('A' for Active; 'I' for Inactive)
REMARK    1  A    between atoms: O_2  and  C_18
REMARK    2  A    between atoms: O_2  and  C_20
REMARK    3  A    between atoms: O_6  and  C_19
REMARK    4  A    between atoms: O_6  and  C_24
REMARK    5  A    between atoms: C_16  and  C_19
REMARK    6  A    between atoms: C_21  and  C_26
REMARK    7  A    between atoms: C_24  and  C_31
REMARK    8  A    between atoms: C_37  and  C_38
REMARK                            x       y       z     vdW  Elec       q    Type
REMARK                         _______ _______ _______ _____ _____    ______ ____
ROOT
ATOM      1  O   UNL     1     112.440 128.786 137.999  0.00  0.00    +0.000 OA
ATOM      2  O   UNL     1     112.229 129.473 140.060  0.00  0.00    +0.000 OA
ATOM      3  O   UNL     1     111.704 130.801 139.233  0.00  0.00    +0.000 OA
ATOM      4  O   UNL     1     111.669 130.786 137.584  0.00  0.00    +0.000 OA
ATOM      5  C   UNL     1     112.212 129.465 139.235  0.00  0.00    +0.000 C 
ATOM      6  C   UNL     1     111.949 130.129 138.822  0.00  0.00    +0.000 C 
ATOM      7  C   UNL     1     112.457 128.793 138.824  0.00  0.00    +0.000 C 
ATOM      8  C   UNL     1     111.932 130.121 137.997  0.00  0.00    +0.000 C 
ATOM      9  C   UNL     1     112.177 129.449 137.585  0.00  0.00    +0.000 C 
ENDROOT
BRANCH   9  10
ATOM     10  O   UNL     1     112.160 129.442 136.760  0.00  0.00    +0.000 OA
BRANCH  10  14
ATOM     11  O   UNL     1     111.716 127.887 135.295  0.00  0.00    +0.000 OA
ATOM     12  O   UNL     1     109.546 128.045 137.195  0.00  0.00    +0.000 OA
ATOM     13  O   UNL     1     109.431 126.102 135.017  0.00  0.00    +0.000 OA
ATOM     14  C   UNL     1     111.768 128.836 136.362  0.00  0.00    +0.000 A 
ATOM     15  C   UNL     1     112.108 128.493 135.693  0.00  0.00    +0.000 A 
ATOM     16  C   UNL     1     111.034 128.571 136.632  0.00  0.00    +0.000 A 
ATOM     17  C   UNL     1     110.642 127.964 136.234  0.00  0.00    +0.000 A 
ATOM     18  C   UNL     1     110.984 127.622 135.565  0.00  0.00    +0.000 A 
ATOM     19  C   UNL     1     109.879 127.697 136.525  0.00  0.00    +0.000 A 
ATOM     20  C   UNL     1     110.585 126.990 135.141  0.00  0.00    +0.000 A 
ATOM     21  C   UNL     1     109.466 127.066 136.114  0.00  0.00    +0.000 A 
ATOM     22  C   UNL     1     109.821 126.709 135.418  0.00  0.00    +0.000 A 
BRANCH  15  25
ATOM     23  O   UNL     1     114.941 128.167 135.502  0.00  0.00    +0.000 OA
ATOM     24  O   UNL     1     115.041 129.553 134.612  0.00  0.00    +0.000 OA
ATOM     25  C   UNL     1     112.842 128.758 135.423  0.00  0.00    +0.000 A 
ATOM     26  C   UNL     1     113.525 128.330 135.597  0.00  0.00    +0.000 A 
ATOM     27  C   UNL     1     112.891 129.451 134.978  0.00  0.00    +0.000 A 
ATOM     28  C   UNL     1     114.258 128.595 135.327  0.00  0.00    +0.000 A 
ATOM     29  C   UNL     1     113.625 129.716 134.709  0.00  0.00    +0.000 A 
ATOM     30  C   UNL     1     114.308 129.288 134.883  0.00  0.00    +0.000 A 
ENDBRANCH  15  25
ENDBRANCH  10  14
ENDBRANCH   9  10
BRANCH   7  31
ATOM     31  C   UNL     1     112.719 128.130 139.237  0.00  0.00    +0.000 C 
BRANCH  31  32
ATOM     32  O   UNL     1     113.212 127.580 138.867  0.00  0.00    +0.000 OA
BRANCH  32  34
ATOM     33  O   UNL     1     113.556 126.570 139.816  0.00  0.00    +0.000 OA
ATOM     34  C   UNL     1     113.202 126.791 139.104  0.00  0.00    +0.000 C 
BRANCH  34  35
ATOM     35  C   UNL     1     112.837 126.222 138.631  0.00  0.00    +0.000 C 
ATOM     36  C   UNL     1     113.290 125.755 138.124  0.00  0.00    +0.000 C 
BRANCH  36  38
ATOM     37  O   UNL     1     111.836 123.478 136.229  0.00  0.00    +0.000 OA
ATOM     38  C   UNL     1     112.926 125.185 137.651  0.00  0.00    +0.000 A 
ATOM     39  C   UNL     1     113.318 124.889 136.988  0.00  0.00    +0.000 A 
ATOM     40  C   UNL     1     112.171 124.913 137.839  0.00  0.00    +0.000 A 
ATOM     41  C   UNL     1     112.955 124.320 136.514  0.00  0.00    +0.000 A 
ATOM     42  C   UNL     1     111.808 124.344 137.366  0.00  0.00    +0.000 A 
ATOM     43  C   UNL     1     112.200 124.047 136.704  0.00  0.00    +0.000 A 
ENDBRANCH  36  38
ENDBRANCH  34  35
ENDBRANCH  32  34
ENDBRANCH  31  32
ENDBRANCH   7  31
TORSDOF 8
ENDMDL
MODEL 9
REMARK VINA RESULT:      -9.5      2.024      4.455
REMARK  Name = 13915662
REMARK  8 active torsions:
REMARK  status: ('A' for Active; 'I' for Inactive)
REMARK    1  A    between atoms: O_2  and  C_18
REMARK    2  A    between atoms: O_2  and  C_20
REMARK    3  A    between atoms: O_6  and  C_19
REMARK    4  A    between atoms: O_6  and  C_24
REMARK    5  A    between atoms: C_16  and  C_19
REMARK    6  A    between atoms: C_21  and  C_26
REMARK    7  A    between atoms: C_24  and  C_31
REMARK    8  A    between atoms: C_37  and  C_38
REMARK                            x       y       z     vdW  Elec       q    Type
REMARK                         _______ _______ _______ _____ _____    ______ ____
ROOT
ATOM      1  O   UNL     1     109.813 129.900 136.593  0.00  0.00    +0.000 OA
ATOM      2  O   UNL     1     108.445 130.790 135.143  0.00  0.00    +0.000 OA
ATOM      3  O   UNL     1     109.341 132.106 135.575  0.00  0.00    +0.000 OA
ATOM      4  O   UNL     1     110.552 131.952 136.685  0.00  0.00    +0.000 OA
ATOM      5  C   UNL     1     109.050 130.712 135.698  0.00  0.00    +0.000 C 
ATOM      6  C   UNL     1     109.499 131.371 135.914  0.00  0.00    +0.000 C 
ATOM      7  C   UNL     1     109.207 129.977 136.038  0.00  0.00    +0.000 C 
ATOM      8  C   UNL     1     110.104 131.293 136.469  0.00  0.00    +0.000 C 
ATOM      9  C   UNL     1     110.261 130.558 136.809  0.00  0.00    +0.000 C 
ENDROOT
BRANCH   9  10
ATOM     10  O   UNL     1     110.866 130.481 137.364  0.00  0.00    +0.000 OA
BRANCH  10  14
ATOM     11  O   UNL     1     112.331 128.921 137.798  0.00  0.00    +0.000 OA
ATOM     12  O   UNL     1     112.348 129.476 134.962  0.00  0.00    +0.000 OA
ATOM     13  O   UNL     1     114.143 127.449 136.057  0.00  0.00    +0.000 OA
ATOM     14  C   UNL     1     111.454 129.912 137.257  0.00  0.00    +0.000 A 
ATOM     15  C   UNL     1     111.743 129.491 137.904  0.00  0.00    +0.000 A 
ATOM     16  C   UNL     1     111.753 129.764 136.502  0.00  0.00    +0.000 A 
ATOM     17  C   UNL     1     112.340 129.195 136.395  0.00  0.00    +0.000 A 
ATOM     18  C   UNL     1     112.629 128.774 137.043  0.00  0.00    +0.000 A 
ATOM     19  C   UNL     1     112.643 129.050 135.604  0.00  0.00    +0.000 A 
ATOM     20  C   UNL     1     113.240 128.178 136.945  0.00  0.00    +0.000 A 
ATOM     21  C   UNL     1     113.254 128.458 135.486  0.00  0.00    +0.000 A 
ATOM     22  C   UNL     1     113.556 128.019 136.161  0.00  0.00    +0.000 A 
BRANCH  15  25
ATOM     23  O   UNL     1     111.751 131.032 140.311  0.00  0.00    +0.000 OA
ATOM     24  O   UNL     1     110.549 130.082 140.923  0.00  0.00    +0.000 OA
ATOM     25  C   UNL     1     111.444 129.639 138.660  0.00  0.00    +0.000 A 
ATOM     26  C   UNL     1     111.747 130.262 139.108  0.00  0.00    +0.000 A 
ATOM     27  C   UNL     1     110.843 129.164 138.965  0.00  0.00    +0.000 A 
ATOM     28  C   UNL     1     111.448 130.409 139.862  0.00  0.00    +0.000 A 
ATOM     29  C   UNL     1     110.545 129.312 139.720  0.00  0.00    +0.000 A 
ATOM     30  C   UNL     1     110.848 129.935 140.168  0.00  0.00    +0.000 A 
ENDBRANCH  15  25
ENDBRANCH  10  14
ENDBRANCH   9  10
BRANCH   7  31
ATOM     31  C   UNL     1     108.759 129.319 135.822  0.00  0.00    +0.000 C 
BRANCH  31  32
ATOM     32  O   UNL     1     108.797 128.628 136.271  0.00  0.00    +0.000 OA
BRANCH  32  34
ATOM     33  O   UNL     1     107.888 127.717 135.651  0.00  0.00    +0.000 OA
ATOM     34  C   UNL     1     108.647 127.898 135.919  0.00  0.00    +0.000 C 
BRANCH  34  35
ATOM     35  C   UNL     1     109.256 127.348 135.833  0.00  0.00    +0.000 C 
ATOM     36  C   UNL     1     109.354 126.749 136.391  0.00  0.00    +0.000 C 
BRANCH  36  38
ATOM     37  O   UNL     1     111.789 124.548 136.045  0.00  0.00    +0.000 OA
ATOM     38  C   UNL     1     109.963 126.199 136.305  0.00  0.00    +0.000 A 
ATOM     39  C   UNL     1     110.167 125.924 135.554  0.00  0.00    +0.000 A 
ATOM     40  C   UNL     1     110.367 125.923 136.969  0.00  0.00    +0.000 A 
ATOM     41  C   UNL     1     110.775 125.374 135.467  0.00  0.00    +0.000 A 
ATOM     42  C   UNL     1     110.975 125.374 136.882  0.00  0.00    +0.000 A 
ATOM     43  C   UNL     1     111.179 125.099 136.132  0.00  0.00    +0.000 A 
ENDBRANCH  36  38
ENDBRANCH  34  35
ENDBRANCH  32  34
ENDBRANCH  31  32
ENDBRANCH   7  31
TORSDOF 8
ENDMDL
MODEL 10
REMARK VINA RESULT:      -9.5      1.242      2.902
REMARK  Name = 13915662
REMARK  8 active torsions:
REMARK  status: ('A' for Active; 'I' for Inactive)
REMARK    1  A    between atoms: O_2  and  C_18
REMARK    2  A    between atoms: O_2  and  C_20
REMARK    3  A    between atoms: O_6  and  C_19
REMARK    4  A    between atoms: O_6  and  C_24
REMARK    5  A    between atoms: C_16  and  C_19
REMARK    6  A    between atoms: C_21  and  C_26
REMARK    7  A    between atoms: C_24  and  C_31
REMARK    8  A    between atoms: C_37  and  C_38
REMARK                            x       y       z     vdW  Elec       q    Type
REMARK                         _______ _______ _______ _____ _____    ______ ____
ROOT
ATOM      1  O   UNL     1     112.319 125.657 137.216  0.00  0.00    +0.000 OA
ATOM      2  O   UNL     1     113.824 124.477 136.163  0.00  0.00    +0.000 OA
ATOM      3  O   UNL     1     112.865 123.283 136.778  0.00  0.00    +0.000 OA
ATOM      4  O   UNL     1     111.542 123.672 137.684  0.00  0.00    +0.000 OA
ATOM      5  C   UNL     1     113.163 124.672 136.616  0.00  0.00    +0.000 C 
ATOM      6  C   UNL     1     112.683 124.074 136.924  0.00  0.00    +0.000 C 
ATOM      7  C   UNL     1     112.981 125.463 136.763  0.00  0.00    +0.000 C 
ATOM      8  C   UNL     1     112.022 124.269 137.377  0.00  0.00    +0.000 C 
ATOM      9  C   UNL     1     111.840 125.061 137.523  0.00  0.00    +0.000 C 
ENDROOT
BRANCH   9  10
ATOM     10  O   UNL     1     111.178 125.254 137.977  0.00  0.00    +0.000 OA
BRANCH  10  14
ATOM     11  O   UNL     1     109.709 126.868 137.910  0.00  0.00    +0.000 OA
ATOM     12  O   UNL     1     110.047 125.784 135.254  0.00  0.00    +0.000 OA
ATOM     13  O   UNL     1     108.175 127.981 135.699  0.00  0.00    +0.000 OA
ATOM     14  C   UNL     1     110.624 125.793 137.687  0.00  0.00    +0.000 A 
ATOM     15  C   UNL     1     110.264 126.329 138.200  0.00  0.00    +0.000 A 
ATOM     16  C   UNL     1     110.430 125.794 136.885  0.00  0.00    +0.000 A 
ATOM     17  C   UNL     1     109.875 126.333 136.596  0.00  0.00    +0.000 A 
ATOM     18  C   UNL     1     109.515 126.869 137.109  0.00  0.00    +0.000 A 
ATOM     19  C   UNL     1     109.682 126.324 135.758  0.00  0.00    +0.000 A 
ATOM     20  C   UNL     1     108.937 127.435 136.820  0.00  0.00    +0.000 A 
ATOM     21  C   UNL     1     109.105 126.883 135.452  0.00  0.00    +0.000 A 
ATOM     22  C   UNL     1     108.730 127.442 135.986  0.00  0.00    +0.000 A 
BRANCH  15  25
ATOM     23  O   UNL     1     109.816 125.366 140.853  0.00  0.00    +0.000 OA
ATOM     24  O   UNL     1     111.041 126.323 141.407  0.00  0.00    +0.000 OA
ATOM     25  C   UNL     1     110.458 126.328 139.002  0.00  0.00    +0.000 A 
ATOM     26  C   UNL     1     110.040 125.848 139.527  0.00  0.00    +0.000 A 
ATOM     27  C   UNL     1     111.071 126.806 139.278  0.00  0.00    +0.000 A 
ATOM     28  C   UNL     1     110.234 125.846 140.328  0.00  0.00    +0.000 A 
ATOM     29  C   UNL     1     111.264 126.804 140.080  0.00  0.00    +0.000 A 
ATOM     30  C   UNL     1     110.846 126.324 140.605  0.00  0.00    +0.000 A 
ENDBRANCH  15  25
ENDBRANCH  10  14
ENDBRANCH   9  10
BRANCH   7  31
ATOM     31  C   UNL     1     113.460 126.060 136.456  0.00  0.00    +0.000 C 
BRANCH  31  32
ATOM     32  O   UNL     1     113.456 126.811 136.798  0.00  0.00    +0.000 OA
BRANCH  32  34
ATOM     33  O   UNL     1     114.364 127.607 136.036  0.00  0.00    +0.000 OA
ATOM     34  C   UNL     1     113.606 127.476 136.335  0.00  0.00    +0.000 C 
BRANCH  34  35
ATOM     35  C   UNL     1     113.000 128.011 136.170  0.00  0.00    +0.000 C 
ATOM     36  C   UNL     1     112.925 128.700 136.617  0.00  0.00    +0.000 C 
BRANCH  36  38
ATOM     37  O   UNL     1     110.500 130.840 135.961  0.00  0.00    +0.000 OA
ATOM     38  C   UNL     1     112.318 129.235 136.452  0.00  0.00    +0.000 A 
ATOM     39  C   UNL     1     111.973 129.667 137.064  0.00  0.00    +0.000 A 
ATOM     40  C   UNL     1     112.057 129.337 135.677  0.00  0.00    +0.000 A 
ATOM     41  C   UNL     1     111.367 130.203 136.901  0.00  0.00    +0.000 A 
ATOM     42  C   UNL     1     111.452 129.872 135.513  0.00  0.00    +0.000 A 
ATOM     43  C   UNL     1     111.107 130.305 136.125  0.00  0.00    +0.000 A 
ENDBRANCH  36  38
ENDBRANCH  34  35
ENDBRANCH  32  34
ENDBRANCH  31  32
ENDBRANCH   7  31
TORSDOF 8
ENDMDL
