MODEL 1
REMARK VINA RESULT:      -9.4      0.000      0.000
REMARK  Name = 44257173
REMARK  4 active torsions:
REMARK  status: ('A' for Active; 'I' for Inactive)
REMARK    1  A    between atoms: O_2  and  C_17
REMARK    2  A    between atoms: C_5  and  C_11
REMARK    3  A    between atoms: C_7  and  C_10
REMARK    4  A    between atoms: C_18  and  C_21
REMARK                            x       y       z     vdW  Elec       q    Type
REMARK                         _______ _______ _______ _____ _____    ______ ____
ROOT
ATOM      1  O   UNL     1     112.320 126.654 136.353  0.00  0.00    +0.000 OA
ATOM      2  C   UNL     1     113.018 128.082 135.913  0.00  0.00    +0.000 C 
ATOM      3  C   UNL     1     113.482 127.474 136.224  0.00  0.00    +0.000 C 
ATOM      4  C   UNL     1     113.133 126.760 136.444  0.00  0.00    +0.000 C 
ATOM      5  C   UNL     1     112.205 127.975 135.823  0.00  0.00    +0.000 A 
ATOM      6  C   UNL     1     111.856 127.261 136.043  0.00  0.00    +0.000 A 
ATOM      7  C   UNL     1     111.733 128.616 135.497  0.00  0.00    +0.000 A 
ATOM      8  C   UNL     1     111.010 127.137 135.953  0.00  0.00    +0.000 A 
ATOM      9  C   UNL     1     110.886 128.510 135.401  0.00  0.00    +0.000 A 
ATOM     10  C   UNL     1     110.522 127.766 135.631  0.00  0.00    +0.000 A 
ENDROOT
BRANCH   4  12
ATOM     11  O   UNL     1     114.989 124.331 137.687  0.00  0.00    +0.000 OA
ATOM     12  C   UNL     1     113.597 126.153 136.754  0.00  0.00    +0.000 A 
ATOM     13  C   UNL     1     114.019 125.656 136.249  0.00  0.00    +0.000 A 
ATOM     14  C   UNL     1     113.638 126.042 137.571  0.00  0.00    +0.000 A 
ATOM     15  C   UNL     1     114.483 125.049 136.559  0.00  0.00    +0.000 A 
ATOM     16  C   UNL     1     114.103 125.435 137.882  0.00  0.00    +0.000 A 
ATOM     17  C   UNL     1     114.524 124.938 137.376  0.00  0.00    +0.000 A 
ENDBRANCH   4  12
BRANCH  10  18
ATOM     18  O   UNL     1     109.709 127.657 135.541  0.00  0.00    +0.000 OA
ATOM     19  C   UNL     1     109.185 128.247 135.781  0.00  0.00    +0.000 C 
ENDBRANCH  10  18
BRANCH   2  20
ATOM     20  C   UNL     1     113.368 128.796 135.692  0.00  0.00    +0.000 C 
ATOM     21  C   UNL     1     114.176 128.914 135.811  0.00  0.00    +0.000 C 
BRANCH  21  23
ATOM     22  O   UNL     1     115.573 131.770 134.930  0.00  0.00    +0.000 OA
ATOM     23  C   UNL     1     114.525 129.628 135.590  0.00  0.00    +0.000 A 
ATOM     24  C   UNL     1     114.909 129.692 134.862  0.00  0.00    +0.000 A 
ATOM     25  C   UNL     1     114.491 130.278 136.097  0.00  0.00    +0.000 A 
ATOM     26  C   UNL     1     115.258 130.407 134.642  0.00  0.00    +0.000 A 
ATOM     27  C   UNL     1     114.840 130.992 135.877  0.00  0.00    +0.000 A 
ATOM     28  C   UNL     1     115.224 131.056 135.150  0.00  0.00    +0.000 A 
ENDBRANCH  21  23
ENDBRANCH   2  20
TORSDOF 4
ENDMDL
MODEL 2
REMARK VINA RESULT:      -9.0      0.880      4.618
REMARK  Name = 44257173
REMARK  4 active torsions:
REMARK  status: ('A' for Active; 'I' for Inactive)
REMARK    1  A    between atoms: O_2  and  C_17
REMARK    2  A    between atoms: C_5  and  C_11
REMARK    3  A    between atoms: C_7  and  C_10
REMARK    4  A    between atoms: C_18  and  C_21
REMARK                            x       y       z     vdW  Elec       q    Type
REMARK                         _______ _______ _______ _____ _____    ______ ____
ROOT
ATOM      1  O   UNL     1     114.252 128.000 136.005  0.00  0.00    +0.000 OA
ATOM      2  C   UNL     1     112.603 128.062 136.034  0.00  0.00    +0.000 C 
ATOM      3  C   UNL     1     113.038 128.732 135.823  0.00  0.00    +0.000 C 
ATOM      4  C   UNL     1     113.862 128.701 135.809  0.00  0.00    +0.000 C 
ATOM      5  C   UNL     1     112.994 127.362 136.230  0.00  0.00    +0.000 A 
ATOM      6  C   UNL     1     113.818 127.332 136.215  0.00  0.00    +0.000 A 
ATOM      7  C   UNL     1     112.529 126.672 136.447  0.00  0.00    +0.000 A 
ATOM      8  C   UNL     1     114.236 126.608 136.418  0.00  0.00    +0.000 A 
ATOM      9  C   UNL     1     112.931 125.940 136.652  0.00  0.00    +0.000 A 
ATOM     10  C   UNL     1     113.789 125.908 136.637  0.00  0.00    +0.000 A 
ENDROOT
BRANCH   4  12
ATOM     11  O   UNL     1     115.598 131.378 134.966  0.00  0.00    +0.000 OA
ATOM     12  C   UNL     1     114.296 129.370 135.599  0.00  0.00    +0.000 A 
ATOM     13  C   UNL     1     114.463 129.948 136.163  0.00  0.00    +0.000 A 
ATOM     14  C   UNL     1     114.563 129.461 134.823  0.00  0.00    +0.000 A 
ATOM     15  C   UNL     1     114.897 130.617 135.953  0.00  0.00    +0.000 A 
ATOM     16  C   UNL     1     114.997 130.131 134.612  0.00  0.00    +0.000 A 
ATOM     17  C   UNL     1     115.164 130.708 135.177  0.00  0.00    +0.000 A 
ENDBRANCH   4  12
BRANCH  10  18
ATOM     18  O   UNL     1     114.182 125.209 136.833  0.00  0.00    +0.000 OA
ATOM     19  C   UNL     1     114.473 125.100 137.597  0.00  0.00    +0.000 C 
ENDBRANCH  10  18
BRANCH   2  20
ATOM     20  C   UNL     1     111.779 128.093 136.048  0.00  0.00    +0.000 C 
ATOM     21  C   UNL     1     111.389 128.786 135.829  0.00  0.00    +0.000 C 
BRANCH  21  23
ATOM     22  O   UNL     1     108.091 128.909 135.886  0.00  0.00    +0.000 OA
ATOM     23  C   UNL     1     110.564 128.817 135.843  0.00  0.00    +0.000 A 
ATOM     24  C   UNL     1     110.131 128.587 135.179  0.00  0.00    +0.000 A 
ATOM     25  C   UNL     1     110.172 129.077 136.521  0.00  0.00    +0.000 A 
ATOM     26  C   UNL     1     109.306 128.618 135.193  0.00  0.00    +0.000 A 
ATOM     27  C   UNL     1     109.348 129.108 136.535  0.00  0.00    +0.000 A 
ATOM     28  C   UNL     1     108.916 128.878 135.872  0.00  0.00    +0.000 A 
ENDBRANCH  21  23
ENDBRANCH   2  20
TORSDOF 4
ENDMDL
MODEL 3
REMARK VINA RESULT:      -8.9      0.721      4.258
REMARK  Name = 44257173
REMARK  4 active torsions:
REMARK  status: ('A' for Active; 'I' for Inactive)
REMARK    1  A    between atoms: O_2  and  C_17
REMARK    2  A    between atoms: C_5  and  C_11
REMARK    3  A    between atoms: C_7  and  C_10
REMARK    4  A    between atoms: C_18  and  C_21
REMARK                            x       y       z     vdW  Elec       q    Type
REMARK                         _______ _______ _______ _____ _____    ______ ____
ROOT
ATOM      1  O   UNL     1     112.522 129.340 135.424  0.00  0.00    +0.000 OA
ATOM      2  C   UNL     1     112.877 127.836 136.003  0.00  0.00    +0.000 C 
ATOM      3  C   UNL     1     113.479 128.391 135.899  0.00  0.00    +0.000 C 
ATOM      4  C   UNL     1     113.301 129.143 135.610  0.00  0.00    +0.000 C 
ATOM      5  C   UNL     1     112.098 128.034 135.817  0.00  0.00    +0.000 A 
ATOM      6  C   UNL     1     111.920 128.786 135.528  0.00  0.00    +0.000 A 
ATOM      7  C   UNL     1     111.479 127.446 135.930  0.00  0.00    +0.000 A 
ATOM      8  C   UNL     1     111.112 129.003 135.331  0.00  0.00    +0.000 A 
ATOM      9  C   UNL     1     110.666 127.647 135.738  0.00  0.00    +0.000 A 
ATOM     10  C   UNL     1     110.481 128.430 135.437  0.00  0.00    +0.000 A 
ENDROOT
BRANCH   4  12
ATOM     11  O   UNL     1     115.710 131.361 135.194  0.00  0.00    +0.000 OA
ATOM     12  C   UNL     1     113.903 129.697 135.506  0.00  0.00    +0.000 A 
ATOM     13  C   UNL     1     114.078 130.234 136.107  0.00  0.00    +0.000 A 
ATOM     14  C   UNL     1     114.331 129.714 134.801  0.00  0.00    +0.000 A 
ATOM     15  C   UNL     1     114.679 130.789 136.004  0.00  0.00    +0.000 A 
ATOM     16  C   UNL     1     114.933 130.269 134.697  0.00  0.00    +0.000 A 
ATOM     17  C   UNL     1     115.107 130.806 135.298  0.00  0.00    +0.000 A 
ENDBRANCH   4  12
BRANCH  10  18
ATOM     18  O   UNL     1     109.703 128.630 135.251  0.00  0.00    +0.000 OA
ATOM     19  C   UNL     1     109.211 128.956 135.827  0.00  0.00    +0.000 C 
ENDBRANCH  10  18
BRANCH   2  20
ATOM     20  C   UNL     1     113.054 127.084 136.293  0.00  0.00    +0.000 C 
ATOM     21  C   UNL     1     113.836 126.881 136.462  0.00  0.00    +0.000 C 
BRANCH  21  23
ATOM     22  O   UNL     1     114.545 123.874 137.620  0.00  0.00    +0.000 OA
ATOM     23  C   UNL     1     114.013 126.129 136.752  0.00  0.00    +0.000 A 
ATOM     24  C   UNL     1     114.105 126.010 137.564  0.00  0.00    +0.000 A 
ATOM     25  C   UNL     1     114.099 125.496 136.230  0.00  0.00    +0.000 A 
ATOM     26  C   UNL     1     114.282 125.259 137.853  0.00  0.00    +0.000 A 
ATOM     27  C   UNL     1     114.277 124.744 136.520  0.00  0.00    +0.000 A 
ATOM     28  C   UNL     1     114.368 124.626 137.330  0.00  0.00    +0.000 A 
ENDBRANCH  21  23
ENDBRANCH   2  20
TORSDOF 4
ENDMDL
MODEL 4
REMARK VINA RESULT:      -8.9     12.141     14.480
REMARK  Name = 44257173
REMARK  4 active torsions:
REMARK  status: ('A' for Active; 'I' for Inactive)
REMARK    1  A    between atoms: O_2  and  C_17
REMARK    2  A    between atoms: C_5  and  C_11
REMARK    3  A    between atoms: C_7  and  C_10
REMARK    4  A    between atoms: C_18  and  C_21
REMARK                            x       y       z     vdW  Elec       q    Type
REMARK                         _______ _______ _______ _____ _____    ______ ____
ROOT
ATOM      1  O   UNL     1     106.491 125.319 146.090  0.00  0.00    +0.000 OA
ATOM      2  C   UNL     1     105.050 124.803 146.706  0.00  0.00    +0.000 C 
ATOM      3  C   UNL     1     105.100 125.043 145.917  0.00  0.00    +0.000 C 
ATOM      4  C   UNL     1     105.820 125.301 145.609  0.00  0.00    +0.000 C 
ATOM      5  C   UNL     1     105.721 124.821 147.185  0.00  0.00    +0.000 A 
ATOM      6  C   UNL     1     106.442 125.079 146.877  0.00  0.00    +0.000 A 
ATOM      7  C   UNL     1     105.656 124.568 148.004  0.00  0.00    +0.000 A 
ATOM      8  C   UNL     1     107.148 125.102 147.366  0.00  0.00    +0.000 A 
ATOM      9  C   UNL     1     106.352 124.585 148.508  0.00  0.00    +0.000 A 
ATOM     10  C   UNL     1     107.103 124.853 148.187  0.00  0.00    +0.000 A 
ENDROOT
BRANCH   4  12
ATOM     11  O   UNL     1     106.017 126.262 142.458  0.00  0.00    +0.000 OA
ATOM     12  C   UNL     1     105.869 125.541 144.822  0.00  0.00    +0.000 A 
ATOM     13  C   UNL     1     105.888 124.978 144.219  0.00  0.00    +0.000 A 
ATOM     14  C   UNL     1     105.900 126.344 144.637  0.00  0.00    +0.000 A 
ATOM     15  C   UNL     1     105.938 125.218 143.432  0.00  0.00    +0.000 A 
ATOM     16  C   UNL     1     105.949 126.585 143.849  0.00  0.00    +0.000 A 
ATOM     17  C   UNL     1     105.968 126.021 143.247  0.00  0.00    +0.000 A 
ENDBRANCH   4  12
BRANCH  10  18
ATOM     18  O   UNL     1     107.775 124.872 148.665  0.00  0.00    +0.000 OA
ATOM     19  C   UNL     1     107.806 124.417 149.352  0.00  0.00    +0.000 C 
ENDBRANCH  10  18
BRANCH   2  20
ATOM     20  C   UNL     1     104.330 124.545 147.014  0.00  0.00    +0.000 C 
ATOM     21  C   UNL     1     103.669 124.486 146.523  0.00  0.00    +0.000 C 
BRANCH  21  23
ATOM     22  O   UNL     1     100.787 123.454 147.756  0.00  0.00    +0.000 OA
ATOM     23  C   UNL     1     102.948 124.228 146.831  0.00  0.00    +0.000 A 
ATOM     24  C   UNL     1     102.455 124.758 147.227  0.00  0.00    +0.000 A 
ATOM     25  C   UNL     1     102.720 123.440 146.744  0.00  0.00    +0.000 A 
ATOM     26  C   UNL     1     101.734 124.500 147.535  0.00  0.00    +0.000 A 
ATOM     27  C   UNL     1     102.000 123.182 147.052  0.00  0.00    +0.000 A 
ATOM     28  C   UNL     1     101.507 123.712 147.447  0.00  0.00    +0.000 A 
ENDBRANCH  21  23
ENDBRANCH   2  20
TORSDOF 4
ENDMDL
MODEL 5
REMARK VINA RESULT:      -8.8     10.992     12.256
REMARK  Name = 44257173
REMARK  4 active torsions:
REMARK  status: ('A' for Active; 'I' for Inactive)
REMARK    1  A    between atoms: O_2  and  C_17
REMARK    2  A    between atoms: C_5  and  C_11
REMARK    3  A    between atoms: C_7  and  C_10
REMARK    4  A    between atoms: C_18  and  C_21
REMARK                            x       y       z     vdW  Elec       q    Type
REMARK                         _______ _______ _______ _____ _____    ______ ____
ROOT
ATOM      1  O   UNL     1     106.566 124.999 146.153  0.00  0.00    +0.000 OA
ATOM      2  C   UNL     1     106.589 126.632 145.917  0.00  0.00    +0.000 C 
ATOM      3  C   UNL     1     106.851 126.314 146.633  0.00  0.00    +0.000 C 
ATOM      4  C   UNL     1     106.839 125.498 146.751  0.00  0.00    +0.000 C 
ATOM      5  C   UNL     1     106.315 126.132 145.321  0.00  0.00    +0.000 A 
ATOM      6  C   UNL     1     106.304 125.316 145.439  0.00  0.00    +0.000 A 
ATOM      7  C   UNL     1     106.045 126.475 144.580  0.00  0.00    +0.000 A 
ATOM      8  C   UNL     1     106.021 124.785 144.824  0.00  0.00    +0.000 A 
ATOM      9  C   UNL     1     105.759 125.960 143.954  0.00  0.00    +0.000 A 
ATOM     10  C   UNL     1     105.747 125.110 144.077  0.00  0.00    +0.000 A 
ENDROOT
BRANCH   4  12
ATOM     11  O   UNL     1     107.887 124.229 149.612  0.00  0.00    +0.000 OA
ATOM     12  C   UNL     1     107.101 125.181 147.465  0.00  0.00    +0.000 A 
ATOM     13  C   UNL     1     107.909 125.130 147.624  0.00  0.00    +0.000 A 
ATOM     14  C   UNL     1     106.555 124.914 148.023  0.00  0.00    +0.000 A 
ATOM     15  C   UNL     1     108.171 124.814 148.338  0.00  0.00    +0.000 A 
ATOM     16  C   UNL     1     106.817 124.596 148.739  0.00  0.00    +0.000 A 
ATOM     17  C   UNL     1     107.625 124.547 148.896  0.00  0.00    +0.000 A 
ENDBRANCH   4  12
BRANCH  10  18
ATOM     18  O   UNL     1     105.474 124.608 143.482  0.00  0.00    +0.000 OA
ATOM     19  C   UNL     1     105.820 124.630 142.733  0.00  0.00    +0.000 C 
ENDBRANCH  10  18
BRANCH   2  20
ATOM     20  C   UNL     1     106.600 127.448 145.799  0.00  0.00    +0.000 C 
ATOM     21  C   UNL     1     107.001 127.936 146.331  0.00  0.00    +0.000 C 
BRANCH  21  23
ATOM     22  O   UNL     1     107.046 131.201 145.860  0.00  0.00    +0.000 OA
ATOM     23  C   UNL     1     107.012 128.752 146.213  0.00  0.00    +0.000 A 
ATOM     24  C   UNL     1     107.642 129.102 145.810  0.00  0.00    +0.000 A 
ATOM     25  C   UNL     1     106.395 129.219 146.498  0.00  0.00    +0.000 A 
ATOM     26  C   UNL     1     107.653 129.919 145.692  0.00  0.00    +0.000 A 
ATOM     27  C   UNL     1     106.406 130.036 146.380  0.00  0.00    +0.000 A 
ATOM     28  C   UNL     1     107.035 130.385 145.978  0.00  0.00    +0.000 A 
ENDBRANCH  21  23
ENDBRANCH   2  20
TORSDOF 4
ENDMDL
MODEL 6
REMARK VINA RESULT:      -8.8      0.808      3.876
REMARK  Name = 44257173
REMARK  4 active torsions:
REMARK  status: ('A' for Active; 'I' for Inactive)
REMARK    1  A    between atoms: O_2  and  C_17
REMARK    2  A    between atoms: C_5  and  C_11
REMARK    3  A    between atoms: C_7  and  C_10
REMARK    4  A    between atoms: C_18  and  C_21
REMARK                            x       y       z     vdW  Elec       q    Type
REMARK                         _______ _______ _______ _____ _____    ______ ____
ROOT
ATOM      1  O   UNL     1     114.292 127.640 136.080  0.00  0.00    +0.000 OA
ATOM      2  C   UNL     1     112.686 127.995 135.952  0.00  0.00    +0.000 C 
ATOM      3  C   UNL     1     112.925 127.276 136.280  0.00  0.00    +0.000 C 
ATOM      4  C   UNL     1     113.728 127.099 136.344  0.00  0.00    +0.000 C 
ATOM      5  C   UNL     1     113.250 128.535 135.688  0.00  0.00    +0.000 A 
ATOM      6  C   UNL     1     114.053 128.358 135.752  0.00  0.00    +0.000 A 
ATOM      7  C   UNL     1     112.987 129.280 135.348  0.00  0.00    +0.000 A 
ATOM      8  C   UNL     1     114.650 128.914 135.480  0.00  0.00    +0.000 A 
ATOM      9  C   UNL     1     113.571 129.847 135.071  0.00  0.00    +0.000 A 
ATOM     10  C   UNL     1     114.407 129.663 135.137  0.00  0.00    +0.000 A 
ENDROOT
BRANCH   4  12
ATOM     11  O   UNL     1     114.684 124.226 137.658  0.00  0.00    +0.000 OA
ATOM     12  C   UNL     1     113.967 126.381 136.672  0.00  0.00    +0.000 A 
ATOM     13  C   UNL     1     114.316 125.805 136.196  0.00  0.00    +0.000 A 
ATOM     14  C   UNL     1     113.857 126.239 137.478  0.00  0.00    +0.000 A 
ATOM     15  C   UNL     1     114.555 125.087 136.524  0.00  0.00    +0.000 A 
ATOM     16  C   UNL     1     114.096 125.520 137.806  0.00  0.00    +0.000 A 
ATOM     17  C   UNL     1     114.445 124.945 137.329  0.00  0.00    +0.000 A 
ENDBRANCH   4  12
BRANCH  10  18
ATOM     18  O   UNL     1     114.974 130.202 134.874  0.00  0.00    +0.000 OA
ATOM     19  C   UNL     1     115.174 130.851 135.342  0.00  0.00    +0.000 C 
ENDBRANCH  10  18
BRANCH   2  20
ATOM     20  C   UNL     1     111.882 128.172 135.888  0.00  0.00    +0.000 C 
ATOM     21  C   UNL     1     111.318 127.596 136.065  0.00  0.00    +0.000 C 
BRANCH  21  23
ATOM     22  O   UNL     1     108.105 128.305 135.809  0.00  0.00    +0.000 OA
ATOM     23  C   UNL     1     110.515 127.773 136.001  0.00  0.00    +0.000 A 
ATOM     24  C   UNL     1     110.097 127.558 135.322  0.00  0.00    +0.000 A 
ATOM     25  C   UNL     1     110.128 128.166 136.614  0.00  0.00    +0.000 A 
ATOM     26  C   UNL     1     109.294 127.735 135.258  0.00  0.00    +0.000 A 
ATOM     27  C   UNL     1     109.325 128.343 136.550  0.00  0.00    +0.000 A 
ATOM     28  C   UNL     1     108.908 128.128 135.873  0.00  0.00    +0.000 A 
ENDBRANCH  21  23
ENDBRANCH   2  20
TORSDOF 4
ENDMDL
MODEL 7
REMARK VINA RESULT:      -8.8      0.900      4.800
REMARK  Name = 44257173
REMARK  4 active torsions:
REMARK  status: ('A' for Active; 'I' for Inactive)
REMARK    1  A    between atoms: O_2  and  C_17
REMARK    2  A    between atoms: C_5  and  C_11
REMARK    3  A    between atoms: C_7  and  C_10
REMARK    4  A    between atoms: C_18  and  C_21
REMARK                            x       y       z     vdW  Elec       q    Type
REMARK                         _______ _______ _______ _____ _____    ______ ____
ROOT
ATOM      1  O   UNL     1     112.389 129.383 135.214  0.00  0.00    +0.000 OA
ATOM      2  C   UNL     1     113.214 128.089 135.819  0.00  0.00    +0.000 C 
ATOM      3  C   UNL     1     112.389 128.084 135.808  0.00  0.00    +0.000 C 
ATOM      4  C   UNL     1     111.976 128.731 135.506  0.00  0.00    +0.000 C 
ATOM      5  C   UNL     1     113.626 128.741 135.527  0.00  0.00    +0.000 A 
ATOM      6  C   UNL     1     113.213 129.389 135.225  0.00  0.00    +0.000 A 
ATOM      7  C   UNL     1     114.486 128.734 135.544  0.00  0.00    +0.000 A 
ATOM      8  C   UNL     1     113.632 130.074 134.918  0.00  0.00    +0.000 A 
ATOM      9  C   UNL     1     114.920 129.411 135.241  0.00  0.00    +0.000 A 
ATOM     10  C   UNL     1     114.490 130.085 134.926  0.00  0.00    +0.000 A 
ENDROOT
BRANCH   4  12
ATOM     11  O   UNL     1     108.676 128.711 135.465  0.00  0.00    +0.000 OA
ATOM     12  C   UNL     1     111.152 128.726 135.495  0.00  0.00    +0.000 A 
ATOM     13  C   UNL     1     110.748 128.427 134.841  0.00  0.00    +0.000 A 
ATOM     14  C   UNL     1     110.729 129.020 136.140  0.00  0.00    +0.000 A 
ATOM     15  C   UNL     1     109.924 128.422 134.830  0.00  0.00    +0.000 A 
ATOM     16  C   UNL     1     109.904 129.015 136.130  0.00  0.00    +0.000 A 
ATOM     17  C   UNL     1     109.502 128.716 135.475  0.00  0.00    +0.000 A 
ENDBRANCH   4  12
BRANCH  10  18
ATOM     18  O   UNL     1     114.900 130.739 134.633  0.00  0.00    +0.000 OA
ATOM     19  C   UNL     1     115.619 130.960 134.972  0.00  0.00    +0.000 C 
ENDBRANCH  10  18
BRANCH   2  20
ATOM     20  C   UNL     1     113.627 127.442 136.121  0.00  0.00    +0.000 C 
ATOM     21  C   UNL     1     113.221 126.842 136.517  0.00  0.00    +0.000 C 
BRANCH  21  23
ATOM     22  O   UNL     1     114.871 124.253 137.726  0.00  0.00    +0.000 OA
ATOM     23  C   UNL     1     113.633 126.195 136.819  0.00  0.00    +0.000 A 
ATOM     24  C   UNL     1     113.939 125.624 136.307  0.00  0.00    +0.000 A 
ATOM     25  C   UNL     1     113.741 126.118 137.633  0.00  0.00    +0.000 A 
ATOM     26  C   UNL     1     114.351 124.977 136.609  0.00  0.00    +0.000 A 
ATOM     27  C   UNL     1     114.153 125.470 137.936  0.00  0.00    +0.000 A 
ATOM     28  C   UNL     1     114.458 124.901 137.424  0.00  0.00    +0.000 A 
ENDBRANCH  21  23
ENDBRANCH   2  20
TORSDOF 4
ENDMDL
MODEL 8
REMARK VINA RESULT:      -8.8      1.551      2.003
REMARK  Name = 44257173
REMARK  4 active torsions:
REMARK  status: ('A' for Active; 'I' for Inactive)
REMARK    1  A    between atoms: O_2  and  C_17
REMARK    2  A    between atoms: C_5  and  C_11
REMARK    3  A    between atoms: C_7  and  C_10
REMARK    4  A    between atoms: C_18  and  C_21
REMARK                            x       y       z     vdW  Elec       q    Type
REMARK                         _______ _______ _______ _____ _____    ______ ____
ROOT
ATOM      1  O   UNL     1     110.387 127.447 135.894  0.00  0.00    +0.000 OA
ATOM      2  C   UNL     1     111.677 128.449 135.660  0.00  0.00    +0.000 C 
ATOM      3  C   UNL     1     111.800 127.646 135.811  0.00  0.00    +0.000 C 
ATOM      4  C   UNL     1     111.155 127.145 135.928  0.00  0.00    +0.000 C 
ATOM      5  C   UNL     1     110.910 128.749 135.627  0.00  0.00    +0.000 A 
ATOM      6  C   UNL     1     110.265 128.248 135.743  0.00  0.00    +0.000 A 
ATOM      7  C   UNL     1     110.796 129.587 135.469  0.00  0.00    +0.000 A 
ATOM      8  C   UNL     1     109.461 128.550 135.711  0.00  0.00    +0.000 A 
ATOM      9  C   UNL     1     109.998 129.905 135.433  0.00  0.00    +0.000 A 
ATOM     10  C   UNL     1     109.327 129.383 135.554  0.00  0.00    +0.000 A 
ENDROOT
BRANCH   4  12
ATOM     11  O   UNL     1     111.646 123.938 136.530  0.00  0.00    +0.000 OA
ATOM     12  C   UNL     1     111.277 126.344 136.078  0.00  0.00    +0.000 A 
ATOM     13  C   UNL     1     111.134 125.786 135.487  0.00  0.00    +0.000 A 
ATOM     14  C   UNL     1     111.543 126.099 136.820  0.00  0.00    +0.000 A 
ATOM     15  C   UNL     1     111.257 124.985 135.638  0.00  0.00    +0.000 A 
ATOM     16  C   UNL     1     111.666 125.297 136.971  0.00  0.00    +0.000 A 
ATOM     17  C   UNL     1     111.523 124.740 136.379  0.00  0.00    +0.000 A 
ENDBRANCH   4  12
BRANCH  10  18
ATOM     18  O   UNL     1     108.558 129.682 135.521  0.00  0.00    +0.000 OA
ATOM     19  C   UNL     1     108.367 130.374 135.927  0.00  0.00    +0.000 C 
ENDBRANCH  10  18
BRANCH   2  20
ATOM     20  C   UNL     1     112.322 128.950 135.543  0.00  0.00    +0.000 C 
ATOM     21  C   UNL     1     113.085 128.687 135.718  0.00  0.00    +0.000 C 
BRANCH  21  23
ATOM     22  O   UNL     1     115.665 130.691 135.251  0.00  0.00    +0.000 OA
ATOM     23  C   UNL     1     113.730 129.188 135.602  0.00  0.00    +0.000 A 
ATOM     24  C   UNL     1     114.141 129.172 134.886  0.00  0.00    +0.000 A 
ATOM     25  C   UNL     1     113.965 129.705 136.200  0.00  0.00    +0.000 A 
ATOM     26  C   UNL     1     114.786 129.673 134.769  0.00  0.00    +0.000 A 
ATOM     27  C   UNL     1     114.610 130.206 136.083  0.00  0.00    +0.000 A 
ATOM     28  C   UNL     1     115.020 130.190 135.368  0.00  0.00    +0.000 A 
ENDBRANCH  21  23
ENDBRANCH   2  20
TORSDOF 4
ENDMDL
MODEL 9
REMARK VINA RESULT:      -8.7      1.617      3.349
REMARK  Name = 44257173
REMARK  4 active torsions:
REMARK  status: ('A' for Active; 'I' for Inactive)
REMARK    1  A    between atoms: O_2  and  C_17
REMARK    2  A    between atoms: C_5  and  C_11
REMARK    3  A    between atoms: C_7  and  C_10
REMARK    4  A    between atoms: C_18  and  C_21
REMARK                            x       y       z     vdW  Elec       q    Type
REMARK                         _______ _______ _______ _____ _____    ______ ____
ROOT
ATOM      1  O   UNL     1     111.660 126.373 137.528  0.00  0.00    +0.000 OA
ATOM      2  C   UNL     1     112.779 127.492 137.063  0.00  0.00    +0.000 C 
ATOM      3  C   UNL     1     112.207 127.232 136.527  0.00  0.00    +0.000 C 
ATOM      4  C   UNL     1     111.648 126.672 136.759  0.00  0.00    +0.000 C 
ATOM      5  C   UNL     1     112.790 127.193 137.831  0.00  0.00    +0.000 A 
ATOM      6  C   UNL     1     112.230 126.633 138.064  0.00  0.00    +0.000 A 
ATOM      7  C   UNL     1     113.390 127.472 138.380  0.00  0.00    +0.000 A 
ATOM      8  C   UNL     1     112.232 126.313 138.862  0.00  0.00    +0.000 A 
ATOM      9  C   UNL     1     113.406 127.163 139.182  0.00  0.00    +0.000 A 
ATOM     10  C   UNL     1     112.824 126.581 139.424  0.00  0.00    +0.000 A 
ENDROOT
BRANCH   4  12
ATOM     11  O   UNL     1     109.364 125.632 134.616  0.00  0.00    +0.000 OA
ATOM     12  C   UNL     1     111.078 126.412 136.224  0.00  0.00    +0.000 A 
ATOM     13  C   UNL     1     111.198 125.717 135.796  0.00  0.00    +0.000 A 
ATOM     14  C   UNL     1     110.385 126.848 136.115  0.00  0.00    +0.000 A 
ATOM     15  C   UNL     1     110.628 125.457 135.261  0.00  0.00    +0.000 A 
ATOM     16  C   UNL     1     109.814 126.588 135.579  0.00  0.00    +0.000 A 
ATOM     17  C   UNL     1     109.936 125.892 135.152  0.00  0.00    +0.000 A 
ENDBRANCH   4  12
BRANCH  10  18
ATOM     18  O   UNL     1     112.833 126.279 140.192  0.00  0.00    +0.000 OA
ATOM     19  C   UNL     1     112.634 126.766 140.828  0.00  0.00    +0.000 C 
ENDBRANCH  10  18
BRANCH   2  20
ATOM     20  C   UNL     1     113.338 128.052 136.830  0.00  0.00    +0.000 C 
ATOM     21  C   UNL     1     113.203 128.516 136.161  0.00  0.00    +0.000 C 
BRANCH  21  23
ATOM     22  O   UNL     1     115.442 130.755 135.229  0.00  0.00    +0.000 OA
ATOM     23  C   UNL     1     113.763 129.076 135.928  0.00  0.00    +0.000 A 
ATOM     24  C   UNL     1     113.756 129.831 136.262  0.00  0.00    +0.000 A 
ATOM     25  C   UNL     1     114.330 128.882 135.361  0.00  0.00    +0.000 A 
ATOM     26  C   UNL     1     114.315 130.391 136.030  0.00  0.00    +0.000 A 
ATOM     27  C   UNL     1     114.889 129.442 135.128  0.00  0.00    +0.000 A 
ATOM     28  C   UNL     1     114.882 130.195 135.462  0.00  0.00    +0.000 A 
ENDBRANCH  21  23
ENDBRANCH   2  20
TORSDOF 4
ENDMDL
MODEL 10
REMARK VINA RESULT:      -8.6      2.243      4.914
REMARK  Name = 44257173
REMARK  4 active torsions:
REMARK  status: ('A' for Active; 'I' for Inactive)
REMARK    1  A    between atoms: O_2  and  C_17
REMARK    2  A    between atoms: C_5  and  C_11
REMARK    3  A    between atoms: C_7  and  C_10
REMARK    4  A    between atoms: C_18  and  C_21
REMARK                            x       y       z     vdW  Elec       q    Type
REMARK                         _______ _______ _______ _____ _____    ______ ____
ROOT
ATOM      1  O   UNL     1     113.553 130.076 137.065  0.00  0.00    +0.000 OA
ATOM      2  C   UNL     1     113.539 128.468 136.695  0.00  0.00    +0.000 C 
ATOM      3  C   UNL     1     113.184 128.735 137.391  0.00  0.00    +0.000 C 
ATOM      4  C   UNL     1     113.191 129.539 137.576  0.00  0.00    +0.000 C 
ATOM      5  C   UNL     1     113.901 129.006 136.185  0.00  0.00    +0.000 A 
ATOM      6  C   UNL     1     113.908 129.810 136.370  0.00  0.00    +0.000 A 
ATOM      7  C   UNL     1     114.268 128.716 135.463  0.00  0.00    +0.000 A 
ATOM      8  C   UNL     1     114.282 130.380 135.846  0.00  0.00    +0.000 A 
ATOM      9  C   UNL     1     114.646 129.272 134.928  0.00  0.00    +0.000 A 
ATOM     10  C   UNL     1     114.654 130.109 135.121  0.00  0.00    +0.000 A 
ENDROOT
BRANCH   4  12
ATOM     11  O   UNL     1     111.769 130.603 140.357  0.00  0.00    +0.000 OA
ATOM     12  C   UNL     1     112.836 129.805 138.271  0.00  0.00    +0.000 A 
ATOM     13  C   UNL     1     113.284 129.887 138.958  0.00  0.00    +0.000 A 
ATOM     14  C   UNL     1     112.032 129.989 138.278  0.00  0.00    +0.000 A 
ATOM     15  C   UNL     1     112.929 130.153 139.653  0.00  0.00    +0.000 A 
ATOM     16  C   UNL     1     111.676 130.255 138.974  0.00  0.00    +0.000 A 
ATOM     17  C   UNL     1     112.125 130.337 139.661  0.00  0.00    +0.000 A 
ENDBRANCH   4  12
BRANCH  10  18
ATOM     18  O   UNL     1     115.015 130.649 134.612  0.00  0.00    +0.000 OA
ATOM     19  C   UNL     1     115.709 131.030 134.842  0.00  0.00    +0.000 C 
ENDBRANCH  10  18
BRANCH   2  20
ATOM     20  C   UNL     1     113.533 127.664 136.510  0.00  0.00    +0.000 C 
ATOM     21  C   UNL     1     113.345 127.109 137.091  0.00  0.00    +0.000 C 
BRANCH  21  23
ATOM     22  O   UNL     1     113.318 123.893 136.351  0.00  0.00    +0.000 OA
ATOM     23  C   UNL     1     113.338 126.305 136.906  0.00  0.00    +0.000 A 
ATOM     24  C   UNL     1     114.008 125.843 137.047  0.00  0.00    +0.000 A 
ATOM     25  C   UNL     1     112.663 125.962 136.580  0.00  0.00    +0.000 A 
ATOM     26  C   UNL     1     114.002 125.039 136.862  0.00  0.00    +0.000 A 
ATOM     27  C   UNL     1     112.656 125.158 136.395  0.00  0.00    +0.000 A 
ATOM     28  C   UNL     1     113.325 124.697 136.536  0.00  0.00    +0.000 A 
ENDBRANCH  21  23
ENDBRANCH   2  20
TORSDOF 4
ENDMDL
