MODEL 1
REMARK VINA RESULT:      -7.9      0.000      0.000
REMARK  Name = 147157
REMARK  2 active torsions:
REMARK  status: ('A' for Active; 'I' for Inactive)
REMARK    1  A    between atoms: O_2  and  C_12
REMARK    2  A    between atoms: C_6  and  C_8
REMARK                            x       y       z     vdW  Elec       q    Type
REMARK                         _______ _______ _______ _____ _____    ______ ____
ROOT
ATOM      1  O   UNL     1     102.888 130.467 142.062  0.00  0.00    +0.000 OA
ATOM      2  O   UNL     1     102.619 129.340 139.875  0.00  0.00    +0.000 OA
ATOM      3  C   UNL     1     103.242 129.419 141.158  0.00  0.00    +0.000 A 
ATOM      4  C   UNL     1     103.332 129.794 141.887  0.00  0.00    +0.000 A 
ATOM      5  C   UNL     1     102.353 130.764 141.507  0.00  0.00    +0.000 A 
ATOM      6  C   UNL     1     102.709 129.716 140.604  0.00  0.00    +0.000 A 
ATOM      7  C   UNL     1     103.700 128.717 140.964  0.00  0.00    +0.000 A 
ATOM      8  C   UNL     1     102.264 130.389 140.778  0.00  0.00    +0.000 A 
ATOM      9  C   UNL     1     103.885 129.494 142.472  0.00  0.00    +0.000 A 
ATOM     10  C   UNL     1     104.258 128.403 141.537  0.00  0.00    +0.000 A 
ATOM     11  C   UNL     1     104.351 128.794 142.296  0.00  0.00    +0.000 A 
ENDROOT
BRANCH   5  12
ATOM     12  C   UNL     1     101.909 131.437 141.683  0.00  0.00    +0.000 A 
ATOM     13  C   UNL     1     101.155 131.359 142.010  0.00  0.00    +0.000 A 
ATOM     14  C   UNL     1     102.218 132.186 141.532  0.00  0.00    +0.000 A 
ATOM     15  C   UNL     1     100.711 132.031 142.186  0.00  0.00    +0.000 A 
ATOM     16  C   UNL     1     101.773 132.859 141.708  0.00  0.00    +0.000 A 
ATOM     17  C   UNL     1     101.020 132.781 142.035  0.00  0.00    +0.000 A 
ENDBRANCH   5  12
BRANCH  10  18
ATOM     18  O   UNL     1     104.701 127.730 141.359  0.00  0.00    +0.000 OA
ATOM     19  C   UNL     1     105.230 127.426 141.914  0.00  0.00    +0.000 C 
ENDBRANCH  10  18
TORSDOF 2
ENDMDL
MODEL 2
REMARK VINA RESULT:      -7.8      7.969      9.212
REMARK  Name = 147157
REMARK  2 active torsions:
REMARK  status: ('A' for Active; 'I' for Inactive)
REMARK    1  A    between atoms: O_2  and  C_12
REMARK    2  A    between atoms: C_6  and  C_8
REMARK                            x       y       z     vdW  Elec       q    Type
REMARK                         _______ _______ _______ _____ _____    ______ ____
ROOT
ATOM      1  O   UNL     1     105.549 124.302 147.242  0.00  0.00    +0.000 OA
ATOM      2  O   UNL     1     103.882 125.644 148.487  0.00  0.00    +0.000 OA
ATOM      3  C   UNL     1     104.201 124.741 147.427  0.00  0.00    +0.000 A 
ATOM      4  C   UNL     1     104.757 124.294 147.012  0.00  0.00    +0.000 A 
ATOM      5  C   UNL     1     105.785 124.758 147.889  0.00  0.00    +0.000 A 
ATOM      6  C   UNL     1     104.438 125.196 148.072  0.00  0.00    +0.000 A 
ATOM      7  C   UNL     1     103.373 124.740 147.195  0.00  0.00    +0.000 A 
ATOM      8  C   UNL     1     105.230 125.205 148.304  0.00  0.00    +0.000 A 
ATOM      9  C   UNL     1     104.523 123.815 146.337  0.00  0.00    +0.000 A 
ATOM     10  C   UNL     1     103.121 124.268 146.524  0.00  0.00    +0.000 A 
ATOM     11  C   UNL     1     103.700 123.803 146.092  0.00  0.00    +0.000 A 
ENDROOT
BRANCH   5  12
ATOM     12  C   UNL     1     106.577 124.767 148.119  0.00  0.00    +0.000 A 
ATOM     13  C   UNL     1     107.139 125.148 147.650  0.00  0.00    +0.000 A 
ATOM     14  C   UNL     1     106.808 124.394 148.818  0.00  0.00    +0.000 A 
ATOM     15  C   UNL     1     107.931 125.156 147.881  0.00  0.00    +0.000 A 
ATOM     16  C   UNL     1     107.600 124.403 149.048  0.00  0.00    +0.000 A 
ATOM     17  C   UNL     1     108.162 124.784 148.580  0.00  0.00    +0.000 A 
ENDBRANCH   5  12
BRANCH  10  18
ATOM     18  O   UNL     1     102.329 124.261 146.295  0.00  0.00    +0.000 OA
ATOM     19  C   UNL     1     101.912 123.550 146.274  0.00  0.00    +0.000 C 
ENDBRANCH  10  18
TORSDOF 2
ENDMDL
MODEL 3
REMARK VINA RESULT:      -7.8      8.430     11.113
REMARK  Name = 147157
REMARK  2 active torsions:
REMARK  status: ('A' for Active; 'I' for Inactive)
REMARK    1  A    between atoms: O_2  and  C_12
REMARK    2  A    between atoms: C_6  and  C_8
REMARK                            x       y       z     vdW  Elec       q    Type
REMARK                         _______ _______ _______ _____ _____    ______ ____
ROOT
ATOM      1  O   UNL     1     110.999 125.940 136.750  0.00  0.00    +0.000 OA
ATOM      2  O   UNL     1     109.796 125.612 134.612  0.00  0.00    +0.000 OA
ATOM      3  C   UNL     1     109.966 126.323 135.840  0.00  0.00    +0.000 A 
ATOM      4  C   UNL     1     110.368 126.432 136.552  0.00  0.00    +0.000 A 
ATOM      5  C   UNL     1     111.230 125.338 136.235  0.00  0.00    +0.000 A 
ATOM      6  C   UNL     1     110.197 125.722 135.325  0.00  0.00    +0.000 A 
ATOM      7  C   UNL     1     109.307 126.830 135.623  0.00  0.00    +0.000 A 
ATOM      8  C   UNL     1     110.829 125.228 135.522  0.00  0.00    +0.000 A 
ATOM      9  C   UNL     1     110.137 127.056 137.097  0.00  0.00    +0.000 A 
ATOM     10  C   UNL     1     109.062 127.458 136.155  0.00  0.00    +0.000 A 
ATOM     11  C   UNL     1     109.480 127.572 136.897  0.00  0.00    +0.000 A 
ENDROOT
BRANCH   5  12
ATOM     12  C   UNL     1     111.861 124.845 136.433  0.00  0.00    +0.000 A 
ATOM     13  C   UNL     1     111.717 124.092 136.737  0.00  0.00    +0.000 A 
ATOM     14  C   UNL     1     112.637 125.106 136.326  0.00  0.00    +0.000 A 
ATOM     15  C   UNL     1     112.348 123.599 136.935  0.00  0.00    +0.000 A 
ATOM     16  C   UNL     1     113.268 124.612 136.525  0.00  0.00    +0.000 A 
ATOM     17  C   UNL     1     113.124 123.860 136.829  0.00  0.00    +0.000 A 
ENDBRANCH   5  12
BRANCH  10  18
ATOM     18  O   UNL     1     108.430 127.949 135.955  0.00  0.00    +0.000 OA
ATOM     19  C   UNL     1     108.560 128.751 135.813  0.00  0.00    +0.000 C 
ENDBRANCH  10  18
TORSDOF 2
ENDMDL
MODEL 4
REMARK VINA RESULT:      -7.6      9.313     12.069
REMARK  Name = 147157
REMARK  2 active torsions:
REMARK  status: ('A' for Active; 'I' for Inactive)
REMARK    1  A    between atoms: O_2  and  C_12
REMARK    2  A    between atoms: C_6  and  C_8
REMARK                            x       y       z     vdW  Elec       q    Type
REMARK                         _______ _______ _______ _____ _____    ______ ____
ROOT
ATOM      1  O   UNL     1     112.212 125.494 136.219  0.00  0.00    +0.000 OA
ATOM      2  O   UNL     1     112.031 127.961 136.149  0.00  0.00    +0.000 OA
ATOM      3  C   UNL     1     111.459 126.672 135.923  0.00  0.00    +0.000 A 
ATOM      4  C   UNL     1     111.519 125.850 135.946  0.00  0.00    +0.000 A 
ATOM      5  C   UNL     1     112.845 125.962 136.468  0.00  0.00    +0.000 A 
ATOM      6  C   UNL     1     112.091 127.139 136.172  0.00  0.00    +0.000 A 
ATOM      7  C   UNL     1     110.742 127.054 135.641  0.00  0.00    +0.000 A 
ATOM      8  C   UNL     1     112.784 126.784 136.445  0.00  0.00    +0.000 A 
ATOM      9  C   UNL     1     110.867 125.352 135.690  0.00  0.00    +0.000 A 
ATOM     10  C   UNL     1     110.080 126.573 135.381  0.00  0.00    +0.000 A 
ATOM     11  C   UNL     1     110.143 125.716 135.405  0.00  0.00    +0.000 A 
ENDROOT
BRANCH   5  12
ATOM     12  C   UNL     1     113.537 125.606 136.740  0.00  0.00    +0.000 A 
ATOM     13  C   UNL     1     113.634 125.456 137.547  0.00  0.00    +0.000 A 
ATOM     14  C   UNL     1     114.133 125.400 136.208  0.00  0.00    +0.000 A 
ATOM     15  C   UNL     1     114.327 125.101 137.819  0.00  0.00    +0.000 A 
ATOM     16  C   UNL     1     114.825 125.044 136.482  0.00  0.00    +0.000 A 
ATOM     17  C   UNL     1     114.922 124.894 137.286  0.00  0.00    +0.000 A 
ENDBRANCH   5  12
BRANCH  10  18
ATOM     18  O   UNL     1     109.388 126.931 135.109  0.00  0.00    +0.000 OA
ATOM     19  C   UNL     1     108.721 126.960 135.593  0.00  0.00    +0.000 C 
ENDBRANCH  10  18
TORSDOF 2
ENDMDL
MODEL 5
REMARK VINA RESULT:      -7.6      9.792     11.946
REMARK  Name = 147157
REMARK  2 active torsions:
REMARK  status: ('A' for Active; 'I' for Inactive)
REMARK    1  A    between atoms: O_2  and  C_12
REMARK    2  A    between atoms: C_6  and  C_8
REMARK                            x       y       z     vdW  Elec       q    Type
REMARK                         _______ _______ _______ _____ _____    ______ ____
ROOT
ATOM      1  O   UNL     1     113.911 126.444 139.004  0.00  0.00    +0.000 OA
ATOM      2  O   UNL     1     111.491 125.986 139.244  0.00  0.00    +0.000 OA
ATOM      3  C   UNL     1     112.700 126.550 139.755  0.00  0.00    +0.000 A 
ATOM      4  C   UNL     1     113.506 126.703 139.675  0.00  0.00    +0.000 A 
ATOM      5  C   UNL     1     113.508 126.032 138.413  0.00  0.00    +0.000 A 
ATOM      6  C   UNL     1     112.298 126.138 139.164  0.00  0.00    +0.000 A 
ATOM      7  C   UNL     1     112.267 126.815 140.449  0.00  0.00    +0.000 A 
ATOM      8  C   UNL     1     112.702 125.879 138.493  0.00  0.00    +0.000 A 
ATOM      9  C   UNL     1     113.937 127.131 140.283  0.00  0.00    +0.000 A 
ATOM     10  C   UNL     1     112.681 127.244 141.068  0.00  0.00    +0.000 A 
ATOM     11  C   UNL     1     113.521 127.403 140.984  0.00  0.00    +0.000 A 
ENDROOT
BRANCH   5  12
ATOM     12  C   UNL     1     113.913 125.773 137.742  0.00  0.00    +0.000 A 
ATOM     13  C   UNL     1     113.881 126.215 137.046  0.00  0.00    +0.000 A 
ATOM     14  C   UNL     1     114.350 125.074 137.768  0.00  0.00    +0.000 A 
ATOM     15  C   UNL     1     114.286 125.956 136.375  0.00  0.00    +0.000 A 
ATOM     16  C   UNL     1     114.754 124.816 137.096  0.00  0.00    +0.000 A 
ATOM     17  C   UNL     1     114.722 125.257 136.400  0.00  0.00    +0.000 A 
ENDBRANCH   5  12
BRANCH  10  18
ATOM     18  O   UNL     1     112.274 127.502 141.737  0.00  0.00    +0.000 OA
ATOM     19  C   UNL     1     112.251 128.306 141.922  0.00  0.00    +0.000 C 
ENDBRANCH  10  18
TORSDOF 2
ENDMDL
MODEL 6
REMARK VINA RESULT:      -7.6      6.191      7.521
REMARK  Name = 147157
REMARK  2 active torsions:
REMARK  status: ('A' for Active; 'I' for Inactive)
REMARK    1  A    between atoms: O_2  and  C_12
REMARK    2  A    between atoms: C_6  and  C_8
REMARK                            x       y       z     vdW  Elec       q    Type
REMARK                         _______ _______ _______ _____ _____    ______ ____
ROOT
ATOM      1  O   UNL     1     104.676 123.329 138.881  0.00  0.00    +0.000 OA
ATOM      2  O   UNL     1     104.515 125.744 139.398  0.00  0.00    +0.000 OA
ATOM      3  C   UNL     1     105.009 124.442 139.714  0.00  0.00    +0.000 A 
ATOM      4  C   UNL     1     105.062 123.637 139.541  0.00  0.00    +0.000 A 
ATOM      5  C   UNL     1     104.235 123.828 138.392  0.00  0.00    +0.000 A 
ATOM      6  C   UNL     1     104.568 124.939 139.225  0.00  0.00    +0.000 A 
ATOM      7  C   UNL     1     105.407 124.774 140.399  0.00  0.00    +0.000 A 
ATOM      8  C   UNL     1     104.181 124.633 138.564  0.00  0.00    +0.000 A 
ATOM      9  C   UNL     1     105.518 123.108 140.043  0.00  0.00    +0.000 A 
ATOM     10  C   UNL     1     105.867 124.260 140.912  0.00  0.00    +0.000 A 
ATOM     11  C   UNL     1     105.923 123.422 140.732  0.00  0.00    +0.000 A 
ENDROOT
BRANCH   5  12
ATOM     12  C   UNL     1     103.848 123.520 137.732  0.00  0.00    +0.000 A 
ATOM     13  C   UNL     1     103.025 123.455 137.729  0.00  0.00    +0.000 A 
ATOM     14  C   UNL     1     104.283 123.278 137.074  0.00  0.00    +0.000 A 
ATOM     15  C   UNL     1     102.638 123.148 137.068  0.00  0.00    +0.000 A 
ATOM     16  C   UNL     1     103.895 122.970 136.414  0.00  0.00    +0.000 A 
ATOM     17  C   UNL     1     103.074 122.905 136.411  0.00  0.00    +0.000 A 
ENDBRANCH   5  12
BRANCH  10  18
ATOM     18  O   UNL     1     106.253 124.570 141.572  0.00  0.00    +0.000 OA
ATOM     19  C   UNL     1     105.912 124.500 142.320  0.00  0.00    +0.000 C 
ENDBRANCH  10  18
TORSDOF 2
ENDMDL
MODEL 7
REMARK VINA RESULT:      -7.5      5.846      8.632
REMARK  Name = 147157
REMARK  2 active torsions:
REMARK  status: ('A' for Active; 'I' for Inactive)
REMARK    1  A    between atoms: O_2  and  C_12
REMARK    2  A    between atoms: C_6  and  C_8
REMARK                            x       y       z     vdW  Elec       q    Type
REMARK                         _______ _______ _______ _____ _____    ______ ____
ROOT
ATOM      1  O   UNL     1     106.564 124.883 146.828  0.00  0.00    +0.000 OA
ATOM      2  O   UNL     1     106.852 127.315 146.472  0.00  0.00    +0.000 OA
ATOM      3  C   UNL     1     106.429 126.037 145.996  0.00  0.00    +0.000 A 
ATOM      4  C   UNL     1     106.333 125.226 146.114  0.00  0.00    +0.000 A 
ATOM      5  C   UNL     1     106.891 125.351 147.424  0.00  0.00    +0.000 A 
ATOM      6  C   UNL     1     106.756 126.504 146.591  0.00  0.00    +0.000 A 
ATOM      7  C   UNL     1     106.192 126.405 145.256  0.00  0.00    +0.000 A 
ATOM      8  C   UNL     1     106.987 126.162 147.305  0.00  0.00    +0.000 A 
ATOM      9  C   UNL     1     105.994 124.728 145.501  0.00  0.00    +0.000 A 
ATOM     10  C   UNL     1     105.851 125.923 144.632  0.00  0.00    +0.000 A 
ATOM     11  C   UNL     1     105.751 125.079 144.756  0.00  0.00    +0.000 A 
ENDROOT
BRANCH   5  12
ATOM     12  C   UNL     1     107.121 125.008 148.138  0.00  0.00    +0.000 A 
ATOM     13  C   UNL     1     106.553 124.813 148.704  0.00  0.00    +0.000 A 
ATOM     14  C   UNL     1     107.919 124.860 148.286  0.00  0.00    +0.000 A 
ATOM     15  C   UNL     1     106.784 124.470 149.417  0.00  0.00    +0.000 A 
ATOM     16  C   UNL     1     108.149 124.516 149.000  0.00  0.00    +0.000 A 
ATOM     17  C   UNL     1     107.582 124.322 149.566  0.00  0.00    +0.000 A 
ENDBRANCH   5  12
BRANCH  10  18
ATOM     18  O   UNL     1     105.621 126.268 143.919  0.00  0.00    +0.000 OA
ATOM     19  C   UNL     1     106.018 126.077 143.221  0.00  0.00    +0.000 C 
ENDBRANCH  10  18
TORSDOF 2
ENDMDL
MODEL 8
REMARK VINA RESULT:      -7.4      9.817     11.665
REMARK  Name = 147157
REMARK  2 active torsions:
REMARK  status: ('A' for Active; 'I' for Inactive)
REMARK    1  A    between atoms: O_2  and  C_12
REMARK    2  A    between atoms: C_6  and  C_8
REMARK                            x       y       z     vdW  Elec       q    Type
REMARK                         _______ _______ _______ _____ _____    ______ ____
ROOT
ATOM      1  O   UNL     1     111.834 125.967 136.019  0.00  0.00    +0.000 OA
ATOM      2  O   UNL     1     111.934 123.561 136.590  0.00  0.00    +0.000 OA
ATOM      3  C   UNL     1     112.573 124.834 136.479  0.00  0.00    +0.000 A 
ATOM      4  C   UNL     1     112.539 125.636 136.289  0.00  0.00    +0.000 A 
ATOM      5  C   UNL     1     111.161 125.496 135.940  0.00  0.00    +0.000 A 
ATOM      6  C   UNL     1     111.901 124.363 136.400  0.00  0.00    +0.000 A 
ATOM      7  C   UNL     1     113.303 124.478 136.761  0.00  0.00    +0.000 A 
ATOM      8  C   UNL     1     111.194 124.693 136.130  0.00  0.00    +0.000 A 
ATOM      9  C   UNL     1     113.233 126.137 136.367  0.00  0.00    +0.000 A 
ATOM     10  C   UNL     1     114.006 124.963 136.846  0.00  0.00    +0.000 A 
ATOM     11  C   UNL     1     113.971 125.798 136.647  0.00  0.00    +0.000 A 
ENDROOT
BRANCH   5  12
ATOM     12  C   UNL     1     110.455 125.827 135.670  0.00  0.00    +0.000 A 
ATOM     13  C   UNL     1     110.225 125.723 134.884  0.00  0.00    +0.000 A 
ATOM     14  C   UNL     1     109.979 126.261 136.185  0.00  0.00    +0.000 A 
ATOM     15  C   UNL     1     109.520 126.055 134.614  0.00  0.00    +0.000 A 
ATOM     16  C   UNL     1     109.273 126.592 135.914  0.00  0.00    +0.000 A 
ATOM     17  C   UNL     1     109.044 126.489 135.129  0.00  0.00    +0.000 A 
ENDBRANCH   5  12
BRANCH  10  18
ATOM     18  O   UNL     1     114.711 124.630 137.115  0.00  0.00    +0.000 OA
ATOM     19  C   UNL     1     114.992 124.813 137.869  0.00  0.00    +0.000 C 
ENDBRANCH  10  18
TORSDOF 2
ENDMDL
MODEL 9
REMARK VINA RESULT:      -7.2     11.234     12.689
REMARK  Name = 147157
REMARK  2 active torsions:
REMARK  status: ('A' for Active; 'I' for Inactive)
REMARK    1  A    between atoms: O_2  and  C_12
REMARK    2  A    between atoms: C_6  and  C_8
REMARK                            x       y       z     vdW  Elec       q    Type
REMARK                         _______ _______ _______ _____ _____    ______ ____
ROOT
ATOM      1  O   UNL     1     113.875 127.139 136.308  0.00  0.00    +0.000 OA
ATOM      2  O   UNL     1     112.491 128.229 138.046  0.00  0.00    +0.000 OA
ATOM      3  C   UNL     1     113.299 128.319 136.871  0.00  0.00    +0.000 A 
ATOM      4  C   UNL     1     113.760 127.955 136.292  0.00  0.00    +0.000 A 
ATOM      5  C   UNL     1     113.528 126.685 136.904  0.00  0.00    +0.000 A 
ATOM      6  C   UNL     1     112.952 127.865 137.466  0.00  0.00    +0.000 A 
ATOM      7  C   UNL     1     113.172 129.169 136.865  0.00  0.00    +0.000 A 
ATOM      8  C   UNL     1     113.067 127.048 137.483  0.00  0.00    +0.000 A 
ATOM      9  C   UNL     1     114.127 128.417 135.666  0.00  0.00    +0.000 A 
ATOM     10  C   UNL     1     113.531 129.646 136.247  0.00  0.00    +0.000 A 
ATOM     11  C   UNL     1     114.011 129.268 135.644  0.00  0.00    +0.000 A 
ENDROOT
BRANCH   5  12
ATOM     12  C   UNL     1     113.643 125.868 136.920  0.00  0.00    +0.000 A 
ATOM     13  C   UNL     1     114.315 125.554 137.282  0.00  0.00    +0.000 A 
ATOM     14  C   UNL     1     113.087 125.366 136.573  0.00  0.00    +0.000 A 
ATOM     15  C   UNL     1     114.430 124.737 137.298  0.00  0.00    +0.000 A 
ATOM     16  C   UNL     1     113.204 124.549 136.590  0.00  0.00    +0.000 A 
ATOM     17  C   UNL     1     113.874 124.235 136.952  0.00  0.00    +0.000 A 
ENDBRANCH   5  12
BRANCH  10  18
ATOM     18  O   UNL     1     113.414 130.463 136.234  0.00  0.00    +0.000 OA
ATOM     19  C   UNL     1     114.050 130.972 136.362  0.00  0.00    +0.000 C 
ENDBRANCH  10  18
TORSDOF 2
ENDMDL
