MODEL 1
REMARK VINA RESULT:      -9.2      0.000      0.000
REMARK  Name = 44259989
REMARK  9 active torsions:
REMARK  status: ('A' for Active; 'I' for Inactive)
REMARK    1  A    between atoms: O_1  and  C_19
REMARK    2  A    between atoms: O_1  and  C_22
REMARK    3  A    between atoms: O_4  and  C_24
REMARK    4  A    between atoms: O_4  and  C_31
REMARK    5  A    between atoms: O_14  and  C_38
REMARK    6  A    between atoms: O_17  and  C_43
REMARK    7  A    between atoms: C_25  and  C_29
REMARK    8  A    between atoms: C_28  and  C_30
REMARK    9  A    between atoms: C_32  and  C_36
REMARK                            x       y       z     vdW  Elec       q    Type
REMARK                         _______ _______ _______ _____ _____    ______ ____
ROOT
ATOM      1  O   UNL     1     112.968 127.594 137.303  0.00  0.00    +0.000 OA
ATOM      2  O   UNL     1     110.561 127.472 137.867  0.00  0.00    +0.000 OA
ATOM      3  O   UNL     1     110.627 126.034 137.965  0.00  0.00    +0.000 OA
ATOM      4  O   UNL     1     113.176 124.695 137.481  0.00  0.00    +0.000 OA
ATOM      5  C   UNL     1     111.717 128.244 137.540  0.00  0.00    +0.000 A 
ATOM      6  C   UNL     1     112.520 128.286 137.352  0.00  0.00    +0.000 A 
ATOM      7  C   UNL     1     111.363 127.513 137.679  0.00  0.00    +0.000 A 
ATOM      8  C   UNL     1     111.811 126.822 137.630  0.00  0.00    +0.000 A 
ATOM      9  C   UNL     1     112.613 126.862 137.442  0.00  0.00    +0.000 A 
ATOM     10  C   UNL     1     111.430 126.065 137.777  0.00  0.00    +0.000 A 
ATOM     11  C   UNL     1     113.090 126.150 137.388  0.00  0.00    +0.000 A 
ATOM     12  C   UNL     1     111.891 125.342 137.727  0.00  0.00    +0.000 A 
ATOM     13  C   UNL     1     112.726 125.385 137.531  0.00  0.00    +0.000 A 
ENDROOT
BRANCH   6  15
ATOM     14  O   UNL     1     113.939 131.212 136.795  0.00  0.00    +0.000 OA
ATOM     15  C   UNL     1     112.874 129.017 137.213  0.00  0.00    +0.000 A 
ATOM     16  C   UNL     1     113.112 129.488 137.847  0.00  0.00    +0.000 A 
ATOM     17  C   UNL     1     112.992 129.278 136.439  0.00  0.00    +0.000 A 
ATOM     18  C   UNL     1     113.467 130.219 137.708  0.00  0.00    +0.000 A 
ATOM     19  C   UNL     1     113.347 130.010 136.300  0.00  0.00    +0.000 A 
ATOM     20  C   UNL     1     113.584 130.480 136.935  0.00  0.00    +0.000 A 
BRANCH  18  21
ATOM     21  O   UNL     1     113.704 130.691 138.343  0.00  0.00    +0.000 OA
ATOM     22  C   UNL     1     113.907 130.341 139.062  0.00  0.00    +0.000 C 
ENDBRANCH  18  21
ENDBRANCH   6  15
BRANCH  11  23
ATOM     23  O   UNL     1     113.891 126.200 137.199  0.00  0.00    +0.000 OA
ATOM     24  C   UNL     1     114.220 125.676 136.652  0.00  0.00    +0.000 C 
ENDBRANCH  11  23
BRANCH   5  25
ATOM     25  O   UNL     1     111.270 128.936 137.589  0.00  0.00    +0.000 OA
BRANCH  25  32
ATOM     26  O   UNL     1     110.545 128.718 136.377  0.00  0.00    +0.000 OA
ATOM     27  O   UNL     1     108.562 129.821 137.365  0.00  0.00    +0.000 OA
ATOM     28  O   UNL     1     108.498 129.236 135.825  0.00  0.00    +0.000 OA
ATOM     29  C   UNL     1     109.916 129.379 137.478  0.00  0.00    +0.000 C 
ATOM     30  C   UNL     1     109.223 129.454 137.036  0.00  0.00    +0.000 C 
ATOM     31  C   UNL     1     109.190 129.161 136.266  0.00  0.00    +0.000 C 
ATOM     32  C   UNL     1     110.577 129.011 137.149  0.00  0.00    +0.000 C 
ATOM     33  C   UNL     1     109.851 128.793 135.937  0.00  0.00    +0.000 C 
BRANCH  33  35
ATOM     34  O   UNL     1     110.388 128.731 134.614  0.00  0.00    +0.000 OA
ATOM     35  C   UNL     1     109.820 128.500 135.166  0.00  0.00    +0.000 C 
ENDBRANCH  33  35
BRANCH  29  36
ATOM     36  O   UNL     1     109.948 129.671 138.248  0.00  0.00    +0.000 OA
BRANCH  36  41
ATOM     37  O   UNL     1     110.085 130.999 137.738  0.00  0.00    +0.000 OA
ATOM     38  O   UNL     1     109.991 130.260 139.789  0.00  0.00    +0.000 OA
ATOM     39  O   UNL     1     110.150 131.881 140.049  0.00  0.00    +0.000 OA
ATOM     40  O   UNL     1     110.266 132.915 138.768  0.00  0.00    +0.000 OA
ATOM     41  C   UNL     1     110.028 130.482 138.378  0.00  0.00    +0.000 C 
ATOM     42  C   UNL     1     110.049 130.777 139.149  0.00  0.00    +0.000 C 
ATOM     43  C   UNL     1     110.129 131.588 139.279  0.00  0.00    +0.000 C 
ATOM     44  C   UNL     1     110.187 132.104 138.638  0.00  0.00    +0.000 C 
ATOM     45  C   UNL     1     110.165 131.810 137.868  0.00  0.00    +0.000 C 
BRANCH  45  47
ATOM     46  O   UNL     1     110.923 132.371 136.794  0.00  0.00    +0.000 OA
ATOM     47  C   UNL     1     110.223 132.326 137.227  0.00  0.00    +0.000 C 
ENDBRANCH  45  47
ENDBRANCH  36  41
ENDBRANCH  29  36
ENDBRANCH  25  32
ENDBRANCH   5  25
TORSDOF 9
ENDMDL
MODEL 2
REMARK VINA RESULT:      -9.2      1.665      5.213
REMARK  Name = 44259989
REMARK  9 active torsions:
REMARK  status: ('A' for Active; 'I' for Inactive)
REMARK    1  A    between atoms: O_1  and  C_19
REMARK    2  A    between atoms: O_1  and  C_22
REMARK    3  A    between atoms: O_4  and  C_24
REMARK    4  A    between atoms: O_4  and  C_31
REMARK    5  A    between atoms: O_14  and  C_38
REMARK    6  A    between atoms: O_17  and  C_43
REMARK    7  A    between atoms: C_25  and  C_29
REMARK    8  A    between atoms: C_28  and  C_30
REMARK    9  A    between atoms: C_32  and  C_36
REMARK                            x       y       z     vdW  Elec       q    Type
REMARK                         _______ _______ _______ _____ _____    ______ ____
ROOT
ATOM      1  O   UNL     1     111.356 129.271 138.728  0.00  0.00    +0.000 OA
ATOM      2  O   UNL     1     111.581 128.828 136.303  0.00  0.00    +0.000 OA
ATOM      3  O   UNL     1     111.420 130.230 136.003  0.00  0.00    +0.000 OA
ATOM      4  O   UNL     1     111.024 132.115 138.197  0.00  0.00    +0.000 OA
ATOM      5  C   UNL     1     111.550 128.353 137.650  0.00  0.00    +0.000 A 
ATOM      6  C   UNL     1     111.475 128.500 138.459  0.00  0.00    +0.000 A 
ATOM      7  C   UNL     1     111.506 128.975 137.112  0.00  0.00    +0.000 A 
ATOM      8  C   UNL     1     111.388 129.746 137.381  0.00  0.00    +0.000 A 
ATOM      9  C   UNL     1     111.312 129.894 138.189  0.00  0.00    +0.000 A 
ATOM     10  C   UNL     1     111.344 130.387 136.809  0.00  0.00    +0.000 A 
ATOM     11  C   UNL     1     111.189 130.692 138.482  0.00  0.00    +0.000 A 
ATOM     12  C   UNL     1     111.220 131.192 137.084  0.00  0.00    +0.000 A 
ATOM     13  C   UNL     1     111.142 131.345 137.925  0.00  0.00    +0.000 A 
ENDROOT
BRANCH   6  15
ATOM     14  O   UNL     1     111.649 126.008 140.616  0.00  0.00    +0.000 OA
ATOM     15  C   UNL     1     111.518 127.878 138.998  0.00  0.00    +0.000 A 
ATOM     16  C   UNL     1     112.253 127.583 139.230  0.00  0.00    +0.000 A 
ATOM     17  C   UNL     1     110.827 127.549 139.304  0.00  0.00    +0.000 A 
ATOM     18  C   UNL     1     112.297 126.961 139.769  0.00  0.00    +0.000 A 
ATOM     19  C   UNL     1     110.870 126.925 139.844  0.00  0.00    +0.000 A 
ATOM     20  C   UNL     1     111.605 126.632 140.076  0.00  0.00    +0.000 A 
BRANCH  18  21
ATOM     21  O   UNL     1     113.032 126.666 140.002  0.00  0.00    +0.000 OA
ATOM     22  C   UNL     1     113.665 127.182 140.116  0.00  0.00    +0.000 C 
ENDBRANCH  18  21
ENDBRANCH   6  15
BRANCH  11  23
ATOM     23  O   UNL     1     111.115 130.831 139.292  0.00  0.00    +0.000 OA
ATOM     24  C   UNL     1     110.454 131.230 139.583  0.00  0.00    +0.000 C 
ENDBRANCH  11  23
BRANCH   5  25
ATOM     25  O   UNL     1     111.668 127.582 137.381  0.00  0.00    +0.000 OA
BRANCH  25  32
ATOM     26  O   UNL     1     110.350 127.406 136.860  0.00  0.00    +0.000 OA
ATOM     27  O   UNL     1     111.257 125.997 135.039  0.00  0.00    +0.000 OA
ATOM     28  O   UNL     1     109.637 126.291 135.125  0.00  0.00    +0.000 OA
ATOM     29  C   UNL     1     111.464 126.789 136.210  0.00  0.00    +0.000 C 
ATOM     30  C   UNL     1     110.955 126.467 135.646  0.00  0.00    +0.000 C 
ATOM     31  C   UNL     1     110.145 126.613 135.689  0.00  0.00    +0.000 C 
ATOM     32  C   UNL     1     111.161 127.259 136.817  0.00  0.00    +0.000 C 
ATOM     33  C   UNL     1     109.842 127.083 136.296  0.00  0.00    +0.000 C 
BRANCH  33  35
ATOM     34  O   UNL     1     108.600 126.966 136.992  0.00  0.00    +0.000 OA
ATOM     35  C   UNL     1     109.032 127.230 136.340  0.00  0.00    +0.000 C 
ENDBRANCH  33  35
BRANCH  29  36
ATOM     36  O   UNL     1     112.274 126.643 136.167  0.00  0.00    +0.000 OA
BRANCH  36  41
ATOM     37  O   UNL     1     112.068 125.328 136.687  0.00  0.00    +0.000 OA
ATOM     38  O   UNL     1     113.906 126.411 136.229  0.00  0.00    +0.000 OA
ATOM     39  O   UNL     1     114.516 124.981 136.780  0.00  0.00    +0.000 OA
ATOM     40  O   UNL     1     113.493 123.782 137.269  0.00  0.00    +0.000 OA
ATOM     41  C   UNL     1     112.579 125.928 136.442  0.00  0.00    +0.000 C 
ATOM     42  C   UNL     1     113.395 125.812 136.474  0.00  0.00    +0.000 C 
ATOM     43  C   UNL     1     113.700 125.096 136.749  0.00  0.00    +0.000 C 
ATOM     44  C   UNL     1     113.188 124.497 136.994  0.00  0.00    +0.000 C 
ATOM     45  C   UNL     1     112.373 124.613 136.963  0.00  0.00    +0.000 C 
BRANCH  45  47
ATOM     46  O   UNL     1     111.430 124.098 137.905  0.00  0.00    +0.000 OA
ATOM     47  C   UNL     1     111.861 124.013 137.207  0.00  0.00    +0.000 C 
ENDBRANCH  45  47
ENDBRANCH  36  41
ENDBRANCH  29  36
ENDBRANCH  25  32
ENDBRANCH   5  25
TORSDOF 9
ENDMDL
MODEL 3
REMARK VINA RESULT:      -9.2      1.343      2.616
REMARK  Name = 44259989
REMARK  9 active torsions:
REMARK  status: ('A' for Active; 'I' for Inactive)
REMARK    1  A    between atoms: O_1  and  C_19
REMARK    2  A    between atoms: O_1  and  C_22
REMARK    3  A    between atoms: O_4  and  C_24
REMARK    4  A    between atoms: O_4  and  C_31
REMARK    5  A    between atoms: O_14  and  C_38
REMARK    6  A    between atoms: O_17  and  C_43
REMARK    7  A    between atoms: C_25  and  C_29
REMARK    8  A    between atoms: C_28  and  C_30
REMARK    9  A    between atoms: C_32  and  C_36
REMARK                            x       y       z     vdW  Elec       q    Type
REMARK                         _______ _______ _______ _____ _____    ______ ____
ROOT
ATOM      1  O   UNL     1     111.653 127.866 137.763  0.00  0.00    +0.000 OA
ATOM      2  O   UNL     1     109.296 128.427 138.271  0.00  0.00    +0.000 OA
ATOM      3  O   UNL     1     109.082 127.125 138.855  0.00  0.00    +0.000 OA
ATOM      4  O   UNL     1     111.294 125.220 138.926  0.00  0.00    +0.000 OA
ATOM      5  C   UNL     1     110.567 128.794 137.731  0.00  0.00    +0.000 A 
ATOM      6  C   UNL     1     111.353 128.608 137.562  0.00  0.00    +0.000 A 
ATOM      7  C   UNL     1     110.082 128.240 138.102  0.00  0.00    +0.000 A 
ATOM      8  C   UNL     1     110.382 127.499 138.303  0.00  0.00    +0.000 A 
ATOM      9  C   UNL     1     111.167 127.311 138.135  0.00  0.00    +0.000 A 
ATOM     10  C   UNL     1     109.866 126.929 138.690  0.00  0.00    +0.000 A 
ATOM     11  C   UNL     1     111.492 126.543 138.339  0.00  0.00    +0.000 A 
ATOM     12  C   UNL     1     110.173 126.155 138.902  0.00  0.00    +0.000 A 
ATOM     13  C   UNL     1     110.991 125.961 138.725  0.00  0.00    +0.000 A 
ENDROOT
BRANCH   6  15
ATOM     14  O   UNL     1     113.294 130.826 136.078  0.00  0.00    +0.000 OA
ATOM     15  C   UNL     1     111.838 129.162 137.191  0.00  0.00    +0.000 A 
ATOM     16  C   UNL     1     112.351 129.627 137.640  0.00  0.00    +0.000 A 
ATOM     17  C   UNL     1     111.810 129.251 136.372  0.00  0.00    +0.000 A 
ATOM     18  C   UNL     1     112.836 130.181 137.269  0.00  0.00    +0.000 A 
ATOM     19  C   UNL     1     112.296 129.806 136.000  0.00  0.00    +0.000 A 
ATOM     20  C   UNL     1     112.809 130.271 136.449  0.00  0.00    +0.000 A 
BRANCH  18  21
ATOM     21  O   UNL     1     113.349 130.647 137.717  0.00  0.00    +0.000 OA
ATOM     22  C   UNL     1     113.767 130.312 138.345  0.00  0.00    +0.000 C 
ENDBRANCH  18  21
ENDBRANCH   6  15
BRANCH  11  23
ATOM     23  O   UNL     1     112.278 126.365 138.166  0.00  0.00    +0.000 OA
ATOM     24  C   UNL     1     112.789 126.125 138.768  0.00  0.00    +0.000 C 
ENDBRANCH  11  23
BRANCH   5  25
ATOM     25  O   UNL     1     110.267 129.536 137.530  0.00  0.00    +0.000 OA
BRANCH  25  32
ATOM     26  O   UNL     1     110.252 130.076 138.853  0.00  0.00    +0.000 OA
ATOM     27  O   UNL     1     108.152 131.281 138.338  0.00  0.00    +0.000 OA
ATOM     28  O   UNL     1     108.838 131.419 139.831  0.00  0.00    +0.000 OA
ATOM     29  C   UNL     1     109.209 130.408 137.933  0.00  0.00    +0.000 C 
ATOM     30  C   UNL     1     108.852 130.879 138.509  0.00  0.00    +0.000 C 
ATOM     31  C   UNL     1     109.195 130.949 139.256  0.00  0.00    +0.000 C 
ATOM     32  C   UNL     1     109.909 130.007 138.105  0.00  0.00    +0.000 C 
ATOM     33  C   UNL     1     109.895 130.547 139.428  0.00  0.00    +0.000 C 
BRANCH  33  35
ATOM     34  O   UNL     1     110.949 131.025 140.265  0.00  0.00    +0.000 OA
ATOM     35  C   UNL     1     110.238 130.617 140.174  0.00  0.00    +0.000 C 
ENDBRANCH  33  35
BRANCH  29  36
ATOM     36  O   UNL     1     108.866 130.339 137.187  0.00  0.00    +0.000 OA
BRANCH  36  41
ATOM     37  O   UNL     1     109.402 131.613 136.821  0.00  0.00    +0.000 OA
ATOM     38  O   UNL     1     108.132 130.226 135.713  0.00  0.00    +0.000 OA
ATOM     39  O   UNL     1     108.301 131.443 134.612  0.00  0.00    +0.000 OA
ATOM     40  O   UNL     1     109.203 132.773 134.984  0.00  0.00    +0.000 OA
ATOM     41  C   UNL     1     108.951 130.947 136.636  0.00  0.00    +0.000 C 
ATOM     42  C   UNL     1     108.583 130.891 135.899  0.00  0.00    +0.000 C 
ATOM     43  C   UNL     1     108.668 131.500 135.348  0.00  0.00    +0.000 C 
ATOM     44  C   UNL     1     109.119 132.164 135.535  0.00  0.00    +0.000 C 
ATOM     45  C   UNL     1     109.486 132.221 136.271  0.00  0.00    +0.000 C 
BRANCH  45  47
ATOM     46  O   UNL     1     110.745 132.809 136.607  0.00  0.00    +0.000 OA
ATOM     47  C   UNL     1     109.938 132.886 136.458  0.00  0.00    +0.000 C 
ENDBRANCH  45  47
ENDBRANCH  36  41
ENDBRANCH  29  36
ENDBRANCH  25  32
ENDBRANCH   5  25
TORSDOF 9
ENDMDL
MODEL 4
REMARK VINA RESULT:      -9.1      1.949      4.407
REMARK  Name = 44259989
REMARK  9 active torsions:
REMARK  status: ('A' for Active; 'I' for Inactive)
REMARK    1  A    between atoms: O_1  and  C_19
REMARK    2  A    between atoms: O_1  and  C_22
REMARK    3  A    between atoms: O_4  and  C_24
REMARK    4  A    between atoms: O_4  and  C_31
REMARK    5  A    between atoms: O_14  and  C_38
REMARK    6  A    between atoms: O_17  and  C_43
REMARK    7  A    between atoms: C_25  and  C_29
REMARK    8  A    between atoms: C_28  and  C_30
REMARK    9  A    between atoms: C_32  and  C_36
REMARK                            x       y       z     vdW  Elec       q    Type
REMARK                         _______ _______ _______ _____ _____    ______ ____
ROOT
ATOM      1  O   UNL     1     112.894 127.773 139.346  0.00  0.00    +0.000 OA
ATOM      2  O   UNL     1     112.221 129.687 137.927  0.00  0.00    +0.000 OA
ATOM      3  O   UNL     1     112.855 130.617 138.830  0.00  0.00    +0.000 OA
ATOM      4  O   UNL     1     114.196 129.590 141.212  0.00  0.00    +0.000 OA
ATOM      5  C   UNL     1     112.240 128.281 138.181  0.00  0.00    +0.000 A 
ATOM      6  C   UNL     1     112.464 127.642 138.654  0.00  0.00    +0.000 A 
ATOM      7  C   UNL     1     112.445 129.049 138.400  0.00  0.00    +0.000 A 
ATOM      8  C   UNL     1     112.875 129.179 139.091  0.00  0.00    +0.000 A 
ATOM      9  C   UNL     1     113.100 128.542 139.565  0.00  0.00    +0.000 A 
ATOM     10  C   UNL     1     113.084 129.985 139.309  0.00  0.00    +0.000 A 
ATOM     11  C   UNL     1     113.548 128.664 140.287  0.00  0.00    +0.000 A 
ATOM     12  C   UNL     1     113.532 130.127 140.028  0.00  0.00    +0.000 A 
ATOM     13  C   UNL     1     113.765 129.462 140.520  0.00  0.00    +0.000 A 
ENDROOT
BRANCH   6  15
ATOM     14  O   UNL     1     111.641 124.569 137.779  0.00  0.00    +0.000 OA
ATOM     15  C   UNL     1     112.258 126.875 138.435  0.00  0.00    +0.000 A 
ATOM     16  C   UNL     1     111.504 126.584 138.605  0.00  0.00    +0.000 A 
ATOM     17  C   UNL     1     112.806 126.396 138.047  0.00  0.00    +0.000 A 
ATOM     18  C   UNL     1     111.299 125.817 138.387  0.00  0.00    +0.000 A 
ATOM     19  C   UNL     1     112.601 125.627 137.828  0.00  0.00    +0.000 A 
ATOM     20  C   UNL     1     111.847 125.338 137.998  0.00  0.00    +0.000 A 
BRANCH  18  21
ATOM     21  O   UNL     1     110.545 125.526 138.556  0.00  0.00    +0.000 OA
ATOM     22  C   UNL     1     110.171 125.739 139.260  0.00  0.00    +0.000 C 
ENDBRANCH  18  21
ENDBRANCH   6  15
BRANCH  11  23
ATOM     23  O   UNL     1     113.768 128.021 140.754  0.00  0.00    +0.000 OA
ATOM     24  C   UNL     1     114.563 127.901 140.942  0.00  0.00    +0.000 C 
ENDBRANCH  11  23
BRANCH   5  25
ATOM     25  O   UNL     1     111.809 128.150 137.490  0.00  0.00    +0.000 OA
BRANCH  25  32
ATOM     26  O   UNL     1     112.893 128.430 136.601  0.00  0.00    +0.000 OA
ATOM     27  O   UNL     1     111.299 129.358 134.950  0.00  0.00    +0.000 OA
ATOM     28  O   UNL     1     112.913 129.328 134.612  0.00  0.00    +0.000 OA
ATOM     29  C   UNL     1     111.553 128.754 136.220  0.00  0.00    +0.000 C 
ATOM     30  C   UNL     1     111.830 129.049 135.500  0.00  0.00    +0.000 C 
ATOM     31  C   UNL     1     112.637 129.034 135.331  0.00  0.00    +0.000 C 
ATOM     32  C   UNL     1     112.085 128.445 136.770  0.00  0.00    +0.000 C 
ATOM     33  C   UNL     1     113.168 128.725 135.881  0.00  0.00    +0.000 C 
BRANCH  33  35
ATOM     34  O   UNL     1     114.376 127.989 135.681  0.00  0.00    +0.000 OA
ATOM     35  C   UNL     1     113.975 128.710 135.713  0.00  0.00    +0.000 C 
ENDBRANCH  33  35
BRANCH  29  36
ATOM     36  O   UNL     1     110.747 128.769 136.389  0.00  0.00    +0.000 OA
BRANCH  36  41
ATOM     37  O   UNL     1     110.544 127.641 135.535  0.00  0.00    +0.000 OA
ATOM     38  O   UNL     1     109.158 128.717 136.832  0.00  0.00    +0.000 OA
ATOM     39  O   UNL     1     108.162 127.564 136.200  0.00  0.00    +0.000 OA
ATOM     40  O   UNL     1     108.754 126.462 135.124  0.00  0.00    +0.000 OA
ATOM     41  C   UNL     1     110.249 128.192 136.073  0.00  0.00    +0.000 C 
ATOM     42  C   UNL     1     109.454 128.166 136.295  0.00  0.00    +0.000 C 
ATOM     43  C   UNL     1     108.955 127.589 135.978  0.00  0.00    +0.000 C 
ATOM     44  C   UNL     1     109.252 127.039 135.441  0.00  0.00    +0.000 C 
ATOM     45  C   UNL     1     110.046 127.064 135.219  0.00  0.00    +0.000 C 
BRANCH  45  47
ATOM     46  O   UNL     1     110.758 125.854 134.951  0.00  0.00    +0.000 OA
ATOM     47  C   UNL     1     110.343 126.513 134.681  0.00  0.00    +0.000 C 
ENDBRANCH  45  47
ENDBRANCH  36  41
ENDBRANCH  29  36
ENDBRANCH  25  32
ENDBRANCH   5  25
TORSDOF 9
ENDMDL
MODEL 5
REMARK VINA RESULT:      -9.1      1.425      3.579
REMARK  Name = 44259989
REMARK  9 active torsions:
REMARK  status: ('A' for Active; 'I' for Inactive)
REMARK    1  A    between atoms: O_1  and  C_19
REMARK    2  A    between atoms: O_1  and  C_22
REMARK    3  A    between atoms: O_4  and  C_24
REMARK    4  A    between atoms: O_4  and  C_31
REMARK    5  A    between atoms: O_14  and  C_38
REMARK    6  A    between atoms: O_17  and  C_43
REMARK    7  A    between atoms: C_25  and  C_29
REMARK    8  A    between atoms: C_28  and  C_30
REMARK    9  A    between atoms: C_32  and  C_36
REMARK                            x       y       z     vdW  Elec       q    Type
REMARK                         _______ _______ _______ _____ _____    ______ ____
ROOT
ATOM      1  O   UNL     1     112.263 126.030 137.316  0.00  0.00    +0.000 OA
ATOM      2  O   UNL     1     113.094 128.166 136.383  0.00  0.00    +0.000 OA
ATOM      3  O   UNL     1     114.344 127.550 136.008  0.00  0.00    +0.000 OA
ATOM      4  O   UNL     1     114.760 124.719 136.587  0.00  0.00    +0.000 OA
ATOM      5  C   UNL     1     112.065 127.415 137.030  0.00  0.00    +0.000 A 
ATOM      6  C   UNL     1     111.787 126.703 137.341  0.00  0.00    +0.000 A 
ATOM      7  C   UNL     1     112.817 127.454 136.694  0.00  0.00    +0.000 A 
ATOM      8  C   UNL     1     113.292 126.781 136.669  0.00  0.00    +0.000 A 
ATOM      9  C   UNL     1     113.016 126.068 136.980  0.00  0.00    +0.000 A 
ATOM     10  C   UNL     1     114.075 126.833 136.316  0.00  0.00    +0.000 A 
ATOM     11  C   UNL     1     113.502 125.360 136.960  0.00  0.00    +0.000 A 
ATOM     12  C   UNL     1     114.575 126.135 136.287  0.00  0.00    +0.000 A 
ATOM     13  C   UNL     1     114.286 125.394 136.611  0.00  0.00    +0.000 A 
ENDROOT
BRANCH   6  15
ATOM     14  O   UNL     1     108.777 126.547 138.685  0.00  0.00    +0.000 OA
ATOM     15  C   UNL     1     111.036 126.664 137.677  0.00  0.00    +0.000 A 
ATOM     16  C   UNL     1     110.944 126.729 138.494  0.00  0.00    +0.000 A 
ATOM     17  C   UNL     1     110.374 126.560 137.195  0.00  0.00    +0.000 A 
ATOM     18  C   UNL     1     110.192 126.690 138.830  0.00  0.00    +0.000 A 
ATOM     19  C   UNL     1     109.621 126.521 137.531  0.00  0.00    +0.000 A 
ATOM     20  C   UNL     1     109.531 126.586 138.349  0.00  0.00    +0.000 A 
BRANCH  18  21
ATOM     21  O   UNL     1     110.101 126.755 139.648  0.00  0.00    +0.000 OA
ATOM     22  C   UNL     1     110.636 126.382 140.153  0.00  0.00    +0.000 C 
ENDBRANCH  18  21
ENDBRANCH   6  15
BRANCH  11  23
ATOM     23  O   UNL     1     113.217 124.652 137.273  0.00  0.00    +0.000 OA
ATOM     24  C   UNL     1     113.206 123.970 136.808  0.00  0.00    +0.000 C 
ENDBRANCH  11  23
BRANCH   5  25
ATOM     25  O   UNL     1     111.589 128.089 137.055  0.00  0.00    +0.000 OA
BRANCH  25  32
ATOM     26  O   UNL     1     112.324 128.753 138.085  0.00  0.00    +0.000 OA
ATOM     27  O   UNL     1     111.843 130.935 137.021  0.00  0.00    +0.000 OA
ATOM     28  O   UNL     1     112.738 130.871 138.406  0.00  0.00    +0.000 OA
ATOM     29  C   UNL     1     111.716 129.512 137.038  0.00  0.00    +0.000 C 
ATOM     30  C   UNL     1     112.004 130.208 137.376  0.00  0.00    +0.000 C 
ATOM     31  C   UNL     1     112.451 130.176 138.068  0.00  0.00    +0.000 C 
ATOM     32  C   UNL     1     111.876 128.785 137.392  0.00  0.00    +0.000 C 
ATOM     33  C   UNL     1     112.611 129.449 138.423  0.00  0.00    +0.000 C 
BRANCH  33  35
ATOM     34  O   UNL     1     112.723 129.117 139.808  0.00  0.00    +0.000 OA
ATOM     35  C   UNL     1     113.058 129.416 139.115  0.00  0.00    +0.000 C 
ENDBRANCH  33  35
BRANCH  29  36
ATOM     36  O   UNL     1     111.269 129.544 136.346  0.00  0.00    +0.000 OA
BRANCH  36  41
ATOM     37  O   UNL     1     110.131 129.968 137.099  0.00  0.00    +0.000 OA
ATOM     38  O   UNL     1     110.371 129.596 134.962  0.00  0.00    +0.000 OA
ATOM     39  O   UNL     1     108.785 130.047 135.025  0.00  0.00    +0.000 OA
ATOM     40  O   UNL     1     108.097 130.445 136.471  0.00  0.00    +0.000 OA
ATOM     41  C   UNL     1     110.476 129.769 136.377  0.00  0.00    +0.000 C 
ATOM     42  C   UNL     1     110.026 129.795 135.685  0.00  0.00    +0.000 C 
ATOM     43  C   UNL     1     109.233 130.021 135.716  0.00  0.00    +0.000 C 
ATOM     44  C   UNL     1     108.890 130.220 136.439  0.00  0.00    +0.000 C 
ATOM     45  C   UNL     1     109.338 130.194 137.131  0.00  0.00    +0.000 C 
BRANCH  45  47
ATOM     46  O   UNL     1     108.840 129.807 138.413  0.00  0.00    +0.000 OA
ATOM     47  C   UNL     1     108.995 130.393 137.854  0.00  0.00    +0.000 C 
ENDBRANCH  45  47
ENDBRANCH  36  41
ENDBRANCH  29  36
ENDBRANCH  25  32
ENDBRANCH   5  25
TORSDOF 9
ENDMDL
MODEL 6
REMARK VINA RESULT:      -9.1      1.947      4.484
REMARK  Name = 44259989
REMARK  9 active torsions:
REMARK  status: ('A' for Active; 'I' for Inactive)
REMARK    1  A    between atoms: O_1  and  C_19
REMARK    2  A    between atoms: O_1  and  C_22
REMARK    3  A    between atoms: O_4  and  C_24
REMARK    4  A    between atoms: O_4  and  C_31
REMARK    5  A    between atoms: O_14  and  C_38
REMARK    6  A    between atoms: O_17  and  C_43
REMARK    7  A    between atoms: C_25  and  C_29
REMARK    8  A    between atoms: C_28  and  C_30
REMARK    9  A    between atoms: C_32  and  C_36
REMARK                            x       y       z     vdW  Elec       q    Type
REMARK                         _______ _______ _______ _____ _____    ______ ____
ROOT
ATOM      1  O   UNL     1     113.187 129.082 138.448  0.00  0.00    +0.000 OA
ATOM      2  O   UNL     1     112.385 126.933 139.378  0.00  0.00    +0.000 OA
ATOM      3  O   UNL     1     113.006 127.217 140.649  0.00  0.00    +0.000 OA
ATOM      4  O   UNL     1     114.465 129.724 140.985  0.00  0.00    +0.000 OA
ATOM      5  C   UNL     1     112.474 127.854 138.289  0.00  0.00    +0.000 A 
ATOM      6  C   UNL     1     112.741 128.571 137.979  0.00  0.00    +0.000 A 
ATOM      7  C   UNL     1     112.652 127.649 139.068  0.00  0.00    +0.000 A 
ATOM      8  C   UNL     1     113.098 128.161 139.537  0.00  0.00    +0.000 A 
ATOM      9  C   UNL     1     113.366 128.877 139.228  0.00  0.00    +0.000 A 
ATOM     10  C   UNL     1     113.278 127.936 140.347  0.00  0.00    +0.000 A 
ATOM     11  C   UNL     1     113.830 129.419 139.706  0.00  0.00    +0.000 A 
ATOM     12  C   UNL     1     113.741 128.465 140.841  0.00  0.00    +0.000 A 
ATOM     13  C   UNL     1     114.019 129.211 140.518  0.00  0.00    +0.000 A 
ENDROOT
BRANCH   6  15
ATOM     14  O   UNL     1     112.029 129.391 134.863  0.00  0.00    +0.000 OA
ATOM     15  C   UNL     1     112.563 128.776 137.201  0.00  0.00    +0.000 A 
ATOM     16  C   UNL     1     111.833 129.114 137.019  0.00  0.00    +0.000 A 
ATOM     17  C   UNL     1     113.116 128.642 136.602  0.00  0.00    +0.000 A 
ATOM     18  C   UNL     1     111.655 129.319 136.241  0.00  0.00    +0.000 A 
ATOM     19  C   UNL     1     112.938 128.847 135.823  0.00  0.00    +0.000 A 
ATOM     20  C   UNL     1     112.207 129.186 135.643  0.00  0.00    +0.000 A 
BRANCH  18  21
ATOM     21  O   UNL     1     110.925 129.658 136.059  0.00  0.00    +0.000 OA
ATOM     22  C   UNL     1     110.655 130.309 136.488  0.00  0.00    +0.000 C 
ENDBRANCH  18  21
ENDBRANCH   6  15
BRANCH  11  23
ATOM     23  O   UNL     1     114.093 130.133 139.388  0.00  0.00    +0.000 OA
ATOM     24  C   UNL     1     114.603 130.615 139.823  0.00  0.00    +0.000 C 
ENDBRANCH  11  23
BRANCH   5  25
ATOM     25  O   UNL     1     112.029 127.343 137.820  0.00  0.00    +0.000 OA
BRANCH  25  32
ATOM     26  O   UNL     1     113.070 126.383 137.626  0.00  0.00    +0.000 OA
ATOM     27  O   UNL     1     111.390 124.565 137.603  0.00  0.00    +0.000 OA
ATOM     28  O   UNL     1     112.990 124.212 137.417  0.00  0.00    +0.000 OA
ATOM     29  C   UNL     1     111.709 125.954 137.711  0.00  0.00    +0.000 C 
ATOM     30  C   UNL     1     111.950 125.171 137.611  0.00  0.00    +0.000 C 
ATOM     31  C   UNL     1     112.750 124.994 137.518  0.00  0.00    +0.000 C 
ATOM     32  C   UNL     1     112.269 126.560 137.719  0.00  0.00    +0.000 C 
ATOM     33  C   UNL     1     113.310 125.600 137.525  0.00  0.00    +0.000 C 
BRANCH  33  35
ATOM     34  O   UNL     1     114.530 125.740 136.795  0.00  0.00    +0.000 OA
ATOM     35  C   UNL     1     114.110 125.424 137.432  0.00  0.00    +0.000 C 
ENDBRANCH  33  35
BRANCH  29  36
ATOM     36  O   UNL     1     110.909 126.131 137.805  0.00  0.00    +0.000 OA
BRANCH  36  41
ATOM     37  O   UNL     1     110.699 125.968 136.400  0.00  0.00    +0.000 OA
ATOM     38  O   UNL     1     109.379 126.728 137.963  0.00  0.00    +0.000 OA
ATOM     39  O   UNL     1     108.405 126.863 136.638  0.00  0.00    +0.000 OA
ATOM     40  O   UNL     1     108.961 126.401 135.155  0.00  0.00    +0.000 OA
ATOM     41  C   UNL     1     110.422 126.198 137.142  0.00  0.00    +0.000 C 
ATOM     42  C   UNL     1     109.656 126.497 137.221  0.00  0.00    +0.000 C 
ATOM     43  C   UNL     1     109.169 126.565 136.559  0.00  0.00    +0.000 C 
ATOM     44  C   UNL     1     109.448 126.334 135.817  0.00  0.00    +0.000 C 
ATOM     45  C   UNL     1     110.212 126.035 135.738  0.00  0.00    +0.000 C 
BRANCH  45  47
ATOM     46  O   UNL     1     111.069 126.251 134.615  0.00  0.00    +0.000 OA
ATOM     47  C   UNL     1     110.491 125.804 134.996  0.00  0.00    +0.000 C 
ENDBRANCH  45  47
ENDBRANCH  36  41
ENDBRANCH  29  36
ENDBRANCH  25  32
ENDBRANCH   5  25
TORSDOF 9
ENDMDL
MODEL 7
REMARK VINA RESULT:      -9.1      1.505      5.125
REMARK  Name = 44259989
REMARK  9 active torsions:
REMARK  status: ('A' for Active; 'I' for Inactive)
REMARK    1  A    between atoms: O_1  and  C_19
REMARK    2  A    between atoms: O_1  and  C_22
REMARK    3  A    between atoms: O_4  and  C_24
REMARK    4  A    between atoms: O_4  and  C_31
REMARK    5  A    between atoms: O_14  and  C_38
REMARK    6  A    between atoms: O_17  and  C_43
REMARK    7  A    between atoms: C_25  and  C_29
REMARK    8  A    between atoms: C_28  and  C_30
REMARK    9  A    between atoms: C_32  and  C_36
REMARK                            x       y       z     vdW  Elec       q    Type
REMARK                         _______ _______ _______ _____ _____    ______ ____
ROOT
ATOM      1  O   UNL     1     111.514 130.273 137.753  0.00  0.00    +0.000 OA
ATOM      2  O   UNL     1     110.212 128.632 139.071  0.00  0.00    +0.000 OA
ATOM      3  O   UNL     1     109.444 129.689 139.683  0.00  0.00    +0.000 OA
ATOM      4  O   UNL     1     110.004 132.459 138.946  0.00  0.00    +0.000 OA
ATOM      5  C   UNL     1     111.236 128.920 138.117  0.00  0.00    +0.000 A 
ATOM      6  C   UNL     1     111.671 129.467 137.677  0.00  0.00    +0.000 A 
ATOM      7  C   UNL     1     110.647 129.179 138.632  0.00  0.00    +0.000 A 
ATOM      8  C   UNL     1     110.490 129.985 138.707  0.00  0.00    +0.000 A 
ATOM      9  C   UNL     1     110.924 130.533 138.268  0.00  0.00    +0.000 A 
ATOM     10  C   UNL     1     109.873 130.244 139.247  0.00  0.00    +0.000 A 
ATOM     11  C   UNL     1     110.771 131.375 138.338  0.00  0.00    +0.000 A 
ATOM     12  C   UNL     1     109.706 131.082 139.330  0.00  0.00    +0.000 A 
ATOM     13  C   UNL     1     110.158 131.651 138.872  0.00  0.00    +0.000 A 
ENDROOT
BRANCH   6  15
ATOM     14  O   UNL     1     114.031 128.430 135.618  0.00  0.00    +0.000 OA
ATOM     15  C   UNL     1     112.260 129.208 137.163  0.00  0.00    +0.000 A 
ATOM     16  C   UNL     1     112.062 128.943 136.407  0.00  0.00    +0.000 A 
ATOM     17  C   UNL     1     113.049 129.213 137.403  0.00  0.00    +0.000 A 
ATOM     18  C   UNL     1     112.651 128.684 135.892  0.00  0.00    +0.000 A 
ATOM     19  C   UNL     1     113.640 128.954 136.888  0.00  0.00    +0.000 A 
ATOM     20  C   UNL     1     113.441 128.689 136.133  0.00  0.00    +0.000 A 
BRANCH  18  21
ATOM     21  O   UNL     1     112.453 128.419 135.136  0.00  0.00    +0.000 OA
ATOM     22  C   UNL     1     111.805 128.744 134.742  0.00  0.00    +0.000 C 
ENDBRANCH  18  21
ENDBRANCH   6  15
BRANCH  11  23
ATOM     23  O   UNL     1     111.210 131.915 137.894  0.00  0.00    +0.000 OA
ATOM     24  C   UNL     1     110.825 132.449 137.397  0.00  0.00    +0.000 C 
ENDBRANCH  11  23
BRANCH   5  25
ATOM     25  O   UNL     1     111.392 128.113 138.041  0.00  0.00    +0.000 OA
BRANCH  25  32
ATOM     26  O   UNL     1     112.028 127.972 139.313  0.00  0.00    +0.000 OA
ATOM     27  O   UNL     1     111.117 125.680 139.514  0.00  0.00    +0.000 OA
ATOM     28  O   UNL     1     112.056 126.303 140.718  0.00  0.00    +0.000 OA
ATOM     29  C   UNL     1     111.254 126.896 138.777  0.00  0.00    +0.000 C 
ATOM     30  C   UNL     1     111.421 126.444 139.447  0.00  0.00    +0.000 C 
ATOM     31  C   UNL     1     111.890 126.755 140.049  0.00  0.00    +0.000 C 
ATOM     32  C   UNL     1     111.558 127.660 138.710  0.00  0.00    +0.000 C 
ATOM     33  C   UNL     1     112.194 127.519 139.982  0.00  0.00    +0.000 C 
BRANCH  33  35
ATOM     34  O   UNL     1     113.442 128.054 140.425  0.00  0.00    +0.000 OA
ATOM     35  C   UNL     1     112.664 127.831 140.584  0.00  0.00    +0.000 C 
ENDBRANCH  33  35
BRANCH  29  36
ATOM     36  O   UNL     1     110.785 126.585 138.175  0.00  0.00    +0.000 OA
BRANCH  36  41
ATOM     37  O   UNL     1     111.888 125.803 137.713  0.00  0.00    +0.000 OA
ATOM     38  O   UNL     1     109.892 126.092 136.878  0.00  0.00    +0.000 OA
ATOM     39  O   UNL     1     110.550 125.063 135.768  0.00  0.00    +0.000 OA
ATOM     40  O   UNL     1     112.099 124.527 135.955  0.00  0.00    +0.000 OA
ATOM     41  C   UNL     1     111.113 126.071 137.620  0.00  0.00    +0.000 C 
ATOM     42  C   UNL     1     110.667 125.824 136.971  0.00  0.00    +0.000 C 
ATOM     43  C   UNL     1     110.995 125.309 136.416  0.00  0.00    +0.000 C 
ATOM     44  C   UNL     1     111.770 125.042 136.510  0.00  0.00    +0.000 C 
ATOM     45  C   UNL     1     112.216 125.288 137.158  0.00  0.00    +0.000 C 
BRANCH  45  47
ATOM     46  O   UNL     1     113.623 125.540 137.150  0.00  0.00    +0.000 OA
ATOM     47  C   UNL     1     112.991 125.021 137.252  0.00  0.00    +0.000 C 
ENDBRANCH  45  47
ENDBRANCH  36  41
ENDBRANCH  29  36
ENDBRANCH  25  32
ENDBRANCH   5  25
TORSDOF 9
ENDMDL
MODEL 8
REMARK VINA RESULT:      -9.1      1.287      2.968
REMARK  Name = 44259989
REMARK  9 active torsions:
REMARK  status: ('A' for Active; 'I' for Inactive)
REMARK    1  A    between atoms: O_1  and  C_19
REMARK    2  A    between atoms: O_1  and  C_22
REMARK    3  A    between atoms: O_4  and  C_24
REMARK    4  A    between atoms: O_4  and  C_31
REMARK    5  A    between atoms: O_14  and  C_38
REMARK    6  A    between atoms: O_17  and  C_43
REMARK    7  A    between atoms: C_25  and  C_29
REMARK    8  A    between atoms: C_28  and  C_30
REMARK    9  A    between atoms: C_32  and  C_36
REMARK                            x       y       z     vdW  Elec       q    Type
REMARK                         _______ _______ _______ _____ _____    ______ ____
ROOT
ATOM      1  O   UNL     1     112.334 126.598 136.660  0.00  0.00    +0.000 OA
ATOM      2  O   UNL     1     112.880 127.950 138.660  0.00  0.00    +0.000 OA
ATOM      3  O   UNL     1     113.830 126.959 139.106  0.00  0.00    +0.000 OA
ATOM      4  O   UNL     1     114.234 124.556 137.497  0.00  0.00    +0.000 OA
ATOM      5  C   UNL     1     112.140 127.772 137.451  0.00  0.00    +0.000 A 
ATOM      6  C   UNL     1     111.957 127.321 136.784  0.00  0.00    +0.000 A 
ATOM      7  C   UNL     1     112.698 127.499 137.993  0.00  0.00    +0.000 A 
ATOM      8  C   UNL     1     113.074 126.776 137.869  0.00  0.00    +0.000 A 
ATOM      9  C   UNL     1     112.893 126.324 137.203  0.00  0.00    +0.000 A 
ATOM     10  C   UNL     1     113.654 126.502 138.441  0.00  0.00    +0.000 A 
ATOM     11  C   UNL     1     113.277 125.569 137.062  0.00  0.00    +0.000 A 
ATOM     12  C   UNL     1     114.049 125.749 138.317  0.00  0.00    +0.000 A 
ATOM     13  C   UNL     1     113.859 125.280 137.623  0.00  0.00    +0.000 A 
ENDROOT
BRANCH   6  15
ATOM     14  O   UNL     1     109.725 128.412 134.612  0.00  0.00    +0.000 OA
ATOM     15  C   UNL     1     111.399 127.594 136.241  0.00  0.00    +0.000 A 
ATOM     16  C   UNL     1     110.595 127.482 136.385  0.00  0.00    +0.000 A 
ATOM     17  C   UNL     1     111.646 127.978 135.554  0.00  0.00    +0.000 A 
ATOM     18  C   UNL     1     110.037 127.755 135.843  0.00  0.00    +0.000 A 
ATOM     19  C   UNL     1     111.087 128.251 135.011  0.00  0.00    +0.000 A 
ATOM     20  C   UNL     1     110.283 128.139 135.156  0.00  0.00    +0.000 A 
BRANCH  18  21
ATOM     21  O   UNL     1     109.232 127.643 135.986  0.00  0.00    +0.000 OA
ATOM     22  C   UNL     1     108.967 126.939 136.325  0.00  0.00    +0.000 C 
ENDBRANCH  18  21
ENDBRANCH   6  15
BRANCH  11  23
ATOM     23  O   UNL     1     113.089 125.125 136.393  0.00  0.00    +0.000 OA
ATOM     24  C   UNL     1     112.926 124.320 136.465  0.00  0.00    +0.000 C 
ENDBRANCH  11  23
BRANCH   5  25
ATOM     25  O   UNL     1     111.763 128.495 137.574  0.00  0.00    +0.000 OA
BRANCH  25  32
ATOM     26  O   UNL     1     112.895 129.309 137.259  0.00  0.00    +0.000 OA
ATOM     27  O   UNL     1     112.185 130.956 138.965  0.00  0.00    +0.000 OA
ATOM     28  O   UNL     1     113.552 131.221 138.082  0.00  0.00    +0.000 OA
ATOM     29  C   UNL     1     111.974 129.726 138.270  0.00  0.00    +0.000 C 
ATOM     30  C   UNL     1     112.422 130.407 138.397  0.00  0.00    +0.000 C 
ATOM     31  C   UNL     1     113.105 130.540 137.955  0.00  0.00    +0.000 C 
ATOM     32  C   UNL     1     112.210 129.177 137.702  0.00  0.00    +0.000 C 
ATOM     33  C   UNL     1     113.342 129.991 137.387  0.00  0.00    +0.000 C 
BRANCH  33  35
ATOM     34  O   UNL     1     113.975 130.220 136.126  0.00  0.00    +0.000 OA
ATOM     35  C   UNL     1     114.025 130.123 136.944  0.00  0.00    +0.000 C 
ENDBRANCH  33  35
BRANCH  29  36
ATOM     36  O   UNL     1     111.290 129.593 138.712  0.00  0.00    +0.000 OA
BRANCH  36  41
ATOM     37  O   UNL     1     110.578 130.523 137.893  0.00  0.00    +0.000 OA
ATOM     38  O   UNL     1     109.899 129.251 139.531  0.00  0.00    +0.000 OA
ATOM     39  O   UNL     1     108.493 130.009 139.121  0.00  0.00    +0.000 OA
ATOM     40  O   UNL     1     108.477 131.110 137.892  0.00  0.00    +0.000 OA
ATOM     41  C   UNL     1     110.587 129.972 138.507  0.00  0.00    +0.000 C 
ATOM     42  C   UNL     1     109.891 129.801 138.917  0.00  0.00    +0.000 C 
ATOM     43  C   UNL     1     109.188 130.180 138.712  0.00  0.00    +0.000 C 
ATOM     44  C   UNL     1     109.180 130.731 138.097  0.00  0.00    +0.000 C 
ATOM     45  C   UNL     1     109.875 130.902 137.688  0.00  0.00    +0.000 C 
BRANCH  45  47
ATOM     46  O   UNL     1     109.982 131.205 136.296  0.00  0.00    +0.000 OA
ATOM     47  C   UNL     1     109.868 131.453 137.073  0.00  0.00    +0.000 C 
ENDBRANCH  45  47
ENDBRANCH  36  41
ENDBRANCH  29  36
ENDBRANCH  25  32
ENDBRANCH   5  25
TORSDOF 9
ENDMDL
MODEL 9
REMARK VINA RESULT:      -9.0      1.713      4.106
REMARK  Name = 44259989
REMARK  9 active torsions:
REMARK  status: ('A' for Active; 'I' for Inactive)
REMARK    1  A    between atoms: O_1  and  C_19
REMARK    2  A    between atoms: O_1  and  C_22
REMARK    3  A    between atoms: O_4  and  C_24
REMARK    4  A    between atoms: O_4  and  C_31
REMARK    5  A    between atoms: O_14  and  C_38
REMARK    6  A    between atoms: O_17  and  C_43
REMARK    7  A    between atoms: C_25  and  C_29
REMARK    8  A    between atoms: C_28  and  C_30
REMARK    9  A    between atoms: C_32  and  C_36
REMARK                            x       y       z     vdW  Elec       q    Type
REMARK                         _______ _______ _______ _____ _____    ______ ____
ROOT
ATOM      1  O   UNL     1     112.350 129.424 139.717  0.00  0.00    +0.000 OA
ATOM      2  O   UNL     1     112.845 130.394 137.494  0.00  0.00    +0.000 OA
ATOM      3  O   UNL     1     114.106 130.911 137.968  0.00  0.00    +0.000 OA
ATOM      4  O   UNL     1     114.880 130.437 140.743  0.00  0.00    +0.000 OA
ATOM      5  C   UNL     1     111.976 129.659 138.358  0.00  0.00    +0.000 A 
ATOM      6  C   UNL     1     111.811 129.335 139.099  0.00  0.00    +0.000 A 
ATOM      7  C   UNL     1     112.679 130.071 138.235  0.00  0.00    +0.000 A 
ATOM      8  C   UNL     1     113.219 130.159 138.853  0.00  0.00    +0.000 A 
ATOM      9  C   UNL     1     113.055 129.836 139.594  0.00  0.00    +0.000 A 
ATOM     10  C   UNL     1     113.949 130.591 138.713  0.00  0.00    +0.000 A 
ATOM     11  C   UNL     1     113.608 129.921 140.246  0.00  0.00    +0.000 A 
ATOM     12  C   UNL     1     114.515 130.687 139.352  0.00  0.00    +0.000 A 
ATOM     13  C   UNL     1     114.343 130.350 140.123  0.00  0.00    +0.000 A 
ENDROOT
BRANCH   6  15
ATOM     14  O   UNL     1     108.996 127.685 139.591  0.00  0.00    +0.000 OA
ATOM     15  C   UNL     1     111.108 128.923 139.222  0.00  0.00    +0.000 A 
ATOM     16  C   UNL     1     110.409 129.334 139.376  0.00  0.00    +0.000 A 
ATOM     17  C   UNL     1     111.102 128.099 139.191  0.00  0.00    +0.000 A 
ATOM     18  C   UNL     1     109.706 128.922 139.499  0.00  0.00    +0.000 A 
ATOM     19  C   UNL     1     110.397 127.686 139.315  0.00  0.00    +0.000 A 
ATOM     20  C   UNL     1     109.700 128.098 139.468  0.00  0.00    +0.000 A 
BRANCH  18  21
ATOM     21  O   UNL     1     109.007 129.334 139.652  0.00  0.00    +0.000 OA
ATOM     22  C   UNL     1     109.038 130.088 139.985  0.00  0.00    +0.000 C 
ENDBRANCH  18  21
ENDBRANCH   6  15
BRANCH  11  23
ATOM     23  O   UNL     1     113.435 129.595 140.983  0.00  0.00    +0.000 OA
ATOM     24  C   UNL     1     113.353 130.084 141.642  0.00  0.00    +0.000 C 
ENDBRANCH  11  23
BRANCH   5  25
ATOM     25  O   UNL     1     111.437 129.570 137.740  0.00  0.00    +0.000 OA
BRANCH  25  32
ATOM     26  O   UNL     1     112.206 128.613 137.008  0.00  0.00    +0.000 OA
ATOM     27  O   UNL     1     111.375 129.571 134.883  0.00  0.00    +0.000 OA
ATOM     28  O   UNL     1     112.421 128.296 134.860  0.00  0.00    +0.000 OA
ATOM     29  C   UNL     1     111.405 129.571 136.311  0.00  0.00    +0.000 C 
ATOM     30  C   UNL     1     111.652 129.252 135.591  0.00  0.00    +0.000 C 
ATOM     31  C   UNL     1     112.175 128.614 135.580  0.00  0.00    +0.000 C 
ATOM     32  C   UNL     1     111.682 129.252 137.020  0.00  0.00    +0.000 C 
ATOM     33  C   UNL     1     112.452 128.295 136.288  0.00  0.00    +0.000 C 
BRANCH  33  35
ATOM     34  O   UNL     1     112.761 126.943 136.633  0.00  0.00    +0.000 OA
ATOM     35  C   UNL     1     112.975 127.658 136.277  0.00  0.00    +0.000 C 
ENDBRANCH  33  35
BRANCH  29  36
ATOM     36  O   UNL     1     110.883 130.208 136.323  0.00  0.00    +0.000 OA
BRANCH  36  41
ATOM     37  O   UNL     1     109.795 129.323 136.049  0.00  0.00    +0.000 OA
ATOM     38  O   UNL     1     109.825 131.469 136.449  0.00  0.00    +0.000 OA
ATOM     39  O   UNL     1     108.209 131.213 136.237  0.00  0.00    +0.000 OA
ATOM     40  O   UNL     1     107.650 129.698 135.900  0.00  0.00    +0.000 OA
ATOM     41  C   UNL     1     110.074 130.081 136.217  0.00  0.00    +0.000 C 
ATOM     42  C   UNL     1     109.545 130.711 136.280  0.00  0.00    +0.000 C 
ATOM     43  C   UNL     1     108.737 130.584 136.174  0.00  0.00    +0.000 C 
ATOM     44  C   UNL     1     108.458 129.825 136.005  0.00  0.00    +0.000 C 
ATOM     45  C   UNL     1     108.986 129.196 135.943  0.00  0.00    +0.000 C 
BRANCH  45  47
ATOM     46  O   UNL     1     108.680 127.866 136.368  0.00  0.00    +0.000 OA
ATOM     47  C   UNL     1     108.708 128.438 135.774  0.00  0.00    +0.000 C 
ENDBRANCH  45  47
ENDBRANCH  36  41
ENDBRANCH  29  36
ENDBRANCH  25  32
ENDBRANCH   5  25
TORSDOF 9
ENDMDL
MODEL 10
REMARK VINA RESULT:      -9.0      1.586      4.070
REMARK  Name = 44259989
REMARK  9 active torsions:
REMARK  status: ('A' for Active; 'I' for Inactive)
REMARK    1  A    between atoms: O_1  and  C_19
REMARK    2  A    between atoms: O_1  and  C_22
REMARK    3  A    between atoms: O_4  and  C_24
REMARK    4  A    between atoms: O_4  and  C_31
REMARK    5  A    between atoms: O_14  and  C_38
REMARK    6  A    between atoms: O_17  and  C_43
REMARK    7  A    between atoms: C_25  and  C_29
REMARK    8  A    between atoms: C_28  and  C_30
REMARK    9  A    between atoms: C_32  and  C_36
REMARK                            x       y       z     vdW  Elec       q    Type
REMARK                         _______ _______ _______ _____ _____    ______ ____
ROOT
ATOM      1  O   UNL     1     113.355 128.541 136.349  0.00  0.00    +0.000 OA
ATOM      2  O   UNL     1     112.301 129.924 138.110  0.00  0.00    +0.000 OA
ATOM      3  O   UNL     1     113.145 131.046 137.775  0.00  0.00    +0.000 OA
ATOM      4  O   UNL     1     115.091 130.762 135.617  0.00  0.00    +0.000 OA
ATOM      5  C   UNL     1     112.404 128.685 137.406  0.00  0.00    +0.000 A 
ATOM      6  C   UNL     1     112.755 128.224 136.818  0.00  0.00    +0.000 A 
ATOM      7  C   UNL     1     112.652 129.463 137.523  0.00  0.00    +0.000 A 
ATOM      8  C   UNL     1     113.252 129.780 137.053  0.00  0.00    +0.000 A 
ATOM      9  C   UNL     1     113.603 129.320 136.466  0.00  0.00    +0.000 A 
ATOM     10  C   UNL     1     113.502 130.592 137.185  0.00  0.00    +0.000 A 
ATOM     11  C   UNL     1     114.228 129.638 135.970  0.00  0.00    +0.000 A 
ATOM     12  C   UNL     1     114.126 130.927 136.699  0.00  0.00    +0.000 A 
ATOM     13  C   UNL     1     114.491 130.447 136.088  0.00  0.00    +0.000 A 
ENDROOT
BRANCH   6  15
ATOM     14  O   UNL     1     111.762 125.112 136.347  0.00  0.00    +0.000 OA
ATOM     15  C   UNL     1     112.507 127.447 136.701  0.00  0.00    +0.000 A 
ATOM     16  C   UNL     1     112.804 126.842 137.177  0.00  0.00    +0.000 A 
ATOM     17  C   UNL     1     111.962 127.273 136.107  0.00  0.00    +0.000 A 
ATOM     18  C   UNL     1     112.556 126.064 137.059  0.00  0.00    +0.000 A 
ATOM     19  C   UNL     1     111.713 126.495 135.989  0.00  0.00    +0.000 A 
ATOM     20  C   UNL     1     112.011 125.891 136.465  0.00  0.00    +0.000 A 
BRANCH  18  21
ATOM     21  O   UNL     1     112.853 125.459 137.536  0.00  0.00    +0.000 OA
ATOM     22  C   UNL     1     113.613 125.518 137.850  0.00  0.00    +0.000 C 
ENDBRANCH  18  21
ENDBRANCH   6  15
BRANCH  11  23
ATOM     23  O   UNL     1     114.574 129.170 135.385  0.00  0.00    +0.000 OA
ATOM     24  C   UNL     1     114.633 129.453 134.613  0.00  0.00    +0.000 C 
ENDBRANCH  11  23
BRANCH   5  25
ATOM     25  O   UNL     1     111.805 128.368 137.875  0.00  0.00    +0.000 OA
BRANCH  25  32
ATOM     26  O   UNL     1     110.739 129.099 137.266  0.00  0.00    +0.000 OA
ATOM     27  O   UNL     1     109.579 129.229 139.448  0.00  0.00    +0.000 OA
ATOM     28  O   UNL     1     108.900 129.916 138.112  0.00  0.00    +0.000 OA
ATOM     29  C   UNL     1     110.692 128.798 138.662  0.00  0.00    +0.000 C 
ATOM     30  C   UNL     1     109.966 129.185 138.721  0.00  0.00    +0.000 C 
ATOM     31  C   UNL     1     109.626 129.529 138.053  0.00  0.00    +0.000 C 
ATOM     32  C   UNL     1     111.078 128.755 137.935  0.00  0.00    +0.000 C 
ATOM     33  C   UNL     1     110.012 129.486 137.325  0.00  0.00    +0.000 C 
BRANCH  33  35
ATOM     34  O   UNL     1     109.473 129.359 136.008  0.00  0.00    +0.000 OA
ATOM     35  C   UNL     1     109.673 129.830 136.656  0.00  0.00    +0.000 C 
ENDBRANCH  33  35
BRANCH  29  36
ATOM     36  O   UNL     1     111.032 128.455 139.330  0.00  0.00    +0.000 OA
BRANCH  36  41
ATOM     37  O   UNL     1     110.134 127.348 139.221  0.00  0.00    +0.000 OA
ATOM     38  O   UNL     1     111.803 127.705 140.581  0.00  0.00    +0.000 OA
ATOM     39  O   UNL     1     111.292 126.223 141.097  0.00  0.00    +0.000 OA
ATOM     40  O   UNL     1     110.009 125.491 140.361  0.00  0.00    +0.000 OA
ATOM     41  C   UNL     1     110.776 127.714 139.588  0.00  0.00    +0.000 C 
ATOM     42  C   UNL     1     111.162 127.338 140.214  0.00  0.00    +0.000 C 
ATOM     43  C   UNL     1     110.906 126.598 140.472  0.00  0.00    +0.000 C 
ATOM     44  C   UNL     1     110.264 126.232 140.104  0.00  0.00    +0.000 C 
ATOM     45  C   UNL     1     109.879 126.607 139.479  0.00  0.00    +0.000 C 
BRANCH  45  47
ATOM     46  O   UNL     1     109.236 126.133 138.294  0.00  0.00    +0.000 OA
ATOM     47  C   UNL     1     109.237 126.241 139.111  0.00  0.00    +0.000 C 
ENDBRANCH  45  47
ENDBRANCH  36  41
ENDBRANCH  29  36
ENDBRANCH  25  32
ENDBRANCH   5  25
TORSDOF 9
ENDMDL
