MODEL 1
REMARK VINA RESULT:      -7.5      0.000      0.000
REMARK  Name = 44259901
REMARK  7 active torsions:
REMARK  status: ('A' for Active; 'I' for Inactive)
REMARK    1  A    between atoms: O_2  and  C_14
REMARK    2  A    between atoms: O_3  and  C_18
REMARK    3  A    between atoms: O_4  and  C_19
REMARK    4  A    between atoms: O_5  and  C_20
REMARK    5  A    between atoms: O_7  and  C_22
REMARK    6  A    between atoms: O_9  and  C_24
REMARK    7  A    between atoms: C_11  and  C_13
REMARK                            x       y       z     vdW  Elec       q    Type
REMARK                         _______ _______ _______ _____ _____    ______ ____
ROOT
ATOM      1  O   UNL     1     113.258 127.327 136.208  0.00  0.00    +0.000 OA
ATOM      2  O   UNL     1     113.227 129.712 137.839  0.00  0.00    +0.000 OA
ATOM      3  O   UNL     1     112.578 128.501 138.278  0.00  0.00    +0.000 OA
ATOM      4  C   UNL     1     113.244 128.506 137.013  0.00  0.00    +0.000 A 
ATOM      5  C   UNL     1     112.819 126.929 136.782  0.00  0.00    +0.000 A 
ATOM      6  C   UNL     1     113.470 128.115 136.323  0.00  0.00    +0.000 A 
ATOM      7  C   UNL     1     112.592 127.320 137.472  0.00  0.00    +0.000 A 
ATOM      8  C   UNL     1     112.805 128.110 137.588  0.00  0.00    +0.000 A 
ATOM      9  C   UNL     1     113.459 129.329 137.146  0.00  0.00    +0.000 A 
ATOM     10  C   UNL     1     113.928 128.518 135.718  0.00  0.00    +0.000 A 
ATOM     11  C   UNL     1     113.916 129.748 136.552  0.00  0.00    +0.000 A 
ATOM     12  C   UNL     1     114.152 129.340 135.832  0.00  0.00    +0.000 A 
ENDROOT
BRANCH   5  13
ATOM     13  C   UNL     1     112.607 126.141 136.667  0.00  0.00    +0.000 A 
ATOM     14  C   UNL     1     113.146 125.539 136.836  0.00  0.00    +0.000 A 
ATOM     15  C   UNL     1     111.855 125.952 136.383  0.00  0.00    +0.000 A 
ATOM     16  C   UNL     1     111.643 125.164 136.268  0.00  0.00    +0.000 A 
ATOM     17  C   UNL     1     112.934 124.750 136.720  0.00  0.00    +0.000 A 
ATOM     18  C   UNL     1     112.182 124.563 136.436  0.00  0.00    +0.000 A 
BRANCH  14  19
ATOM     19  O   UNL     1     113.898 125.726 137.119  0.00  0.00    +0.000 OA
ATOM     20  C   UNL     1     114.467 125.136 137.200  0.00  0.00    +0.000 C 
ENDBRANCH  14  19
BRANCH  16  21
ATOM     21  O   UNL     1     110.891 124.976 135.984  0.00  0.00    +0.000 OA
ATOM     22  C   UNL     1     110.528 125.459 135.423  0.00  0.00    +0.000 C 
ENDBRANCH  16  21
BRANCH  18  23
ATOM     23  O   UNL     1     111.970 123.773 136.321  0.00  0.00    +0.000 OA
ATOM     24  C   UNL     1     112.103 123.219 136.917  0.00  0.00    +0.000 C 
ENDBRANCH  18  23
ENDBRANCH   5  13
BRANCH   7  25
ATOM     25  O   UNL     1     112.153 126.923 138.047  0.00  0.00    +0.000 OA
ATOM     26  C   UNL     1     111.729 127.351 138.611  0.00  0.00    +0.000 C 
ENDBRANCH   7  25
BRANCH  11  27
ATOM     27  O   UNL     1     114.127 130.536 136.670  0.00  0.00    +0.000 OA
ATOM     28  C   UNL     1     113.569 131.134 136.556  0.00  0.00    +0.000 C 
ENDBRANCH  11  27
BRANCH  12  29
ATOM     29  O   UNL     1     114.591 129.735 135.256  0.00  0.00    +0.000 OA
ATOM     30  C   UNL     1     114.913 129.315 134.623  0.00  0.00    +0.000 C 
ENDBRANCH  12  29
TORSDOF 7
ENDMDL
MODEL 2
REMARK VINA RESULT:      -7.4      0.877      4.691
REMARK  Name = 44259901
REMARK  7 active torsions:
REMARK  status: ('A' for Active; 'I' for Inactive)
REMARK    1  A    between atoms: O_2  and  C_14
REMARK    2  A    between atoms: O_3  and  C_18
REMARK    3  A    between atoms: O_4  and  C_19
REMARK    4  A    between atoms: O_5  and  C_20
REMARK    5  A    between atoms: O_7  and  C_22
REMARK    6  A    between atoms: O_9  and  C_24
REMARK    7  A    between atoms: C_11  and  C_13
REMARK                            x       y       z     vdW  Elec       q    Type
REMARK                         _______ _______ _______ _____ _____    ______ ____
ROOT
ATOM      1  O   UNL     1     113.493 127.091 136.659  0.00  0.00    +0.000 OA
ATOM      2  O   UNL     1     111.497 125.137 135.920  0.00  0.00    +0.000 OA
ATOM      3  O   UNL     1     111.291 126.543 135.672  0.00  0.00    +0.000 OA
ATOM      4  C   UNL     1     112.507 126.124 136.294  0.00  0.00    +0.000 A 
ATOM      5  C   UNL     1     113.012 127.694 136.366  0.00  0.00    +0.000 A 
ATOM      6  C   UNL     1     113.241 126.307 136.624  0.00  0.00    +0.000 A 
ATOM      7  C   UNL     1     112.278 127.511 136.037  0.00  0.00    +0.000 A 
ATOM      8  C   UNL     1     112.025 126.725 136.001  0.00  0.00    +0.000 A 
ATOM      9  C   UNL     1     112.233 125.310 136.251  0.00  0.00    +0.000 A 
ATOM     10  C   UNL     1     113.752 125.688 136.933  0.00  0.00    +0.000 A 
ATOM     11  C   UNL     1     112.730 124.679 136.555  0.00  0.00    +0.000 A 
ATOM     12  C   UNL     1     113.495 124.870 136.898  0.00  0.00    +0.000 A 
ENDROOT
BRANCH   5  13
ATOM     13  C   UNL     1     113.263 128.478 136.401  0.00  0.00    +0.000 A 
ATOM     14  C   UNL     1     113.179 128.906 137.101  0.00  0.00    +0.000 A 
ATOM     15  C   UNL     1     113.600 128.834 135.738  0.00  0.00    +0.000 A 
ATOM     16  C   UNL     1     113.852 129.618 135.773  0.00  0.00    +0.000 A 
ATOM     17  C   UNL     1     113.431 129.692 137.137  0.00  0.00    +0.000 A 
ATOM     18  C   UNL     1     113.767 130.047 136.473  0.00  0.00    +0.000 A 
BRANCH  14  19
ATOM     19  O   UNL     1     112.843 128.551 137.765  0.00  0.00    +0.000 OA
ATOM     20  C   UNL     1     112.861 128.937 138.493  0.00  0.00    +0.000 C 
ENDBRANCH  14  19
BRANCH  16  21
ATOM     21  O   UNL     1     114.188 129.975 135.110  0.00  0.00    +0.000 OA
ATOM     22  C   UNL     1     114.681 129.540 134.612  0.00  0.00    +0.000 C 
ENDBRANCH  16  21
BRANCH  18  23
ATOM     23  O   UNL     1     114.020 130.833 136.509  0.00  0.00    +0.000 OA
ATOM     24  C   UNL     1     113.561 131.395 136.899  0.00  0.00    +0.000 C 
ENDBRANCH  18  23
ENDBRANCH   5  13
BRANCH   7  25
ATOM     25  O   UNL     1     111.795 128.112 135.743  0.00  0.00    +0.000 OA
ATOM     26  C   UNL     1     111.217 127.940 135.181  0.00  0.00    +0.000 C 
ENDBRANCH   7  25
BRANCH  11  27
ATOM     27  O   UNL     1     112.475 123.895 136.518  0.00  0.00    +0.000 OA
ATOM     28  C   UNL     1     111.953 123.604 137.086  0.00  0.00    +0.000 C 
ENDBRANCH  11  27
BRANCH  12  29
ATOM     29  O   UNL     1     113.979 124.270 137.193  0.00  0.00    +0.000 OA
ATOM     30  C   UNL     1     114.755 124.438 137.415  0.00  0.00    +0.000 C 
ENDBRANCH  12  29
TORSDOF 7
ENDMDL
MODEL 3
REMARK VINA RESULT:      -7.4      8.503     10.765
REMARK  Name = 44259901
REMARK  7 active torsions:
REMARK  status: ('A' for Active; 'I' for Inactive)
REMARK    1  A    between atoms: O_2  and  C_14
REMARK    2  A    between atoms: O_3  and  C_18
REMARK    3  A    between atoms: O_4  and  C_19
REMARK    4  A    between atoms: O_5  and  C_20
REMARK    5  A    between atoms: O_7  and  C_22
REMARK    6  A    between atoms: O_9  and  C_24
REMARK    7  A    between atoms: C_11  and  C_13
REMARK                            x       y       z     vdW  Elec       q    Type
REMARK                         _______ _______ _______ _____ _____    ______ ____
ROOT
ATOM      1  O   UNL     1     111.523 131.771 145.260  0.00  0.00    +0.000 OA
ATOM      2  O   UNL     1     111.904 132.449 142.477  0.00  0.00    +0.000 OA
ATOM      3  O   UNL     1     111.870 133.471 143.495  0.00  0.00    +0.000 OA
ATOM      4  C   UNL     1     111.711 132.105 143.884  0.00  0.00    +0.000 A 
ATOM      5  C   UNL     1     111.566 132.570 145.461  0.00  0.00    +0.000 A 
ATOM      6  C   UNL     1     111.596 131.538 144.473  0.00  0.00    +0.000 A 
ATOM      7  C   UNL     1     111.682 133.137 144.872  0.00  0.00    +0.000 A 
ATOM      8  C   UNL     1     111.755 132.904 144.083  0.00  0.00    +0.000 A 
ATOM      9  C   UNL     1     111.789 131.875 143.059  0.00  0.00    +0.000 A 
ATOM     10  C   UNL     1     111.549 130.702 144.277  0.00  0.00    +0.000 A 
ATOM     11  C   UNL     1     111.745 131.045 142.845  0.00  0.00    +0.000 A 
ATOM     12  C   UNL     1     111.624 130.454 143.458  0.00  0.00    +0.000 A 
ENDROOT
BRANCH   5  13
ATOM     13  C   UNL     1     111.494 132.803 146.248  0.00  0.00    +0.000 A 
ATOM     14  C   UNL     1     112.125 132.698 146.769  0.00  0.00    +0.000 A 
ATOM     15  C   UNL     1     110.790 133.141 146.516  0.00  0.00    +0.000 A 
ATOM     16  C   UNL     1     110.717 133.373 147.304  0.00  0.00    +0.000 A 
ATOM     17  C   UNL     1     112.052 132.931 147.558  0.00  0.00    +0.000 A 
ATOM     18  C   UNL     1     111.349 133.268 147.825  0.00  0.00    +0.000 A 
BRANCH  14  19
ATOM     19  O   UNL     1     112.828 132.360 146.502  0.00  0.00    +0.000 OA
ATOM     20  C   UNL     1     113.438 132.203 147.034  0.00  0.00    +0.000 C 
ENDBRANCH  14  19
BRANCH  16  21
ATOM     21  O   UNL     1     110.014 133.711 147.572  0.00  0.00    +0.000 OA
ATOM     22  C   UNL     1     109.290 133.445 147.280  0.00  0.00    +0.000 C 
ENDBRANCH  16  21
BRANCH  18  23
ATOM     23  O   UNL     1     111.276 133.501 148.613  0.00  0.00    +0.000 OA
ATOM     24  C   UNL     1     111.871 133.318 149.154  0.00  0.00    +0.000 C 
ENDBRANCH  18  23
ENDBRANCH   5  13
BRANCH   7  25
ATOM     25  O   UNL     1     111.725 133.936 145.071  0.00  0.00    +0.000 OA
ATOM     26  C   UNL     1     111.800 134.506 144.479  0.00  0.00    +0.000 C 
ENDBRANCH   7  25
BRANCH  11  27
ATOM     27  O   UNL     1     111.818 130.815 142.056  0.00  0.00    +0.000 OA
ATOM     28  C   UNL     1     111.165 130.853 141.553  0.00  0.00    +0.000 C 
ENDBRANCH  11  27
BRANCH  12  29
ATOM     29  O   UNL     1     111.580 129.654 143.261  0.00  0.00    +0.000 OA
ATOM     30  C   UNL     1     111.609 129.081 143.854  0.00  0.00    +0.000 C 
ENDBRANCH  12  29
TORSDOF 7
ENDMDL
MODEL 4
REMARK VINA RESULT:      -7.2     11.856     14.260
REMARK  Name = 44259901
REMARK  7 active torsions:
REMARK  status: ('A' for Active; 'I' for Inactive)
REMARK    1  A    between atoms: O_2  and  C_14
REMARK    2  A    between atoms: O_3  and  C_18
REMARK    3  A    between atoms: O_4  and  C_19
REMARK    4  A    between atoms: O_5  and  C_20
REMARK    5  A    between atoms: O_7  and  C_22
REMARK    6  A    between atoms: O_9  and  C_24
REMARK    7  A    between atoms: C_11  and  C_13
REMARK                            x       y       z     vdW  Elec       q    Type
REMARK                         _______ _______ _______ _____ _____    ______ ____
ROOT
ATOM      1  O   UNL     1     104.162 125.043 147.392  0.00  0.00    +0.000 OA
ATOM      2  O   UNL     1     102.194 123.571 145.871  0.00  0.00    +0.000 OA
ATOM      3  O   UNL     1     103.584 123.573 145.486  0.00  0.00    +0.000 OA
ATOM      4  C   UNL     1     103.188 124.316 146.641  0.00  0.00    +0.000 A 
ATOM      5  C   UNL     1     104.752 124.790 146.873  0.00  0.00    +0.000 A 
ATOM      6  C   UNL     1     103.381 124.806 147.276  0.00  0.00    +0.000 A 
ATOM      7  C   UNL     1     104.559 124.301 146.237  0.00  0.00    +0.000 A 
ATOM      8  C   UNL     1     103.777 124.063 146.121  0.00  0.00    +0.000 A 
ATOM      9  C   UNL     1     102.377 124.061 146.509  0.00  0.00    +0.000 A 
ATOM     10  C   UNL     1     102.776 125.075 147.824  0.00  0.00    +0.000 A 
ATOM     11  C   UNL     1     101.760 124.321 147.046  0.00  0.00    +0.000 A 
ATOM     12  C   UNL     1     101.960 124.832 147.709  0.00  0.00    +0.000 A 
ENDROOT
BRANCH   5  13
ATOM     13  C   UNL     1     105.533 125.027 146.988  0.00  0.00    +0.000 A 
ATOM     14  C   UNL     1     105.979 124.693 147.596  0.00  0.00    +0.000 A 
ATOM     15  C   UNL     1     105.869 125.598 146.496  0.00  0.00    +0.000 A 
ATOM     16  C   UNL     1     106.650 125.835 146.612  0.00  0.00    +0.000 A 
ATOM     17  C   UNL     1     106.761 124.931 147.712  0.00  0.00    +0.000 A 
ATOM     18  C   UNL     1     107.096 125.501 147.220  0.00  0.00    +0.000 A 
BRANCH  14  19
ATOM     19  O   UNL     1     105.644 124.123 148.089  0.00  0.00    +0.000 OA
ATOM     20  C   UNL     1     106.031 123.896 148.780  0.00  0.00    +0.000 C 
ENDBRANCH  14  19
BRANCH  16  21
ATOM     21  O   UNL     1     106.986 126.406 146.120  0.00  0.00    +0.000 OA
ATOM     22  C   UNL     1     106.558 127.082 145.919  0.00  0.00    +0.000 C 
ENDBRANCH  16  21
BRANCH  18  23
ATOM     23  O   UNL     1     107.878 125.738 147.336  0.00  0.00    +0.000 OA
ATOM     24  C   UNL     1     108.409 125.236 147.717  0.00  0.00    +0.000 C 
ENDBRANCH  18  23
ENDBRANCH   5  13
BRANCH   7  25
ATOM     25  O   UNL     1     105.148 124.048 145.717  0.00  0.00    +0.000 OA
ATOM     26  C   UNL     1     104.953 123.836 144.944  0.00  0.00    +0.000 C 
ENDBRANCH   7  25
BRANCH  11  27
ATOM     27  O   UNL     1     100.979 124.082 146.928  0.00  0.00    +0.000 OA
ATOM     28  C   UNL     1     100.733 123.336 147.179  0.00  0.00    +0.000 C 
ENDBRANCH  11  27
BRANCH  12  29
ATOM     29  O   UNL     1     101.373 125.086 148.230  0.00  0.00    +0.000 OA
ATOM     30  C   UNL     1     101.545 125.660 148.796  0.00  0.00    +0.000 C 
ENDBRANCH  12  29
TORSDOF 7
ENDMDL
MODEL 5
REMARK VINA RESULT:      -6.9      2.142      4.749
REMARK  Name = 44259901
REMARK  7 active torsions:
REMARK  status: ('A' for Active; 'I' for Inactive)
REMARK    1  A    between atoms: O_2  and  C_14
REMARK    2  A    between atoms: O_3  and  C_18
REMARK    3  A    between atoms: O_4  and  C_19
REMARK    4  A    between atoms: O_5  and  C_20
REMARK    5  A    between atoms: O_7  and  C_22
REMARK    6  A    between atoms: O_9  and  C_24
REMARK    7  A    between atoms: C_11  and  C_13
REMARK                            x       y       z     vdW  Elec       q    Type
REMARK                         _______ _______ _______ _____ _____    ______ ____
ROOT
ATOM      1  O   UNL     1     113.339 126.875 138.434  0.00  0.00    +0.000 OA
ATOM      2  O   UNL     1     111.505 124.665 138.118  0.00  0.00    +0.000 OA
ATOM      3  O   UNL     1     111.240 125.723 139.062  0.00  0.00    +0.000 OA
ATOM      4  C   UNL     1     112.433 125.782 138.277  0.00  0.00    +0.000 A 
ATOM      5  C   UNL     1     112.847 127.201 139.010  0.00  0.00    +0.000 A 
ATOM      6  C   UNL     1     113.133 126.166 138.068  0.00  0.00    +0.000 A 
ATOM      7  C   UNL     1     112.147 126.817 139.219  0.00  0.00    +0.000 A 
ATOM      8  C   UNL     1     111.940 126.107 138.853  0.00  0.00    +0.000 A 
ATOM      9  C   UNL     1     112.206 125.041 137.903  0.00  0.00    +0.000 A 
ATOM     10  C   UNL     1     113.655 125.836 137.469  0.00  0.00    +0.000 A 
ATOM     11  C   UNL     1     112.716 124.697 137.302  0.00  0.00    +0.000 A 
ATOM     12  C   UNL     1     113.445 125.098 137.084  0.00  0.00    +0.000 A 
ENDROOT
BRANCH   5  13
ATOM     13  C   UNL     1     113.053 127.910 139.376  0.00  0.00    +0.000 A 
ATOM     14  C   UNL     1     113.590 127.910 140.003  0.00  0.00    +0.000 A 
ATOM     15  C   UNL     1     112.723 128.621 139.117  0.00  0.00    +0.000 A 
ATOM     16  C   UNL     1     112.930 129.330 139.483  0.00  0.00    +0.000 A 
ATOM     17  C   UNL     1     113.797 128.620 140.370  0.00  0.00    +0.000 A 
ATOM     18  C   UNL     1     113.466 129.329 140.110  0.00  0.00    +0.000 A 
BRANCH  14  19
ATOM     19  O   UNL     1     113.920 127.200 140.263  0.00  0.00    +0.000 OA
ATOM     20  C   UNL     1     114.523 127.207 140.826  0.00  0.00    +0.000 C 
ENDBRANCH  14  19
BRANCH  16  21
ATOM     21  O   UNL     1     112.600 130.040 139.224  0.00  0.00    +0.000 OA
ATOM     22  C   UNL     1     112.449 130.157 138.422  0.00  0.00    +0.000 C 
ENDBRANCH  16  21
BRANCH  18  23
ATOM     23  O   UNL     1     113.673 130.039 140.477  0.00  0.00    +0.000 OA
ATOM     24  C   UNL     1     113.684 130.090 141.299  0.00  0.00    +0.000 C 
ENDBRANCH  18  23
ENDBRANCH   5  13
BRANCH   7  25
ATOM     25  O   UNL     1     111.654 127.143 139.795  0.00  0.00    +0.000 OA
ATOM     26  C   UNL     1     110.870 126.892 139.857  0.00  0.00    +0.000 C 
ENDBRANCH   7  25
BRANCH  11  27
ATOM     27  O   UNL     1     112.507 123.988 136.938  0.00  0.00    +0.000 OA
ATOM     28  C   UNL     1     111.924 123.980 136.354  0.00  0.00    +0.000 C 
ENDBRANCH  11  27
BRANCH  12  29
ATOM     29  O   UNL     1     113.940 124.774 136.509  0.00  0.00    +0.000 OA
ATOM     30  C   UNL     1     114.696 125.083 136.394  0.00  0.00    +0.000 C 
ENDBRANCH  12  29
TORSDOF 7
ENDMDL
MODEL 6
REMARK VINA RESULT:      -6.9      1.099      4.622
REMARK  Name = 44259901
REMARK  7 active torsions:
REMARK  status: ('A' for Active; 'I' for Inactive)
REMARK    1  A    between atoms: O_2  and  C_14
REMARK    2  A    between atoms: O_3  and  C_18
REMARK    3  A    between atoms: O_4  and  C_19
REMARK    4  A    between atoms: O_5  and  C_20
REMARK    5  A    between atoms: O_7  and  C_22
REMARK    6  A    between atoms: O_9  and  C_24
REMARK    7  A    between atoms: C_11  and  C_13
REMARK                            x       y       z     vdW  Elec       q    Type
REMARK                         _______ _______ _______ _____ _____    ______ ____
ROOT
ATOM      1  O   UNL     1     112.051 127.463 136.699  0.00  0.00    +0.000 OA
ATOM      2  O   UNL     1     112.346 125.046 138.255  0.00  0.00    +0.000 OA
ATOM      3  O   UNL     1     112.932 126.289 138.692  0.00  0.00    +0.000 OA
ATOM      4  C   UNL     1     112.196 126.267 137.467  0.00  0.00    +0.000 A 
ATOM      5  C   UNL     1     112.493 127.877 137.259  0.00  0.00    +0.000 A 
ATOM      6  C   UNL     1     111.902 126.659 136.803  0.00  0.00    +0.000 A 
ATOM      7  C   UNL     1     112.787 127.486 137.924  0.00  0.00    +0.000 A 
ATOM      8  C   UNL     1     112.638 126.680 138.028  0.00  0.00    +0.000 A 
ATOM      9  C   UNL     1     112.048 125.429 137.587  0.00  0.00    +0.000 A 
ATOM     10  C   UNL     1     111.440 126.238 136.212  0.00  0.00    +0.000 A 
ATOM     11  C   UNL     1     111.589 124.993 137.007  0.00  0.00    +0.000 A 
ATOM     12  C   UNL     1     111.283 125.400 136.315  0.00  0.00    +0.000 A 
ENDROOT
BRANCH   5  13
ATOM     13  C   UNL     1     112.642 128.681 137.156  0.00  0.00    +0.000 A 
ATOM     14  C   UNL     1     113.236 128.928 136.639  0.00  0.00    +0.000 A 
ATOM     15  C   UNL     1     112.197 129.240 137.569  0.00  0.00    +0.000 A 
ATOM     16  C   UNL     1     112.345 130.045 137.465  0.00  0.00    +0.000 A 
ATOM     17  C   UNL     1     113.385 129.733 136.535  0.00  0.00    +0.000 A 
ATOM     18  C   UNL     1     112.939 130.291 136.948  0.00  0.00    +0.000 A 
BRANCH  14  19
ATOM     19  O   UNL     1     113.681 128.370 136.225  0.00  0.00    +0.000 OA
ATOM     20  C   UNL     1     114.203 128.613 135.636  0.00  0.00    +0.000 C 
ENDBRANCH  14  19
BRANCH  16  21
ATOM     21  O   UNL     1     111.901 130.604 137.878  0.00  0.00    +0.000 OA
ATOM     22  C   UNL     1     111.097 130.476 138.011  0.00  0.00    +0.000 C 
ENDBRANCH  16  21
BRANCH  18  23
ATOM     23  O   UNL     1     113.088 131.096 136.844  0.00  0.00    +0.000 OA
ATOM     24  C   UNL     1     113.858 131.360 136.714  0.00  0.00    +0.000 C 
ENDBRANCH  18  23
ENDBRANCH   5  13
BRANCH   7  25
ATOM     25  O   UNL     1     113.229 127.899 138.485  0.00  0.00    +0.000 OA
ATOM     26  C   UNL     1     113.298 127.606 139.253  0.00  0.00    +0.000 C 
ENDBRANCH   7  25
BRANCH  11  27
ATOM     27  O   UNL     1     111.441 124.188 137.114  0.00  0.00    +0.000 OA
ATOM     28  C   UNL     1     112.020 123.633 136.917  0.00  0.00    +0.000 C 
ENDBRANCH  11  27
BRANCH  12  29
ATOM     29  O   UNL     1     110.840 124.989 135.753  0.00  0.00    +0.000 OA
ATOM     30  C   UNL     1     110.386 125.403 135.202  0.00  0.00    +0.000 C 
ENDBRANCH  12  29
TORSDOF 7
ENDMDL
MODEL 7
REMARK VINA RESULT:      -6.8     11.143     13.001
REMARK  Name = 44259901
REMARK  7 active torsions:
REMARK  status: ('A' for Active; 'I' for Inactive)
REMARK    1  A    between atoms: O_2  and  C_14
REMARK    2  A    between atoms: O_3  and  C_18
REMARK    3  A    between atoms: O_4  and  C_19
REMARK    4  A    between atoms: O_5  and  C_20
REMARK    5  A    between atoms: O_7  and  C_22
REMARK    6  A    between atoms: O_9  and  C_24
REMARK    7  A    between atoms: C_11  and  C_13
REMARK                            x       y       z     vdW  Elec       q    Type
REMARK                         _______ _______ _______ _____ _____    ______ ____
ROOT
ATOM      1  O   UNL     1     104.591 125.535 145.945  0.00  0.00    +0.000 OA
ATOM      2  O   UNL     1     107.254 126.288 146.775  0.00  0.00    +0.000 OA
ATOM      3  O   UNL     1     106.511 125.277 147.485  0.00  0.00    +0.000 OA
ATOM      4  C   UNL     1     105.908 125.908 146.354  0.00  0.00    +0.000 A 
ATOM      5  C   UNL     1     104.554 124.989 146.563  0.00  0.00    +0.000 A 
ATOM      6  C   UNL     1     105.268 125.994 145.841  0.00  0.00    +0.000 A 
ATOM      7  C   UNL     1     105.194 124.903 147.076  0.00  0.00    +0.000 A 
ATOM      8  C   UNL     1     105.871 125.363 146.972  0.00  0.00    +0.000 A 
ATOM      9  C   UNL     1     106.619 126.381 146.256  0.00  0.00    +0.000 A 
ATOM     10  C   UNL     1     105.294 126.559 145.194  0.00  0.00    +0.000 A 
ATOM     11  C   UNL     1     106.664 126.951 145.615  0.00  0.00    +0.000 A 
ATOM     12  C   UNL     1     105.996 127.041 145.080  0.00  0.00    +0.000 A 
ENDROOT
BRANCH   5  13
ATOM     13  C   UNL     1     103.877 124.529 146.667  0.00  0.00    +0.000 A 
ATOM     14  C   UNL     1     103.767 123.848 146.215  0.00  0.00    +0.000 A 
ATOM     15  C   UNL     1     103.310 124.750 147.224  0.00  0.00    +0.000 A 
ATOM     16  C   UNL     1     102.633 124.290 147.329  0.00  0.00    +0.000 A 
ATOM     17  C   UNL     1     103.090 123.388 146.319  0.00  0.00    +0.000 A 
ATOM     18  C   UNL     1     102.523 123.609 146.876  0.00  0.00    +0.000 A 
BRANCH  14  19
ATOM     19  O   UNL     1     104.334 123.627 145.658  0.00  0.00    +0.000 OA
ATOM     20  C   UNL     1     104.195 122.985 145.160  0.00  0.00    +0.000 C 
ENDBRANCH  14  19
BRANCH  16  21
ATOM     21  O   UNL     1     102.066 124.511 147.886  0.00  0.00    +0.000 OA
ATOM     22  C   UNL     1     101.949 125.307 148.064  0.00  0.00    +0.000 C 
ENDBRANCH  16  21
BRANCH  18  23
ATOM     23  O   UNL     1     101.846 123.149 146.980  0.00  0.00    +0.000 OA
ATOM     24  C   UNL     1     101.521 122.743 146.341  0.00  0.00    +0.000 C 
ENDBRANCH  18  23
ENDBRANCH   5  13
BRANCH   7  25
ATOM     25  O   UNL     1     105.157 124.357 147.694  0.00  0.00    +0.000 OA
ATOM     26  C   UNL     1     105.648 124.445 148.351  0.00  0.00    +0.000 C 
ENDBRANCH   7  25
BRANCH  11  27
ATOM     27  O   UNL     1     107.342 127.410 145.513  0.00  0.00    +0.000 OA
ATOM     28  C   UNL     1     107.443 128.101 145.953  0.00  0.00    +0.000 C 
ENDBRANCH  11  27
BRANCH  12  29
ATOM     29  O   UNL     1     106.031 127.586 144.462  0.00  0.00    +0.000 OA
ATOM     30  C   UNL     1     105.533 127.500 143.809  0.00  0.00    +0.000 C 
ENDBRANCH  12  29
TORSDOF 7
ENDMDL
MODEL 8
REMARK VINA RESULT:      -6.8      3.649      4.538
REMARK  Name = 44259901
REMARK  7 active torsions:
REMARK  status: ('A' for Active; 'I' for Inactive)
REMARK    1  A    between atoms: O_2  and  C_14
REMARK    2  A    between atoms: O_3  and  C_18
REMARK    3  A    between atoms: O_4  and  C_19
REMARK    4  A    between atoms: O_5  and  C_20
REMARK    5  A    between atoms: O_7  and  C_22
REMARK    6  A    between atoms: O_9  and  C_24
REMARK    7  A    between atoms: C_11  and  C_13
REMARK                            x       y       z     vdW  Elec       q    Type
REMARK                         _______ _______ _______ _____ _____    ______ ____
ROOT
ATOM      1  O   UNL     1     110.330 129.835 136.487  0.00  0.00    +0.000 OA
ATOM      2  O   UNL     1     107.566 130.218 135.737  0.00  0.00    +0.000 OA
ATOM      3  O   UNL     1     108.130 128.896 135.853  0.00  0.00    +0.000 OA
ATOM      4  C   UNL     1     108.964 130.026 136.116  0.00  0.00    +0.000 A 
ATOM      5  C   UNL     1     110.231 129.017 136.436  0.00  0.00    +0.000 A 
ATOM      6  C   UNL     1     109.698 130.339 136.328  0.00  0.00    +0.000 A 
ATOM      7  C   UNL     1     109.497 128.704 136.224  0.00  0.00    +0.000 A 
ATOM      8  C   UNL     1     108.863 129.209 136.064  0.00  0.00    +0.000 A 
ATOM      9  C   UNL     1     108.296 130.541 135.947  0.00  0.00    +0.000 A 
ATOM     10  C   UNL     1     109.815 131.189 136.385  0.00  0.00    +0.000 A 
ATOM     11  C   UNL     1     108.395 131.392 135.999  0.00  0.00    +0.000 A 
ATOM     12  C   UNL     1     109.159 131.719 136.220  0.00  0.00    +0.000 A 
ENDROOT
BRANCH   5  13
ATOM     13  C   UNL     1     110.863 128.513 136.595  0.00  0.00    +0.000 A 
ATOM     14  C   UNL     1     111.450 128.395 136.027  0.00  0.00    +0.000 A 
ATOM     15  C   UNL     1     110.911 128.127 137.323  0.00  0.00    +0.000 A 
ATOM     16  C   UNL     1     111.543 127.623 137.482  0.00  0.00    +0.000 A 
ATOM     17  C   UNL     1     112.083 127.890 136.186  0.00  0.00    +0.000 A 
ATOM     18  C   UNL     1     112.129 127.505 136.914  0.00  0.00    +0.000 A 
BRANCH  14  19
ATOM     19  O   UNL     1     111.403 128.781 135.299  0.00  0.00    +0.000 OA
ATOM     20  C   UNL     1     112.040 128.754 134.777  0.00  0.00    +0.000 C 
ENDBRANCH  14  19
BRANCH  16  21
ATOM     21  O   UNL     1     111.590 127.236 138.210  0.00  0.00    +0.000 OA
ATOM     22  C   UNL     1     111.361 127.625 138.899  0.00  0.00    +0.000 C 
ENDBRANCH  16  21
BRANCH  18  23
ATOM     23  O   UNL     1     112.763 127.000 137.073  0.00  0.00    +0.000 OA
ATOM     24  C   UNL     1     113.049 126.499 136.485  0.00  0.00    +0.000 C 
ENDBRANCH  18  23
ENDBRANCH   5  13
BRANCH   7  25
ATOM     25  O   UNL     1     109.396 127.887 136.172  0.00  0.00    +0.000 OA
ATOM     26  C   UNL     1     108.661 127.574 135.967  0.00  0.00    +0.000 C 
ENDBRANCH   7  25
BRANCH  11  27
ATOM     27  O   UNL     1     107.760 131.894 135.839  0.00  0.00    +0.000 OA
ATOM     28  C   UNL     1     107.565 132.076 135.058  0.00  0.00    +0.000 C 
ENDBRANCH  11  27
BRANCH  12  29
ATOM     29  O   UNL     1     109.262 132.535 136.272  0.00  0.00    +0.000 OA
ATOM     30  C   UNL     1     109.965 132.844 136.576  0.00  0.00    +0.000 C 
ENDBRANCH  12  29
TORSDOF 7
ENDMDL
MODEL 9
REMARK VINA RESULT:      -6.8      1.994      4.351
REMARK  Name = 44259901
REMARK  7 active torsions:
REMARK  status: ('A' for Active; 'I' for Inactive)
REMARK    1  A    between atoms: O_2  and  C_14
REMARK    2  A    between atoms: O_3  and  C_18
REMARK    3  A    between atoms: O_4  and  C_19
REMARK    4  A    between atoms: O_5  and  C_20
REMARK    5  A    between atoms: O_7  and  C_22
REMARK    6  A    between atoms: O_9  and  C_24
REMARK    7  A    between atoms: C_11  and  C_13
REMARK                            x       y       z     vdW  Elec       q    Type
REMARK                         _______ _______ _______ _____ _____    ______ ____
ROOT
ATOM      1  O   UNL     1     111.507 126.550 136.687  0.00  0.00    +0.000 OA
ATOM      2  O   UNL     1     114.380 126.365 136.430  0.00  0.00    +0.000 OA
ATOM      3  O   UNL     1     113.705 127.638 136.357  0.00  0.00    +0.000 OA
ATOM      4  C   UNL     1     112.927 126.457 136.560  0.00  0.00    +0.000 A 
ATOM      5  C   UNL     1     111.552 127.368 136.594  0.00  0.00    +0.000 A 
ATOM      6  C   UNL     1     112.194 126.094 136.670  0.00  0.00    +0.000 A 
ATOM      7  C   UNL     1     112.284 127.731 136.484  0.00  0.00    +0.000 A 
ATOM      8  C   UNL     1     112.973 127.275 136.467  0.00  0.00    +0.000 A 
ATOM      9  C   UNL     1     113.651 125.993 136.541  0.00  0.00    +0.000 A 
ATOM     10  C   UNL     1     112.135 125.242 136.768  0.00  0.00    +0.000 A 
ATOM     11  C   UNL     1     113.611 125.141 136.637  0.00  0.00    +0.000 A 
ATOM     12  C   UNL     1     112.847 124.763 136.752  0.00  0.00    +0.000 A 
ENDROOT
BRANCH   5  13
ATOM     13  C   UNL     1     110.865 127.824 136.610  0.00  0.00    +0.000 A 
ATOM     14  C   UNL     1     110.386 127.873 135.940  0.00  0.00    +0.000 A 
ATOM     15  C   UNL     1     110.655 128.231 137.297  0.00  0.00    +0.000 A 
ATOM     16  C   UNL     1     109.968 128.686 137.314  0.00  0.00    +0.000 A 
ATOM     17  C   UNL     1     109.698 128.329 135.957  0.00  0.00    +0.000 A 
ATOM     18  C   UNL     1     109.490 128.735 136.643  0.00  0.00    +0.000 A 
BRANCH  14  19
ATOM     19  O   UNL     1     110.594 127.466 135.253  0.00  0.00    +0.000 OA
ATOM     20  C   UNL     1     110.077 127.447 134.612  0.00  0.00    +0.000 C 
ENDBRANCH  14  19
BRANCH  16  21
ATOM     21  O   UNL     1     109.759 129.093 138.000  0.00  0.00    +0.000 OA
ATOM     22  C   UNL     1     109.918 128.765 138.739  0.00  0.00    +0.000 C 
ENDBRANCH  16  21
BRANCH  18  23
ATOM     23  O   UNL     1     108.802 129.191 136.660  0.00  0.00    +0.000 OA
ATOM     24  C   UNL     1     108.602 129.659 136.012  0.00  0.00    +0.000 C 
ENDBRANCH  18  23
ENDBRANCH   5  13
BRANCH   7  25
ATOM     25  O   UNL     1     112.330 128.549 136.391  0.00  0.00    +0.000 OA
ATOM     26  C   UNL     1     113.060 128.931 136.440  0.00  0.00    +0.000 C 
ENDBRANCH   7  25
BRANCH  11  27
ATOM     27  O   UNL     1     114.300 124.688 136.620  0.00  0.00    +0.000 OA
ATOM     28  C   UNL     1     114.807 124.684 137.271  0.00  0.00    +0.000 C 
ENDBRANCH  11  27
BRANCH  12  29
ATOM     29  O   UNL     1     112.799 123.944 136.845  0.00  0.00    +0.000 OA
ATOM     30  C   UNL     1     112.062 123.575 136.874  0.00  0.00    +0.000 C 
ENDBRANCH  12  29
TORSDOF 7
ENDMDL
MODEL 10
REMARK VINA RESULT:      -6.8      1.991      2.609
REMARK  Name = 44259901
REMARK  7 active torsions:
REMARK  status: ('A' for Active; 'I' for Inactive)
REMARK    1  A    between atoms: O_2  and  C_14
REMARK    2  A    between atoms: O_3  and  C_18
REMARK    3  A    between atoms: O_4  and  C_19
REMARK    4  A    between atoms: O_5  and  C_20
REMARK    5  A    between atoms: O_7  and  C_22
REMARK    6  A    between atoms: O_9  and  C_24
REMARK    7  A    between atoms: C_11  and  C_13
REMARK                            x       y       z     vdW  Elec       q    Type
REMARK                         _______ _______ _______ _____ _____    ______ ____
ROOT
ATOM      1  O   UNL     1     112.874 127.871 138.599  0.00  0.00    +0.000 OA
ATOM      2  O   UNL     1     113.444 129.119 141.142  0.00  0.00    +0.000 OA
ATOM      3  O   UNL     1     112.901 127.785 141.073  0.00  0.00    +0.000 OA
ATOM      4  C   UNL     1     113.156 128.489 139.856  0.00  0.00    +0.000 A 
ATOM      5  C   UNL     1     112.609 127.194 138.991  0.00  0.00    +0.000 A 
ATOM      6  C   UNL     1     113.147 128.518 139.031  0.00  0.00    +0.000 A 
ATOM      7  C   UNL     1     112.618 127.166 139.816  0.00  0.00    +0.000 A 
ATOM      8  C   UNL     1     112.892 127.814 140.248  0.00  0.00    +0.000 A 
ATOM      9  C   UNL     1     113.439 129.157 140.318  0.00  0.00    +0.000 A 
ATOM     10  C   UNL     1     113.420 129.216 138.611  0.00  0.00    +0.000 A 
ATOM     11  C   UNL     1     113.715 129.864 139.915  0.00  0.00    +0.000 A 
ATOM     12  C   UNL     1     113.706 129.893 139.056  0.00  0.00    +0.000 A 
ENDROOT
BRANCH   5  13
ATOM     13  C   UNL     1     112.336 126.547 138.559  0.00  0.00    +0.000 A 
ATOM     14  C   UNL     1     112.873 126.010 138.238  0.00  0.00    +0.000 A 
ATOM     15  C   UNL     1     111.526 126.437 138.448  0.00  0.00    +0.000 A 
ATOM     16  C   UNL     1     111.253 125.790 138.016  0.00  0.00    +0.000 A 
ATOM     17  C   UNL     1     112.600 125.362 137.806  0.00  0.00    +0.000 A 
ATOM     18  C   UNL     1     111.790 125.252 137.695  0.00  0.00    +0.000 A 
BRANCH  14  19
ATOM     19  O   UNL     1     113.683 126.119 138.349  0.00  0.00    +0.000 OA
ATOM     20  C   UNL     1     114.222 125.627 137.966  0.00  0.00    +0.000 C 
ENDBRANCH  14  19
BRANCH  16  21
ATOM     21  O   UNL     1     110.443 125.680 137.905  0.00  0.00    +0.000 OA
ATOM     22  C   UNL     1     109.947 126.331 137.806  0.00  0.00    +0.000 C 
ENDBRANCH  16  21
BRANCH  18  23
ATOM     23  O   UNL     1     111.517 124.604 137.262  0.00  0.00    +0.000 OA
ATOM     24  C   UNL     1     111.961 123.911 137.234  0.00  0.00    +0.000 C 
ENDBRANCH  18  23
ENDBRANCH   5  13
BRANCH   7  25
ATOM     25  O   UNL     1     112.354 126.490 140.208  0.00  0.00    +0.000 OA
ATOM     26  C   UNL     1     112.077 126.545 140.984  0.00  0.00    +0.000 C 
ENDBRANCH   7  25
BRANCH  11  27
ATOM     27  O   UNL     1     113.988 130.510 140.350  0.00  0.00    +0.000 OA
ATOM     28  C   UNL     1     114.770 130.530 140.612  0.00  0.00    +0.000 C 
ENDBRANCH  11  27
BRANCH  12  29
ATOM     29  O   UNL     1     113.970 130.568 138.661  0.00  0.00    +0.000 OA
ATOM     30  C   UNL     1     113.838 130.650 137.851  0.00  0.00    +0.000 C 
ENDBRANCH  12  29
TORSDOF 7
ENDMDL
