MODEL 1
REMARK VINA RESULT:     -10.6      0.000      0.000
REMARK  Name = 131752462
REMARK  16 active torsions:
REMARK  status: ('A' for Active; 'I' for Inactive)
REMARK    1  A    between atoms: O_1  and  C_26
REMARK    2  A    between atoms: O_1  and  C_29
REMARK    3  A    between atoms: O_4  and  C_31
REMARK    4  A    between atoms: O_4  and  C_43
REMARK    5  A    between atoms: O_13  and  C_42
REMARK    6  A    between atoms: O_13  and  C_47
REMARK    7  A    between atoms: O_14  and  C_40
REMARK    8  A    between atoms: O_14  and  C_53
REMARK    9  A    between atoms: O_23  and  C_65
REMARK   10  A    between atoms: O_24  and  C_66
REMARK   11  A    between atoms: C_32  and  C_36
REMARK   12  A    between atoms: C_35  and  C_37
REMARK   13  A    between atoms: C_41  and  C_44
REMARK   14  A    between atoms: C_52  and  C_54
REMARK   15  A    between atoms: C_53  and  C_55
REMARK   16  A    between atoms: C_58  and  C_62
REMARK                            x       y       z     vdW  Elec       q    Type
REMARK                         _______ _______ _______ _____ _____    ______ ____
ROOT
ATOM      1  O   UNL     1     108.233 125.594 140.528  0.00  0.00    +0.000 OA
ATOM      2  O   UNL     1     109.896 127.431 142.015  0.00  0.00    +0.000 OA
ATOM      3  O   UNL     1     108.615 127.006 142.526  0.00  0.00    +0.000 OA
ATOM      4  C   UNL     1     110.241 126.444 140.034  0.00  0.00    +0.000 A 
ATOM      5  C   UNL     1     109.513 125.990 139.969  0.00  0.00    +0.000 A 
ATOM      6  C   UNL     1     110.373 126.934 140.728  0.00  0.00    +0.000 A 
ATOM      7  C   UNL     1     107.792 126.098 141.791  0.00  0.00    +0.000 A 
ATOM      8  C   UNL     1     108.929 126.032 140.597  0.00  0.00    +0.000 A 
ATOM      9  C   UNL     1     109.056 126.503 141.262  0.00  0.00    +0.000 A 
ATOM     10  C   UNL     1     109.777 126.963 141.346  0.00  0.00    +0.000 A 
ATOM     11  C   UNL     1     108.488 126.536 141.859  0.00  0.00    +0.000 A 
ATOM     12  C   UNL     1     107.665 125.627 141.125  0.00  0.00    +0.000 A 
ENDROOT
BRANCH  12  14
ATOM     13  O   UNL     1     104.881 123.877 140.847  0.00  0.00    +0.000 OA
ATOM     14  C   UNL     1     106.969 125.189 141.056  0.00  0.00    +0.000 A 
ATOM     15  C   UNL     1     106.343 125.480 140.604  0.00  0.00    +0.000 A 
ATOM     16  C   UNL     1     106.900 124.461 141.438  0.00  0.00    +0.000 A 
ATOM     17  C   UNL     1     105.647 125.042 140.535  0.00  0.00    +0.000 A 
ATOM     18  C   UNL     1     106.204 124.024 141.368  0.00  0.00    +0.000 A 
ATOM     19  C   UNL     1     105.577 124.314 140.917  0.00  0.00    +0.000 A 
ENDBRANCH  12  14
BRANCH   7  20
ATOM     20  O   UNL     1     107.224 126.130 142.388  0.00  0.00    +0.000 OA
BRANCH  20  28
ATOM     21  O   UNL     1     106.799 127.457 142.071  0.00  0.00    +0.000 OA
ATOM     22  O   UNL     1     106.227 127.842 144.448  0.00  0.00    +0.000 OA
ATOM     23  O   UNL     1     105.993 129.041 143.338  0.00  0.00    +0.000 OA
ATOM     24  C   UNL     1     106.418 127.714 143.655  0.00  0.00    +0.000 C 
ATOM     25  C   UNL     1     106.301 128.313 143.101  0.00  0.00    +0.000 C 
ATOM     26  C   UNL     1     106.725 126.986 143.418  0.00  0.00    +0.000 C 
ATOM     27  C   UNL     1     106.492 128.185 142.309  0.00  0.00    +0.000 C 
ATOM     28  C   UNL     1     106.916 126.857 142.625  0.00  0.00    +0.000 C 
BRANCH  27  30
ATOM     29  O   UNL     1     105.769 128.720 141.198  0.00  0.00    +0.000 OA
ATOM     30  C   UNL     1     106.375 128.784 141.754  0.00  0.00    +0.000 C 
ENDBRANCH  27  30
BRANCH  26  31
ATOM     31  O   UNL     1     106.842 126.387 143.973  0.00  0.00    +0.000 OA
BRANCH  31  33
ATOM     32  O   UNL     1     105.506 125.879 143.989  0.00  0.00    +0.000 OA
ATOM     33  C   UNL     1     106.200 126.079 144.389  0.00  0.00    +0.000 C 
BRANCH  33  34
ATOM     34  C   UNL     1     106.250 125.972 145.206  0.00  0.00    +0.000 C 
ATOM     35  C   UNL     1     106.156 125.220 145.530  0.00  0.00    +0.000 C 
BRANCH  35  37
ATOM     36  O   UNL     1     106.358 124.792 148.797  0.00  0.00    +0.000 OA
ATOM     37  C   UNL     1     106.207 125.113 146.346  0.00  0.00    +0.000 A 
ATOM     38  C   UNL     1     106.909 125.288 146.744  0.00  0.00    +0.000 A 
ATOM     39  C   UNL     1     105.555 124.830 146.766  0.00  0.00    +0.000 A 
ATOM     40  C   UNL     1     105.606 124.723 147.583  0.00  0.00    +0.000 A 
ATOM     41  C   UNL     1     106.959 125.181 147.560  0.00  0.00    +0.000 A 
ATOM     42  C   UNL     1     106.308 124.899 147.979  0.00  0.00    +0.000 A 
BRANCH  41  43
ATOM     43  O   UNL     1     107.661 125.357 147.956  0.00  0.00    +0.000 OA
ATOM     44  C   UNL     1     108.368 125.006 147.717  0.00  0.00    +0.000 C 
ENDBRANCH  41  43
BRANCH  40  45
ATOM     45  O   UNL     1     104.955 124.440 148.003  0.00  0.00    +0.000 OA
ATOM     46  C   UNL     1     104.191 124.587 147.728  0.00  0.00    +0.000 C 
ENDBRANCH  40  45
ENDBRANCH  35  37
ENDBRANCH  33  34
ENDBRANCH  31  33
ENDBRANCH  26  31
ENDBRANCH  20  28
ENDBRANCH   7  20
BRANCH   4  47
ATOM     47  O   UNL     1     110.807 126.409 139.436  0.00  0.00    +0.000 OA
BRANCH  47  54
ATOM     48  O   UNL     1     110.253 127.488 138.680  0.00  0.00    +0.000 OA
ATOM     49  O   UNL     1     112.518 128.094 137.884  0.00  0.00    +0.000 OA
ATOM     50  O   UNL     1     111.209 128.970 137.394  0.00  0.00    +0.000 OA
ATOM     51  C   UNL     1     111.662 127.251 138.661  0.00  0.00    +0.000 C 
ATOM     52  C   UNL     1     111.763 127.892 138.150  0.00  0.00    +0.000 C 
ATOM     53  C   UNL     1     111.108 128.330 137.905  0.00  0.00    +0.000 C 
ATOM     54  C   UNL     1     110.908 127.049 138.926  0.00  0.00    +0.000 C 
ATOM     55  C   UNL     1     110.354 128.128 138.170  0.00  0.00    +0.000 C 
BRANCH  55  57
ATOM     56  O   UNL     1     109.122 128.216 137.450  0.00  0.00    +0.000 OA
ATOM     57  C   UNL     1     109.700 128.566 137.924  0.00  0.00    +0.000 C 
ENDBRANCH  55  57
BRANCH  51  58
ATOM     58  O   UNL     1     112.317 126.813 138.906  0.00  0.00    +0.000 OA
BRANCH  58  63
ATOM     59  O   UNL     1     112.186 125.900 137.813  0.00  0.00    +0.000 OA
ATOM     60  O   UNL     1     113.901 126.383 139.074  0.00  0.00    +0.000 OA
ATOM     61  O   UNL     1     114.562 125.255 138.067  0.00  0.00    +0.000 OA
ATOM     62  O   UNL     1     113.638 124.558 136.891  0.00  0.00    +0.000 OA
ATOM     63  C   UNL     1     112.647 126.249 138.401  0.00  0.00    +0.000 C 
ATOM     64  C   UNL     1     113.439 126.034 138.486  0.00  0.00    +0.000 C 
ATOM     65  C   UNL     1     113.770 125.470 137.982  0.00  0.00    +0.000 C 
ATOM     66  C   UNL     1     113.308 125.121 137.394  0.00  0.00    +0.000 C 
ATOM     67  C   UNL     1     112.516 125.337 137.310  0.00  0.00    +0.000 C 
BRANCH  67  69
ATOM     68  O   UNL     1     111.416 124.507 136.929  0.00  0.00    +0.000 OA
ATOM     69  C   UNL     1     112.054 124.988 136.722  0.00  0.00    +0.000 C 
ENDBRANCH  67  69
ENDBRANCH  58  63
ENDBRANCH  51  58
ENDBRANCH  47  54
ENDBRANCH   4  47
TORSDOF 16
ENDMDL
MODEL 2
REMARK VINA RESULT:     -10.5      1.994      9.011
REMARK  Name = 131752462
REMARK  16 active torsions:
REMARK  status: ('A' for Active; 'I' for Inactive)
REMARK    1  A    between atoms: O_1  and  C_26
REMARK    2  A    between atoms: O_1  and  C_29
REMARK    3  A    between atoms: O_4  and  C_31
REMARK    4  A    between atoms: O_4  and  C_43
REMARK    5  A    between atoms: O_13  and  C_42
REMARK    6  A    between atoms: O_13  and  C_47
REMARK    7  A    between atoms: O_14  and  C_40
REMARK    8  A    between atoms: O_14  and  C_53
REMARK    9  A    between atoms: O_23  and  C_65
REMARK   10  A    between atoms: O_24  and  C_66
REMARK   11  A    between atoms: C_32  and  C_36
REMARK   12  A    between atoms: C_35  and  C_37
REMARK   13  A    between atoms: C_41  and  C_44
REMARK   14  A    between atoms: C_52  and  C_54
REMARK   15  A    between atoms: C_53  and  C_55
REMARK   16  A    between atoms: C_58  and  C_62
REMARK                            x       y       z     vdW  Elec       q    Type
REMARK                         _______ _______ _______ _____ _____    ______ ____
ROOT
ATOM      1  O   UNL     1     109.263 126.793 138.538  0.00  0.00    +0.000 OA
ATOM      2  O   UNL     1     111.052 126.203 140.728  0.00  0.00    +0.000 OA
ATOM      3  O   UNL     1     111.560 126.495 139.410  0.00  0.00    +0.000 OA
ATOM      4  C   UNL     1     108.815 126.306 140.673  0.00  0.00    +0.000 A 
ATOM      5  C   UNL     1     108.699 126.507 139.845  0.00  0.00    +0.000 A 
ATOM      6  C   UNL     1     109.613 126.203 140.975  0.00  0.00    +0.000 A 
ATOM      7  C   UNL     1     110.676 126.787 138.326  0.00  0.00    +0.000 A 
ATOM      8  C   UNL     1     109.381 126.601 139.331  0.00  0.00    +0.000 A 
ATOM      9  C   UNL     1     110.146 126.501 139.622  0.00  0.00    +0.000 A 
ATOM     10  C   UNL     1     110.283 126.301 140.446  0.00  0.00    +0.000 A 
ATOM     11  C   UNL     1     110.794 126.594 139.119  0.00  0.00    +0.000 A 
ATOM     12  C   UNL     1     109.910 126.886 138.035  0.00  0.00    +0.000 A 
ENDROOT
BRANCH  12  14
ATOM     13  O   UNL     1     109.434 127.659 134.862  0.00  0.00    +0.000 OA
ATOM     14  C   UNL     1     109.791 127.079 137.242  0.00  0.00    +0.000 A 
ATOM     15  C   UNL     1     109.859 127.862 136.994  0.00  0.00    +0.000 A 
ATOM     16  C   UNL     1     109.604 126.488 136.697  0.00  0.00    +0.000 A 
ATOM     17  C   UNL     1     109.740 128.056 136.201  0.00  0.00    +0.000 A 
ATOM     18  C   UNL     1     109.485 126.681 135.904  0.00  0.00    +0.000 A 
ATOM     19  C   UNL     1     109.553 127.465 135.656  0.00  0.00    +0.000 A 
ENDBRANCH  12  14
BRANCH   7  20
ATOM     20  O   UNL     1     111.323 126.880 137.823  0.00  0.00    +0.000 OA
BRANCH  20  28
ATOM     21  O   UNL     1     111.585 125.482 137.689  0.00  0.00    +0.000 OA
ATOM     22  O   UNL     1     114.004 125.956 137.467  0.00  0.00    +0.000 OA
ATOM     23  O   UNL     1     113.459 124.400 137.407  0.00  0.00    +0.000 OA
ATOM     24  C   UNL     1     113.197 125.798 137.541  0.00  0.00    +0.000 C 
ATOM     25  C   UNL     1     112.925 125.020 137.511  0.00  0.00    +0.000 C 
ATOM     26  C   UNL     1     112.663 126.418 137.645  0.00  0.00    +0.000 C 
ATOM     27  C   UNL     1     112.119 124.862 137.585  0.00  0.00    +0.000 C 
ATOM     28  C   UNL     1     111.857 126.260 137.719  0.00  0.00    +0.000 C 
BRANCH  27  30
ATOM     29  O   UNL     1     111.481 123.800 136.873  0.00  0.00    +0.000 OA
ATOM     30  C   UNL     1     111.847 124.084 137.555  0.00  0.00    +0.000 C 
ENDBRANCH  27  30
BRANCH  26  31
ATOM     31  O   UNL     1     112.936 127.196 137.675  0.00  0.00    +0.000 OA
BRANCH  31  33
ATOM     32  O   UNL     1     113.204 127.159 136.272  0.00  0.00    +0.000 OA
ATOM     33  C   UNL     1     113.176 127.576 136.983  0.00  0.00    +0.000 C 
BRANCH  33  34
ATOM     34  C   UNL     1     113.388 128.373 137.002  0.00  0.00    +0.000 C 
ATOM     35  C   UNL     1     113.279 128.846 136.335  0.00  0.00    +0.000 C 
BRANCH  35  37
ATOM     36  O   UNL     1     114.127 132.034 136.412  0.00  0.00    +0.000 OA
ATOM     37  C   UNL     1     113.491 129.643 136.354  0.00  0.00    +0.000 A 
ATOM     38  C   UNL     1     114.210 129.887 136.031  0.00  0.00    +0.000 A 
ATOM     39  C   UNL     1     112.984 130.196 136.697  0.00  0.00    +0.000 A 
ATOM     40  C   UNL     1     113.196 130.993 136.716  0.00  0.00    +0.000 A 
ATOM     41  C   UNL     1     114.421 130.684 136.051  0.00  0.00    +0.000 A 
ATOM     42  C   UNL     1     113.915 131.236 136.393  0.00  0.00    +0.000 A 
BRANCH  41  43
ATOM     43  O   UNL     1     115.140 130.927 135.727  0.00  0.00    +0.000 OA
ATOM     44  C   UNL     1     115.400 130.609 135.012  0.00  0.00    +0.000 C 
ENDBRANCH  41  43
BRANCH  40  45
ATOM     45  O   UNL     1     112.689 131.547 137.058  0.00  0.00    +0.000 OA
ATOM     46  C   UNL     1     111.875 131.417 137.057  0.00  0.00    +0.000 C 
ENDBRANCH  40  45
ENDBRANCH  35  37
ENDBRANCH  33  34
ENDBRANCH  31  33
ENDBRANCH  26  31
ENDBRANCH  20  28
ENDBRANCH   7  20
BRANCH   4  47
ATOM     47  O   UNL     1     108.166 126.214 141.174  0.00  0.00    +0.000 OA
BRANCH  47  54
ATOM     48  O   UNL     1     108.071 124.790 141.091  0.00  0.00    +0.000 OA
ATOM     49  O   UNL     1     105.602 124.955 141.089  0.00  0.00    +0.000 OA
ATOM     50  O   UNL     1     106.330 123.478 141.006  0.00  0.00    +0.000 OA
ATOM     51  C   UNL     1     106.884 125.585 141.131  0.00  0.00    +0.000 C 
ATOM     52  C   UNL     1     106.425 124.900 141.089  0.00  0.00    +0.000 C 
ATOM     53  C   UNL     1     106.789 124.161 141.048  0.00  0.00    +0.000 C 
ATOM     54  C   UNL     1     107.707 125.530 141.132  0.00  0.00    +0.000 C 
ATOM     55  C   UNL     1     107.613 124.107 141.049  0.00  0.00    +0.000 C 
BRANCH  55  57
ATOM     56  O   UNL     1     108.748 123.271 141.283  0.00  0.00    +0.000 OA
ATOM     57  C   UNL     1     107.976 123.368 141.008  0.00  0.00    +0.000 C 
ENDBRANCH  55  57
BRANCH  51  58
ATOM     58  O   UNL     1     106.520 126.324 141.172  0.00  0.00    +0.000 OA
BRANCH  58  63
ATOM     59  O   UNL     1     106.445 126.252 142.598  0.00  0.00    +0.000 OA
ATOM     60  O   UNL     1     105.368 127.505 141.172  0.00  0.00    +0.000 OA
ATOM     61  O   UNL     1     104.718 128.025 142.596  0.00  0.00    +0.000 OA
ATOM     62  O   UNL     1     105.219 127.363 144.022  0.00  0.00    +0.000 OA
ATOM     63  C   UNL     1     106.194 126.583 141.886  0.00  0.00    +0.000 C 
ATOM     64  C   UNL     1     105.619 127.174 141.884  0.00  0.00    +0.000 C 
ATOM     65  C   UNL     1     105.293 127.434 142.597  0.00  0.00    +0.000 C 
ATOM     66  C   UNL     1     105.544 127.103 143.310  0.00  0.00    +0.000 C 
ATOM     67  C   UNL     1     106.120 126.512 143.310  0.00  0.00    +0.000 C 
BRANCH  67  69
ATOM     68  O   UNL     1     107.117 126.365 144.324  0.00  0.00    +0.000 OA
ATOM     69  C   UNL     1     106.371 126.181 144.023  0.00  0.00    +0.000 C 
ENDBRANCH  67  69
ENDBRANCH  58  63
ENDBRANCH  51  58
ENDBRANCH  47  54
ENDBRANCH   4  47
TORSDOF 16
ENDMDL
MODEL 3
REMARK VINA RESULT:     -10.5      2.324      3.778
REMARK  Name = 131752462
REMARK  16 active torsions:
REMARK  status: ('A' for Active; 'I' for Inactive)
REMARK    1  A    between atoms: O_1  and  C_26
REMARK    2  A    between atoms: O_1  and  C_29
REMARK    3  A    between atoms: O_4  and  C_31
REMARK    4  A    between atoms: O_4  and  C_43
REMARK    5  A    between atoms: O_13  and  C_42
REMARK    6  A    between atoms: O_13  and  C_47
REMARK    7  A    between atoms: O_14  and  C_40
REMARK    8  A    between atoms: O_14  and  C_53
REMARK    9  A    between atoms: O_23  and  C_65
REMARK   10  A    between atoms: O_24  and  C_66
REMARK   11  A    between atoms: C_32  and  C_36
REMARK   12  A    between atoms: C_35  and  C_37
REMARK   13  A    between atoms: C_41  and  C_44
REMARK   14  A    between atoms: C_52  and  C_54
REMARK   15  A    between atoms: C_53  and  C_55
REMARK   16  A    between atoms: C_58  and  C_62
REMARK                            x       y       z     vdW  Elec       q    Type
REMARK                         _______ _______ _______ _____ _____    ______ ____
ROOT
ATOM      1  O   UNL     1     107.210 128.941 141.855  0.00  0.00    +0.000 OA
ATOM      2  O   UNL     1     109.279 126.926 141.883  0.00  0.00    +0.000 OA
ATOM      3  O   UNL     1     108.019 126.708 142.553  0.00  0.00    +0.000 OA
ATOM      4  C   UNL     1     109.246 128.954 140.934  0.00  0.00    +0.000 A 
ATOM      5  C   UNL     1     108.459 129.211 141.166  0.00  0.00    +0.000 A 
ATOM      6  C   UNL     1     109.527 128.179 141.177  0.00  0.00    +0.000 A 
ATOM      7  C   UNL     1     106.995 127.705 142.539  0.00  0.00    +0.000 A 
ATOM      8  C   UNL     1     107.964 128.689 141.636  0.00  0.00    +0.000 A 
ATOM      9  C   UNL     1     108.234 127.945 141.868  0.00  0.00    +0.000 A 
ATOM     10  C   UNL     1     109.017 127.671 141.647  0.00  0.00    +0.000 A 
ATOM     11  C   UNL     1     107.749 127.453 142.320  0.00  0.00    +0.000 A 
ATOM     12  C   UNL     1     106.725 128.449 142.306  0.00  0.00    +0.000 A 
ENDROOT
BRANCH  12  14
ATOM     13  O   UNL     1     103.709 129.461 143.183  0.00  0.00    +0.000 OA
ATOM     14  C   UNL     1     105.971 128.702 142.525  0.00  0.00    +0.000 A 
ATOM     15  C   UNL     1     105.839 128.992 143.286  0.00  0.00    +0.000 A 
ATOM     16  C   UNL     1     105.350 128.665 141.984  0.00  0.00    +0.000 A 
ATOM     17  C   UNL     1     105.084 129.245 143.505  0.00  0.00    +0.000 A 
ATOM     18  C   UNL     1     104.596 128.918 142.203  0.00  0.00    +0.000 A 
ATOM     19  C   UNL     1     104.463 129.208 142.964  0.00  0.00    +0.000 A 
ENDBRANCH  12  14
BRANCH   7  20
ATOM     20  O   UNL     1     106.511 127.213 142.990  0.00  0.00    +0.000 OA
BRANCH  20  28
ATOM     21  O   UNL     1     106.179 126.337 141.912  0.00  0.00    +0.000 OA
ATOM     22  O   UNL     1     106.011 124.445 143.500  0.00  0.00    +0.000 OA
ATOM     23  O   UNL     1     105.736 124.200 141.891  0.00  0.00    +0.000 OA
ATOM     24  C   UNL     1     106.067 125.077 142.970  0.00  0.00    +0.000 C 
ATOM     25  C   UNL     1     105.930 124.953 142.166  0.00  0.00    +0.000 C 
ATOM     26  C   UNL     1     106.261 125.830 143.245  0.00  0.00    +0.000 C 
ATOM     27  C   UNL     1     105.986 125.583 141.637  0.00  0.00    +0.000 C 
ATOM     28  C   UNL     1     106.317 126.460 142.716  0.00  0.00    +0.000 C 
BRANCH  27  30
ATOM     29  O   UNL     1     105.223 125.846 140.457  0.00  0.00    +0.000 OA
ATOM     30  C   UNL     1     105.848 125.461 140.833  0.00  0.00    +0.000 C 
ENDBRANCH  27  30
BRANCH  26  31
ATOM     31  O   UNL     1     106.399 125.953 144.049  0.00  0.00    +0.000 OA
BRANCH  31  33
ATOM     32  O   UNL     1     105.029 126.087 144.434  0.00  0.00    +0.000 OA
ATOM     33  C   UNL     1     105.794 125.824 144.596  0.00  0.00    +0.000 C 
BRANCH  33  34
ATOM     34  C   UNL     1     105.955 125.431 145.303  0.00  0.00    +0.000 C 
ATOM     35  C   UNL     1     105.879 125.828 146.022  0.00  0.00    +0.000 C 
BRANCH  35  37
ATOM     36  O   UNL     1     106.519 124.257 148.853  0.00  0.00    +0.000 OA
ATOM     37  C   UNL     1     106.039 125.436 146.730  0.00  0.00    +0.000 A 
ATOM     38  C   UNL     1     106.817 125.363 146.995  0.00  0.00    +0.000 A 
ATOM     39  C   UNL     1     105.420 125.115 147.172  0.00  0.00    +0.000 A 
ATOM     40  C   UNL     1     105.581 124.722 147.880  0.00  0.00    +0.000 A 
ATOM     41  C   UNL     1     106.976 124.971 147.703  0.00  0.00    +0.000 A 
ATOM     42  C   UNL     1     106.359 124.650 148.145  0.00  0.00    +0.000 A 
BRANCH  41  43
ATOM     43  O   UNL     1     107.754 124.899 147.967  0.00  0.00    +0.000 OA
ATOM     44  C   UNL     1     108.350 125.356 147.626  0.00  0.00    +0.000 C 
ENDBRANCH  41  43
BRANCH  40  45
ATOM     45  O   UNL     1     104.963 124.402 148.323  0.00  0.00    +0.000 OA
ATOM     46  C   UNL     1     104.257 124.819 148.409  0.00  0.00    +0.000 C 
ENDBRANCH  40  45
ENDBRANCH  35  37
ENDBRANCH  33  34
ENDBRANCH  31  33
ENDBRANCH  26  31
ENDBRANCH  20  28
ENDBRANCH   7  20
BRANCH   4  47
ATOM     47  O   UNL     1     109.729 129.448 140.483  0.00  0.00    +0.000 OA
BRANCH  47  54
ATOM     48  O   UNL     1     110.209 130.186 141.608  0.00  0.00    +0.000 OA
ATOM     49  O   UNL     1     112.337 130.615 140.418  0.00  0.00    +0.000 OA
ATOM     50  O   UNL     1     112.108 131.210 141.939  0.00  0.00    +0.000 OA
ATOM     51  C   UNL     1     111.032 130.031 140.450  0.00  0.00    +0.000 C 
ATOM     52  C   UNL     1     111.628 130.472 140.815  0.00  0.00    +0.000 C 
ATOM     53  C   UNL     1     111.513 130.770 141.575  0.00  0.00    +0.000 C 
ATOM     54  C   UNL     1     110.323 129.888 140.847  0.00  0.00    +0.000 C 
ATOM     55  C   UNL     1     110.803 130.627 141.972  0.00  0.00    +0.000 C 
BRANCH  55  57
ATOM     56  O   UNL     1     110.043 131.411 142.893  0.00  0.00    +0.000 OA
ATOM     57  C   UNL     1     110.689 130.924 142.732  0.00  0.00    +0.000 C 
ENDBRANCH  55  57
BRANCH  51  58
ATOM     58  O   UNL     1     111.147 129.733 139.690  0.00  0.00    +0.000 OA
BRANCH  58  63
ATOM     59  O   UNL     1     110.615 130.927 139.111  0.00  0.00    +0.000 OA
ATOM     60  O   UNL     1     111.784 129.308 138.228  0.00  0.00    +0.000 OA
ATOM     61  O   UNL     1     111.571 130.290 136.919  0.00  0.00    +0.000 OA
ATOM     62  O   UNL     1     110.721 131.696 137.071  0.00  0.00    +0.000 OA
ATOM     63  C   UNL     1     111.040 130.224 139.035  0.00  0.00    +0.000 C 
ATOM     64  C   UNL     1     111.359 130.011 138.304  0.00  0.00    +0.000 C 
ATOM     65  C   UNL     1     111.252 130.503 137.649  0.00  0.00    +0.000 C 
ATOM     66  C   UNL     1     110.827 131.206 137.725  0.00  0.00    +0.000 C 
ATOM     67  C   UNL     1     110.509 131.418 138.456  0.00  0.00    +0.000 C 
BRANCH  67  69
ATOM     68  O   UNL     1     109.273 132.098 138.687  0.00  0.00    +0.000 OA
ATOM     69  C   UNL     1     110.084 132.121 138.533  0.00  0.00    +0.000 C 
ENDBRANCH  67  69
ENDBRANCH  58  63
ENDBRANCH  51  58
ENDBRANCH  47  54
ENDBRANCH   4  47
TORSDOF 16
ENDMDL
MODEL 4
REMARK VINA RESULT:     -10.3      1.183      2.938
REMARK  Name = 131752462
REMARK  16 active torsions:
REMARK  status: ('A' for Active; 'I' for Inactive)
REMARK    1  A    between atoms: O_1  and  C_26
REMARK    2  A    between atoms: O_1  and  C_29
REMARK    3  A    between atoms: O_4  and  C_31
REMARK    4  A    between atoms: O_4  and  C_43
REMARK    5  A    between atoms: O_13  and  C_42
REMARK    6  A    between atoms: O_13  and  C_47
REMARK    7  A    between atoms: O_14  and  C_40
REMARK    8  A    between atoms: O_14  and  C_53
REMARK    9  A    between atoms: O_23  and  C_65
REMARK   10  A    between atoms: O_24  and  C_66
REMARK   11  A    between atoms: C_32  and  C_36
REMARK   12  A    between atoms: C_35  and  C_37
REMARK   13  A    between atoms: C_41  and  C_44
REMARK   14  A    between atoms: C_52  and  C_54
REMARK   15  A    between atoms: C_53  and  C_55
REMARK   16  A    between atoms: C_58  and  C_62
REMARK                            x       y       z     vdW  Elec       q    Type
REMARK                         _______ _______ _______ _____ _____    ______ ____
ROOT
ATOM      1  O   UNL     1     108.460 127.668 141.288  0.00  0.00    +0.000 OA
ATOM      2  O   UNL     1     109.330 124.933 140.958  0.00  0.00    +0.000 OA
ATOM      3  O   UNL     1     108.162 125.253 141.743  0.00  0.00    +0.000 OA
ATOM      4  C   UNL     1     110.199 126.835 140.156  0.00  0.00    +0.000 A 
ATOM      5  C   UNL     1     109.643 127.401 140.488  0.00  0.00    +0.000 A 
ATOM      6  C   UNL     1     110.095 125.997 140.314  0.00  0.00    +0.000 A 
ATOM      7  C   UNL     1     107.732 126.606 141.906  0.00  0.00    +0.000 A 
ATOM      8  C   UNL     1     108.991 127.121 140.972  0.00  0.00    +0.000 A 
ATOM      9  C   UNL     1     108.892 126.316 141.124  0.00  0.00    +0.000 A 
ATOM     10  C   UNL     1     109.437 125.736 140.801  0.00  0.00    +0.000 A 
ATOM     11  C   UNL     1     108.262 126.058 141.591  0.00  0.00    +0.000 A 
ATOM     12  C   UNL     1     107.831 127.411 141.755  0.00  0.00    +0.000 A 
ENDROOT
BRANCH  12  14
ATOM     13  O   UNL     1     105.712 129.603 143.017  0.00  0.00    +0.000 OA
ATOM     14  C   UNL     1     107.301 127.959 142.070  0.00  0.00    +0.000 A 
ATOM     15  C   UNL     1     107.396 128.224 142.845  0.00  0.00    +0.000 A 
ATOM     16  C   UNL     1     106.677 128.241 141.610  0.00  0.00    +0.000 A 
ATOM     17  C   UNL     1     106.866 128.773 143.161  0.00  0.00    +0.000 A 
ATOM     18  C   UNL     1     106.147 128.789 141.926  0.00  0.00    +0.000 A 
ATOM     19  C   UNL     1     106.242 129.055 142.701  0.00  0.00    +0.000 A 
ENDBRANCH  12  14
BRANCH   7  20
ATOM     20  O   UNL     1     107.102 126.349 142.373  0.00  0.00    +0.000 OA
BRANCH  20  28
ATOM     21  O   UNL     1     106.394 125.749 141.287  0.00  0.00    +0.000 OA
ATOM     22  O   UNL     1     105.422 124.084 142.839  0.00  0.00    +0.000 OA
ATOM     23  O   UNL     1     105.039 124.039 141.234  0.00  0.00    +0.000 OA
ATOM     24  C   UNL     1     105.747 124.639 142.321  0.00  0.00    +0.000 C 
ATOM     25  C   UNL     1     105.555 124.617 141.519  0.00  0.00    +0.000 C 
ATOM     26  C   UNL     1     106.263 125.217 142.606  0.00  0.00    +0.000 C 
ATOM     27  C   UNL     1     105.879 125.172 141.002  0.00  0.00    +0.000 C 
ATOM     28  C   UNL     1     106.587 125.772 142.089  0.00  0.00    +0.000 C 
BRANCH  27  30
ATOM     29  O   UNL     1     105.212 125.739 139.872  0.00  0.00    +0.000 OA
ATOM     30  C   UNL     1     105.687 125.149 140.200  0.00  0.00    +0.000 C 
ENDBRANCH  27  30
BRANCH  26  31
ATOM     31  O   UNL     1     106.454 125.239 143.408  0.00  0.00    +0.000 OA
BRANCH  31  33
ATOM     32  O   UNL     1     105.229 125.881 143.765  0.00  0.00    +0.000 OA
ATOM     33  C   UNL     1     105.871 125.404 143.967  0.00  0.00    +0.000 C 
BRANCH  33  34
ATOM     34  C   UNL     1     105.929 125.092 144.729  0.00  0.00    +0.000 C 
ATOM     35  C   UNL     1     105.783 125.573 145.384  0.00  0.00    +0.000 C 
BRANCH  35  37
ATOM     36  O   UNL     1     106.017 124.326 148.431  0.00  0.00    +0.000 OA
ATOM     37  C   UNL     1     105.841 125.261 146.145  0.00  0.00    +0.000 A 
ATOM     38  C   UNL     1     105.179 124.927 146.507  0.00  0.00    +0.000 A 
ATOM     39  C   UNL     1     106.563 125.283 146.546  0.00  0.00    +0.000 A 
ATOM     40  C   UNL     1     106.621 124.972 147.307  0.00  0.00    +0.000 A 
ATOM     41  C   UNL     1     105.238 124.616 147.268  0.00  0.00    +0.000 A 
ATOM     42  C   UNL     1     105.958 124.638 147.668  0.00  0.00    +0.000 A 
BRANCH  41  43
ATOM     43  O   UNL     1     104.576 124.282 147.629  0.00  0.00    +0.000 OA
ATOM     44  C   UNL     1     103.824 124.579 147.466  0.00  0.00    +0.000 C 
ENDBRANCH  41  43
BRANCH  40  45
ATOM     45  O   UNL     1     107.342 124.994 147.708  0.00  0.00    +0.000 OA
ATOM     46  C   UNL     1     107.836 125.650 147.633  0.00  0.00    +0.000 C 
ENDBRANCH  40  45
ENDBRANCH  35  37
ENDBRANCH  33  34
ENDBRANCH  31  33
ENDBRANCH  26  31
ENDBRANCH  20  28
ENDBRANCH   7  20
BRANCH   4  47
ATOM     47  O   UNL     1     110.828 127.095 139.690  0.00  0.00    +0.000 OA
BRANCH  47  54
ATOM     48  O   UNL     1     111.712 127.451 140.754  0.00  0.00    +0.000 OA
ATOM     49  O   UNL     1     113.629 126.581 139.453  0.00  0.00    +0.000 OA
ATOM     50  O   UNL     1     113.874 127.226 140.951  0.00  0.00    +0.000 OA
ATOM     51  C   UNL     1     112.228 126.838 139.571  0.00  0.00    +0.000 C 
ATOM     52  C   UNL     1     112.990 126.871 139.887  0.00  0.00    +0.000 C 
ATOM     53  C   UNL     1     113.112 127.194 140.636  0.00  0.00    +0.000 C 
ATOM     54  C   UNL     1     111.589 127.128 140.005  0.00  0.00    +0.000 C 
ATOM     55  C   UNL     1     112.473 127.484 141.070  0.00  0.00    +0.000 C 
BRANCH  55  57
ATOM     56  O   UNL     1     112.380 128.587 141.973  0.00  0.00    +0.000 OA
ATOM     57  C   UNL     1     112.596 127.806 141.818  0.00  0.00    +0.000 C 
ENDBRANCH  55  57
BRANCH  51  58
ATOM     58  O   UNL     1     112.106 126.516 138.822  0.00  0.00    +0.000 OA
BRANCH  58  63
ATOM     59  O   UNL     1     112.314 127.791 138.211  0.00  0.00    +0.000 OA
ATOM     60  O   UNL     1     112.265 125.785 137.351  0.00  0.00    +0.000 OA
ATOM     61  O   UNL     1     112.554 126.695 136.005  0.00  0.00    +0.000 OA
ATOM     62  O   UNL     1     112.682 128.335 136.130  0.00  0.00    +0.000 OA
ATOM     63  C   UNL     1     112.250 126.971 138.148  0.00  0.00    +0.000 C 
ATOM     64  C   UNL     1     112.330 126.605 137.413  0.00  0.00    +0.000 C 
ATOM     65  C   UNL     1     112.474 127.061 136.740  0.00  0.00    +0.000 C 
ATOM     66  C   UNL     1     112.538 127.881 136.803  0.00  0.00    +0.000 C 
ATOM     67  C   UNL     1     112.458 128.246 137.538  0.00  0.00    +0.000 C 
BRANCH  67  69
ATOM     68  O   UNL     1     111.861 129.518 137.801  0.00  0.00    +0.000 OA
ATOM     69  C   UNL     1     112.523 129.066 137.601  0.00  0.00    +0.000 C 
ENDBRANCH  67  69
ENDBRANCH  58  63
ENDBRANCH  51  58
ENDBRANCH  47  54
ENDBRANCH   4  47
TORSDOF 16
ENDMDL
MODEL 5
REMARK VINA RESULT:     -10.2      4.883      7.843
REMARK  Name = 131752462
REMARK  16 active torsions:
REMARK  status: ('A' for Active; 'I' for Inactive)
REMARK    1  A    between atoms: O_1  and  C_26
REMARK    2  A    between atoms: O_1  and  C_29
REMARK    3  A    between atoms: O_4  and  C_31
REMARK    4  A    between atoms: O_4  and  C_43
REMARK    5  A    between atoms: O_13  and  C_42
REMARK    6  A    between atoms: O_13  and  C_47
REMARK    7  A    between atoms: O_14  and  C_40
REMARK    8  A    between atoms: O_14  and  C_53
REMARK    9  A    between atoms: O_23  and  C_65
REMARK   10  A    between atoms: O_24  and  C_66
REMARK   11  A    between atoms: C_32  and  C_36
REMARK   12  A    between atoms: C_35  and  C_37
REMARK   13  A    between atoms: C_41  and  C_44
REMARK   14  A    between atoms: C_52  and  C_54
REMARK   15  A    between atoms: C_53  and  C_55
REMARK   16  A    between atoms: C_58  and  C_62
REMARK                            x       y       z     vdW  Elec       q    Type
REMARK                         _______ _______ _______ _____ _____    ______ ____
ROOT
ATOM      1  O   UNL     1     109.822 130.660 143.102  0.00  0.00    +0.000 OA
ATOM      2  O   UNL     1     111.326 128.798 144.720  0.00  0.00    +0.000 OA
ATOM      3  O   UNL     1     110.680 128.373 143.502  0.00  0.00    +0.000 OA
ATOM      4  C   UNL     1     110.930 130.982 145.017  0.00  0.00    +0.000 A 
ATOM      5  C   UNL     1     110.453 131.141 144.319  0.00  0.00    +0.000 A 
ATOM      6  C   UNL     1     111.227 130.188 145.155  0.00  0.00    +0.000 A 
ATOM      7  C   UNL     1     109.936 129.294 142.701  0.00  0.00    +0.000 A 
ATOM      8  C   UNL     1     110.280 130.503 143.770  0.00  0.00    +0.000 A 
ATOM      9  C   UNL     1     110.566 129.740 143.903  0.00  0.00    +0.000 A 
ATOM     10  C   UNL     1     111.044 129.563 144.595  0.00  0.00    +0.000 A 
ATOM     11  C   UNL     1     110.394 129.136 143.369  0.00  0.00    +0.000 A 
ATOM     12  C   UNL     1     109.650 130.056 142.568  0.00  0.00    +0.000 A 
ENDROOT
BRANCH  12  14
ATOM     13  O   UNL     1     107.816 130.689 139.899  0.00  0.00    +0.000 OA
ATOM     14  C   UNL     1     109.192 130.214 141.900  0.00  0.00    +0.000 A 
ATOM     15  C   UNL     1     108.386 130.039 141.903  0.00  0.00    +0.000 A 
ATOM     16  C   UNL     1     109.540 130.548 141.231  0.00  0.00    +0.000 A 
ATOM     17  C   UNL     1     107.927 130.197 141.236  0.00  0.00    +0.000 A 
ATOM     18  C   UNL     1     109.081 130.706 140.564  0.00  0.00    +0.000 A 
ATOM     19  C   UNL     1     108.275 130.531 140.566  0.00  0.00    +0.000 A 
ENDBRANCH  12  14
BRANCH   7  20
ATOM     20  O   UNL     1     109.764 128.689 142.167  0.00  0.00    +0.000 OA
BRANCH  20  28
ATOM     21  O   UNL     1     111.082 128.602 141.625  0.00  0.00    +0.000 OA
ATOM     22  O   UNL     1     110.788 126.167 141.296  0.00  0.00    +0.000 OA
ATOM     23  O   UNL     1     112.206 126.893 140.864  0.00  0.00    +0.000 OA
ATOM     24  C   UNL     1     110.886 126.980 141.406  0.00  0.00    +0.000 C 
ATOM     25  C   UNL     1     111.595 127.341 141.190  0.00  0.00    +0.000 C 
ATOM     26  C   UNL     1     110.276 127.428 141.732  0.00  0.00    +0.000 C 
ATOM     27  C   UNL     1     111.693 128.153 141.300  0.00  0.00    +0.000 C 
ATOM     28  C   UNL     1     110.374 128.240 141.841  0.00  0.00    +0.000 C 
BRANCH  27  30
ATOM     29  O   UNL     1     112.405 129.107 140.508  0.00  0.00    +0.000 OA
ATOM     30  C   UNL     1     112.402 128.516 141.084  0.00  0.00    +0.000 C 
ENDBRANCH  27  30
BRANCH  26  31
ATOM     31  O   UNL     1     109.567 127.066 141.948  0.00  0.00    +0.000 OA
BRANCH  31  33
ATOM     32  O   UNL     1     109.140 127.030 140.584  0.00  0.00    +0.000 OA
ATOM     33  C   UNL     1     109.055 126.782 141.366  0.00  0.00    +0.000 C 
BRANCH  33  34
ATOM     34  C   UNL     1     108.457 126.249 141.567  0.00  0.00    +0.000 C 
ATOM     35  C   UNL     1     107.667 126.448 141.437  0.00  0.00    +0.000 C 
BRANCH  35  37
ATOM     36  O   UNL     1     105.276 124.319 142.241  0.00  0.00    +0.000 OA
ATOM     37  C   UNL     1     107.070 125.915 141.637  0.00  0.00    +0.000 A 
ATOM     38  C   UNL     1     106.859 125.313 141.114  0.00  0.00    +0.000 A 
ATOM     39  C   UNL     1     106.682 125.985 142.363  0.00  0.00    +0.000 A 
ATOM     40  C   UNL     1     106.084 125.453 142.564  0.00  0.00    +0.000 A 
ATOM     41  C   UNL     1     106.262 124.782 141.315  0.00  0.00    +0.000 A 
ATOM     42  C   UNL     1     105.875 124.851 142.039  0.00  0.00    +0.000 A 
BRANCH  41  43
ATOM     43  O   UNL     1     106.052 124.180 140.791  0.00  0.00    +0.000 OA
ATOM     44  C   UNL     1     105.856 124.363 140.011  0.00  0.00    +0.000 C 
ENDBRANCH  41  43
BRANCH  40  45
ATOM     45  O   UNL     1     105.697 125.522 143.288  0.00  0.00    +0.000 OA
ATOM     46  C   UNL     1     106.011 126.004 143.880  0.00  0.00    +0.000 C 
ENDBRANCH  40  45
ENDBRANCH  35  37
ENDBRANCH  33  34
ENDBRANCH  31  33
ENDBRANCH  26  31
ENDBRANCH  20  28
ENDBRANCH   7  20
BRANCH   4  47
ATOM     47  O   UNL     1     111.100 131.589 145.549  0.00  0.00    +0.000 OA
BRANCH  47  54
ATOM     48  O   UNL     1     112.165 132.178 144.800  0.00  0.00    +0.000 OA
ATOM     49  O   UNL     1     111.429 134.428 145.522  0.00  0.00    +0.000 OA
ATOM     50  O   UNL     1     112.738 134.266 144.532  0.00  0.00    +0.000 OA
ATOM     51  C   UNL     1     111.264 133.008 145.536  0.00  0.00    +0.000 C 
ATOM     52  C   UNL     1     111.674 133.678 145.281  0.00  0.00    +0.000 C 
ATOM     53  C   UNL     1     112.329 133.596 144.786  0.00  0.00    +0.000 C 
ATOM     54  C   UNL     1     111.510 132.258 145.295  0.00  0.00    +0.000 C 
ATOM     55  C   UNL     1     112.574 132.846 144.545  0.00  0.00    +0.000 C 
BRANCH  55  57
ATOM     56  O   UNL     1     113.139 132.446 143.295  0.00  0.00    +0.000 OA
ATOM     57  C   UNL     1     113.229 132.766 144.050  0.00  0.00    +0.000 C 
ENDBRANCH  55  57
BRANCH  51  58
ATOM     58  O   UNL     1     110.610 133.089 146.031  0.00  0.00    +0.000 OA
BRANCH  58  63
ATOM     59  O   UNL     1     111.459 133.094 147.181  0.00  0.00    +0.000 OA
ATOM     60  O   UNL     1     109.344 133.593 146.963  0.00  0.00    +0.000 OA
ATOM     61  O   UNL     1     109.560 133.850 148.578  0.00  0.00    +0.000 OA
ATOM     62  O   UNL     1     111.041 133.603 149.262  0.00  0.00    +0.000 OA
ATOM     63  C   UNL     1     110.718 133.218 146.839  0.00  0.00    +0.000 C 
ATOM     64  C   UNL     1     110.085 133.469 147.305  0.00  0.00    +0.000 C 
ATOM     65  C   UNL     1     110.193 133.598 148.113  0.00  0.00    +0.000 C 
ATOM     66  C   UNL     1     110.934 133.475 148.455  0.00  0.00    +0.000 C 
ATOM     67  C   UNL     1     111.566 133.223 147.989  0.00  0.00    +0.000 C 
BRANCH  67  69
ATOM     68  O   UNL     1     112.651 132.349 148.312  0.00  0.00    +0.000 OA
ATOM     69  C   UNL     1     112.307 133.100 148.331  0.00  0.00    +0.000 C 
ENDBRANCH  67  69
ENDBRANCH  58  63
ENDBRANCH  51  58
ENDBRANCH  47  54
ENDBRANCH   4  47
TORSDOF 16
ENDMDL
MODEL 6
REMARK VINA RESULT:     -10.2      1.365      3.016
REMARK  Name = 131752462
REMARK  16 active torsions:
REMARK  status: ('A' for Active; 'I' for Inactive)
REMARK    1  A    between atoms: O_1  and  C_26
REMARK    2  A    between atoms: O_1  and  C_29
REMARK    3  A    between atoms: O_4  and  C_31
REMARK    4  A    between atoms: O_4  and  C_43
REMARK    5  A    between atoms: O_13  and  C_42
REMARK    6  A    between atoms: O_13  and  C_47
REMARK    7  A    between atoms: O_14  and  C_40
REMARK    8  A    between atoms: O_14  and  C_53
REMARK    9  A    between atoms: O_23  and  C_65
REMARK   10  A    between atoms: O_24  and  C_66
REMARK   11  A    between atoms: C_32  and  C_36
REMARK   12  A    between atoms: C_35  and  C_37
REMARK   13  A    between atoms: C_41  and  C_44
REMARK   14  A    between atoms: C_52  and  C_54
REMARK   15  A    between atoms: C_53  and  C_55
REMARK   16  A    between atoms: C_58  and  C_62
REMARK                            x       y       z     vdW  Elec       q    Type
REMARK                         _______ _______ _______ _____ _____    ______ ____
ROOT
ATOM      1  O   UNL     1     108.138 128.326 141.547  0.00  0.00    +0.000 OA
ATOM      2  O   UNL     1     109.463 125.763 141.403  0.00  0.00    +0.000 OA
ATOM      3  O   UNL     1     108.218 125.918 142.117  0.00  0.00    +0.000 OA
ATOM      4  C   UNL     1     110.047 127.745 140.540  0.00  0.00    +0.000 A 
ATOM      5  C   UNL     1     109.388 128.225 140.816  0.00  0.00    +0.000 A 
ATOM      6  C   UNL     1     110.074 126.910 140.738  0.00  0.00    +0.000 A 
ATOM      7  C   UNL     1     107.563 127.186 142.189  0.00  0.00    +0.000 A 
ATOM      8  C   UNL     1     108.767 127.861 141.285  0.00  0.00    +0.000 A 
ATOM      9  C   UNL     1     108.794 127.059 141.475  0.00  0.00    +0.000 A 
ATOM     10  C   UNL     1     109.444 126.564 141.208  0.00  0.00    +0.000 A 
ATOM     11  C   UNL     1     108.192 126.721 141.927  0.00  0.00    +0.000 A 
ATOM     12  C   UNL     1     107.536 127.989 141.999  0.00  0.00    +0.000 A 
ENDROOT
BRANCH  12  14
ATOM     13  O   UNL     1     105.019 129.850 143.043  0.00  0.00    +0.000 OA
ATOM     14  C   UNL     1     106.907 128.454 142.261  0.00  0.00    +0.000 A 
ATOM     15  C   UNL     1     106.286 128.634 141.747  0.00  0.00    +0.000 A 
ATOM     16  C   UNL     1     106.898 128.739 143.034  0.00  0.00    +0.000 A 
ATOM     17  C   UNL     1     105.657 129.099 142.008  0.00  0.00    +0.000 A 
ATOM     18  C   UNL     1     106.269 129.205 143.295  0.00  0.00    +0.000 A 
ATOM     19  C   UNL     1     105.648 129.385 142.782  0.00  0.00    +0.000 A 
ENDBRANCH  12  14
BRANCH   7  20
ATOM     20  O   UNL     1     106.960 126.848 142.640  0.00  0.00    +0.000 OA
BRANCH  20  28
ATOM     21  O   UNL     1     106.372 126.135 141.553  0.00  0.00    +0.000 OA
ATOM     22  O   UNL     1     105.670 124.341 143.108  0.00  0.00    +0.000 OA
ATOM     23  O   UNL     1     105.315 124.225 141.500  0.00  0.00    +0.000 OA
ATOM     24  C   UNL     1     105.904 124.940 142.589  0.00  0.00    +0.000 C 
ATOM     25  C   UNL     1     105.726 124.881 141.786  0.00  0.00    +0.000 C 
ATOM     26  C   UNL     1     106.316 125.595 142.874  0.00  0.00    +0.000 C 
ATOM     27  C   UNL     1     105.960 125.479 141.267  0.00  0.00    +0.000 C 
ATOM     28  C   UNL     1     106.550 126.193 142.356  0.00  0.00    +0.000 C 
BRANCH  27  30
ATOM     29  O   UNL     1     105.245 125.944 140.120  0.00  0.00    +0.000 OA
ATOM     30  C   UNL     1     105.783 125.421 140.464  0.00  0.00    +0.000 C 
ENDBRANCH  27  30
BRANCH  26  31
ATOM     31  O   UNL     1     106.493 125.653 143.678  0.00  0.00    +0.000 OA
BRANCH  31  33
ATOM     32  O   UNL     1     105.194 126.114 144.053  0.00  0.00    +0.000 OA
ATOM     33  C   UNL     1     105.884 125.700 144.232  0.00  0.00    +0.000 C 
BRANCH  33  34
ATOM     34  C   UNL     1     105.966 125.333 144.967  0.00  0.00    +0.000 C 
ATOM     35  C   UNL     1     105.899 125.777 145.659  0.00  0.00    +0.000 C 
BRANCH  35  37
ATOM     36  O   UNL     1     106.229 124.310 148.598  0.00  0.00    +0.000 OA
ATOM     37  C   UNL     1     105.981 125.410 146.394  0.00  0.00    +0.000 A 
ATOM     38  C   UNL     1     105.314 125.139 146.797  0.00  0.00    +0.000 A 
ATOM     39  C   UNL     1     106.731 125.315 146.725  0.00  0.00    +0.000 A 
ATOM     40  C   UNL     1     106.813 124.948 147.460  0.00  0.00    +0.000 A 
ATOM     41  C   UNL     1     105.397 124.772 147.531  0.00  0.00    +0.000 A 
ATOM     42  C   UNL     1     106.146 124.677 147.862  0.00  0.00    +0.000 A 
BRANCH  41  43
ATOM     43  O   UNL     1     104.730 124.501 147.934  0.00  0.00    +0.000 OA
ATOM     44  C   UNL     1     104.034 124.944 147.923  0.00  0.00    +0.000 C 
ENDBRANCH  41  43
BRANCH  40  45
ATOM     45  O   UNL     1     107.562 124.852 147.792  0.00  0.00    +0.000 OA
ATOM     46  C   UNL     1     108.153 125.409 147.644  0.00  0.00    +0.000 C 
ENDBRANCH  40  45
ENDBRANCH  35  37
ENDBRANCH  33  34
ENDBRANCH  31  33
ENDBRANCH  26  31
ENDBRANCH  20  28
ENDBRANCH   7  20
BRANCH   4  47
ATOM     47  O   UNL     1     110.648 128.086 140.089  0.00  0.00    +0.000 OA
BRANCH  47  54
ATOM     48  O   UNL     1     110.105 127.723 138.817  0.00  0.00    +0.000 OA
ATOM     49  O   UNL     1     112.395 127.407 137.931  0.00  0.00    +0.000 OA
ATOM     50  O   UNL     1     111.090 127.149 136.956  0.00  0.00    +0.000 OA
ATOM     51  C   UNL     1     111.521 127.746 139.010  0.00  0.00    +0.000 C 
ATOM     52  C   UNL     1     111.632 127.512 138.226  0.00  0.00    +0.000 C 
ATOM     53  C   UNL     1     110.979 127.383 137.739  0.00  0.00    +0.000 C 
ATOM     54  C   UNL     1     110.758 127.852 139.306  0.00  0.00    +0.000 C 
ATOM     55  C   UNL     1     110.216 127.489 138.035  0.00  0.00    +0.000 C 
BRANCH  55  57
ATOM     56  O   UNL     1     109.012 127.961 137.427  0.00  0.00    +0.000 OA
ATOM     57  C   UNL     1     109.564 127.360 137.547  0.00  0.00    +0.000 C 
ENDBRANCH  55  57
BRANCH  51  58
ATOM     58  O   UNL     1     112.174 127.875 139.498  0.00  0.00    +0.000 OA
BRANCH  58  63
ATOM     59  O   UNL     1     112.245 129.233 139.055  0.00  0.00    +0.000 OA
ATOM     60  O   UNL     1     113.603 128.062 140.300  0.00  0.00    +0.000 OA
ATOM     61  O   UNL     1     114.389 129.513 140.259  0.00  0.00    +0.000 OA
ATOM     62  O   UNL     1     113.745 130.776 139.415  0.00  0.00    +0.000 OA
ATOM     63  C   UNL     1     112.567 128.601 139.477  0.00  0.00    +0.000 C 
ATOM     64  C   UNL     1     113.281 128.694 139.878  0.00  0.00    +0.000 C 
ATOM     65  C   UNL     1     113.674 129.420 139.858  0.00  0.00    +0.000 C 
ATOM     66  C   UNL     1     113.352 130.051 139.436  0.00  0.00    +0.000 C 
ATOM     67  C   UNL     1     112.638 129.957 139.035  0.00  0.00    +0.000 C 
BRANCH  67  69
ATOM     68  O   UNL     1     111.660 130.993 138.910  0.00  0.00    +0.000 OA
ATOM     69  C   UNL     1     112.316 130.589 138.613  0.00  0.00    +0.000 C 
ENDBRANCH  67  69
ENDBRANCH  58  63
ENDBRANCH  51  58
ENDBRANCH  47  54
ENDBRANCH   4  47
TORSDOF 16
ENDMDL
MODEL 7
REMARK VINA RESULT:     -10.1      3.335      9.041
REMARK  Name = 131752462
REMARK  16 active torsions:
REMARK  status: ('A' for Active; 'I' for Inactive)
REMARK    1  A    between atoms: O_1  and  C_26
REMARK    2  A    between atoms: O_1  and  C_29
REMARK    3  A    between atoms: O_4  and  C_31
REMARK    4  A    between atoms: O_4  and  C_43
REMARK    5  A    between atoms: O_13  and  C_42
REMARK    6  A    between atoms: O_13  and  C_47
REMARK    7  A    between atoms: O_14  and  C_40
REMARK    8  A    between atoms: O_14  and  C_53
REMARK    9  A    between atoms: O_23  and  C_65
REMARK   10  A    between atoms: O_24  and  C_66
REMARK   11  A    between atoms: C_32  and  C_36
REMARK   12  A    between atoms: C_35  and  C_37
REMARK   13  A    between atoms: C_41  and  C_44
REMARK   14  A    between atoms: C_52  and  C_54
REMARK   15  A    between atoms: C_53  and  C_55
REMARK   16  A    between atoms: C_58  and  C_62
REMARK                            x       y       z     vdW  Elec       q    Type
REMARK                         _______ _______ _______ _____ _____    ______ ____
ROOT
ATOM      1  O   UNL     1     109.115 129.502 138.613  0.00  0.00    +0.000 OA
ATOM      2  O   UNL     1     111.034 130.389 140.582  0.00  0.00    +0.000 OA
ATOM      3  O   UNL     1     111.461 129.911 139.288  0.00  0.00    +0.000 OA
ATOM      4  C   UNL     1     108.799 130.289 140.681  0.00  0.00    +0.000 A 
ATOM      5  C   UNL     1     108.632 129.973 139.899  0.00  0.00    +0.000 A 
ATOM      6  C   UNL     1     109.614 130.431 140.915  0.00  0.00    +0.000 A 
ATOM      7  C   UNL     1     110.512 129.473 138.314  0.00  0.00    +0.000 A 
ATOM      8  C   UNL     1     109.281 129.805 139.362  0.00  0.00    +0.000 A 
ATOM      9  C   UNL     1     110.063 129.941 139.588  0.00  0.00    +0.000 A 
ATOM     10  C   UNL     1     110.250 130.256 140.365  0.00  0.00    +0.000 A 
ATOM     11  C   UNL     1     110.678 129.775 139.064  0.00  0.00    +0.000 A 
ATOM     12  C   UNL     1     109.730 129.336 138.089  0.00  0.00    +0.000 A 
ENDROOT
BRANCH  12  14
ATOM     13  O   UNL     1     109.060 128.129 135.092  0.00  0.00    +0.000 OA
ATOM     14  C   UNL     1     109.563 129.034 137.340  0.00  0.00    +0.000 A 
ATOM     15  C   UNL     1     109.324 129.541 136.735  0.00  0.00    +0.000 A 
ATOM     16  C   UNL     1     109.634 128.225 137.196  0.00  0.00    +0.000 A 
ATOM     17  C   UNL     1     109.156 129.240 135.986  0.00  0.00    +0.000 A 
ATOM     18  C   UNL     1     109.467 127.923 136.446  0.00  0.00    +0.000 A 
ATOM     19  C   UNL     1     109.228 128.431 135.841  0.00  0.00    +0.000 A 
ENDBRANCH  12  14
BRANCH   7  20
ATOM     20  O   UNL     1     111.127 129.307 137.790  0.00  0.00    +0.000 OA
BRANCH  20  28
ATOM     21  O   UNL     1     111.361 130.668 137.429  0.00  0.00    +0.000 OA
ATOM     22  O   UNL     1     113.767 130.175 137.125  0.00  0.00    +0.000 OA
ATOM     23  O   UNL     1     113.199 131.702 136.865  0.00  0.00    +0.000 OA
ATOM     24  C   UNL     1     112.964 130.340 137.227  0.00  0.00    +0.000 C 
ATOM     25  C   UNL     1     112.681 131.103 137.096  0.00  0.00    +0.000 C 
ATOM     26  C   UNL     1     112.447 129.741 137.458  0.00  0.00    +0.000 C 
ATOM     27  C   UNL     1     111.879 131.267 137.197  0.00  0.00    +0.000 C 
ATOM     28  C   UNL     1     111.645 129.905 137.559  0.00  0.00    +0.000 C 
BRANCH  27  30
ATOM     29  O   UNL     1     111.230 132.446 137.680  0.00  0.00    +0.000 OA
ATOM     30  C   UNL     1     111.594 132.031 137.067  0.00  0.00    +0.000 C 
ENDBRANCH  27  30
BRANCH  26  31
ATOM     31  O   UNL     1     112.731 128.977 137.588  0.00  0.00    +0.000 OA
BRANCH  31  33
ATOM     32  O   UNL     1     112.971 128.812 136.189  0.00  0.00    +0.000 OA
ATOM     33  C   UNL     1     112.918 128.492 136.948  0.00  0.00    +0.000 C 
BRANCH  33  34
ATOM     34  C   UNL     1     113.052 127.686 137.066  0.00  0.00    +0.000 C 
ATOM     35  C   UNL     1     113.043 127.168 136.424  0.00  0.00    +0.000 C 
BRANCH  35  37
ATOM     36  O   UNL     1     113.579 123.946 136.896  0.00  0.00    +0.000 OA
ATOM     37  C   UNL     1     113.176 126.362 136.542  0.00  0.00    +0.000 A 
ATOM     38  C   UNL     1     112.540 125.849 136.651  0.00  0.00    +0.000 A 
ATOM     39  C   UNL     1     113.948 126.070 136.551  0.00  0.00    +0.000 A 
ATOM     40  C   UNL     1     114.082 125.264 136.669  0.00  0.00    +0.000 A 
ATOM     41  C   UNL     1     112.674 125.044 136.769  0.00  0.00    +0.000 A 
ATOM     42  C   UNL     1     113.445 124.752 136.778  0.00  0.00    +0.000 A 
BRANCH  41  43
ATOM     43  O   UNL     1     112.037 124.532 136.879  0.00  0.00    +0.000 OA
ATOM     44  C   UNL     1     111.370 124.594 136.397  0.00  0.00    +0.000 C 
ENDBRANCH  41  43
BRANCH  40  45
ATOM     45  O   UNL     1     114.853 124.971 136.678  0.00  0.00    +0.000 OA
ATOM     46  C   UNL     1     115.402 125.238 136.123  0.00  0.00    +0.000 C 
ENDBRANCH  40  45
ENDBRANCH  35  37
ENDBRANCH  33  34
ENDBRANCH  31  33
ENDBRANCH  26  31
ENDBRANCH  20  28
ENDBRANCH   7  20
BRANCH   4  47
ATOM     47  O   UNL     1     108.182 130.454 141.203  0.00  0.00    +0.000 OA
BRANCH  47  54
ATOM     48  O   UNL     1     108.154 129.156 141.801  0.00  0.00    +0.000 OA
ATOM     49  O   UNL     1     105.703 129.344 142.094  0.00  0.00    +0.000 OA
ATOM     50  O   UNL     1     106.492 127.985 142.593  0.00  0.00    +0.000 OA
ATOM     51  C   UNL     1     106.943 129.900 141.648  0.00  0.00    +0.000 C 
ATOM     52  C   UNL     1     106.520 129.282 141.996  0.00  0.00    +0.000 C 
ATOM     53  C   UNL     1     106.915 128.602 142.246  0.00  0.00    +0.000 C 
ATOM     54  C   UNL     1     107.760 129.837 141.551  0.00  0.00    +0.000 C 
ATOM     55  C   UNL     1     107.732 128.539 142.148  0.00  0.00    +0.000 C 
BRANCH  55  57
ATOM     56  O   UNL     1     108.772 127.920 142.907  0.00  0.00    +0.000 OA
ATOM     57  C   UNL     1     108.125 127.859 142.398  0.00  0.00    +0.000 C 
ENDBRANCH  55  57
BRANCH  51  58
ATOM     58  O   UNL     1     106.548 130.579 141.399  0.00  0.00    +0.000 OA
BRANCH  58  63
ATOM     59  O   UNL     1     106.718 131.177 142.686  0.00  0.00    +0.000 OA
ATOM     60  O   UNL     1     105.444 131.741 141.005  0.00  0.00    +0.000 OA
ATOM     61  O   UNL     1     105.061 132.918 142.096  0.00  0.00    +0.000 OA
ATOM     62  O   UNL     1     105.783 132.935 143.579  0.00  0.00    +0.000 OA
ATOM     63  C   UNL     1     106.357 131.169 141.944  0.00  0.00    +0.000 C 
ATOM     64  C   UNL     1     105.805 131.749 141.747  0.00  0.00    +0.000 C 
ATOM     65  C   UNL     1     105.613 132.338 142.293  0.00  0.00    +0.000 C 
ATOM     66  C   UNL     1     105.974 132.346 143.035  0.00  0.00    +0.000 C 
ATOM     67  C   UNL     1     106.526 131.765 143.231  0.00  0.00    +0.000 C 
BRANCH  67  69
ATOM     68  O   UNL     1     107.690 131.952 144.039  0.00  0.00    +0.000 OA
ATOM     69  C   UNL     1     106.887 131.774 143.973  0.00  0.00    +0.000 C 
ENDBRANCH  67  69
ENDBRANCH  58  63
ENDBRANCH  51  58
ENDBRANCH  47  54
ENDBRANCH   4  47
TORSDOF 16
ENDMDL
MODEL 8
REMARK VINA RESULT:     -10.1      1.219      2.611
REMARK  Name = 131752462
REMARK  16 active torsions:
REMARK  status: ('A' for Active; 'I' for Inactive)
REMARK    1  A    between atoms: O_1  and  C_26
REMARK    2  A    between atoms: O_1  and  C_29
REMARK    3  A    between atoms: O_4  and  C_31
REMARK    4  A    between atoms: O_4  and  C_43
REMARK    5  A    between atoms: O_13  and  C_42
REMARK    6  A    between atoms: O_13  and  C_47
REMARK    7  A    between atoms: O_14  and  C_40
REMARK    8  A    between atoms: O_14  and  C_53
REMARK    9  A    between atoms: O_23  and  C_65
REMARK   10  A    between atoms: O_24  and  C_66
REMARK   11  A    between atoms: C_32  and  C_36
REMARK   12  A    between atoms: C_35  and  C_37
REMARK   13  A    between atoms: C_41  and  C_44
REMARK   14  A    between atoms: C_52  and  C_54
REMARK   15  A    between atoms: C_53  and  C_55
REMARK   16  A    between atoms: C_58  and  C_62
REMARK                            x       y       z     vdW  Elec       q    Type
REMARK                         _______ _______ _______ _____ _____    ______ ____
ROOT
ATOM      1  O   UNL     1     108.328 126.260 140.643  0.00  0.00    +0.000 OA
ATOM      2  O   UNL     1     109.001 128.517 142.316  0.00  0.00    +0.000 OA
ATOM      3  O   UNL     1     107.972 127.583 142.704  0.00  0.00    +0.000 OA
ATOM      4  C   UNL     1     109.847 127.872 140.345  0.00  0.00    +0.000 A 
ATOM      5  C   UNL     1     109.372 127.169 140.205  0.00  0.00    +0.000 A 
ATOM      6  C   UNL     1     109.723 128.331 141.060  0.00  0.00    +0.000 A 
ATOM      7  C   UNL     1     107.638 126.467 141.877  0.00  0.00    +0.000 A 
ATOM      8  C   UNL     1     108.780 126.936 140.782  0.00  0.00    +0.000 A 
ATOM      9  C   UNL     1     108.662 127.377 141.469  0.00  0.00    +0.000 A 
ATOM     10  C   UNL     1     109.126 128.082 141.626  0.00  0.00    +0.000 A 
ATOM     11  C   UNL     1     108.091 127.142 142.017  0.00  0.00    +0.000 A 
ATOM     12  C   UNL     1     107.757 126.026 141.190  0.00  0.00    +0.000 A 
ENDROOT
BRANCH  12  14
ATOM     13  O   UNL     1     105.949 123.322 140.631  0.00  0.00    +0.000 OA
ATOM     14  C   UNL     1     107.305 125.350 141.050  0.00  0.00    +0.000 A 
ATOM     15  C   UNL     1     107.495 124.642 141.427  0.00  0.00    +0.000 A 
ATOM     16  C   UNL     1     106.662 125.383 140.533  0.00  0.00    +0.000 A 
ATOM     17  C   UNL     1     107.043 123.966 141.287  0.00  0.00    +0.000 A 
ATOM     18  C   UNL     1     106.210 124.707 140.394  0.00  0.00    +0.000 A 
ATOM     19  C   UNL     1     106.401 123.998 140.770  0.00  0.00    +0.000 A 
ENDBRANCH  12  14
BRANCH   7  20
ATOM     20  O   UNL     1     107.067 126.232 142.425  0.00  0.00    +0.000 OA
BRANCH  20  28
ATOM     21  O   UNL     1     106.126 127.242 142.057  0.00  0.00    +0.000 OA
ATOM     22  O   UNL     1     105.276 127.297 144.381  0.00  0.00    +0.000 OA
ATOM     23  O   UNL     1     104.618 128.288 143.237  0.00  0.00    +0.000 OA
ATOM     24  C   UNL     1     105.559 127.278 143.605  0.00  0.00    +0.000 C 
ATOM     25  C   UNL     1     105.230 127.774 143.035  0.00  0.00    +0.000 C 
ATOM     26  C   UNL     1     106.172 126.764 143.402  0.00  0.00    +0.000 C 
ATOM     27  C   UNL     1     105.514 127.756 142.260  0.00  0.00    +0.000 C 
ATOM     28  C   UNL     1     106.455 126.746 142.628  0.00  0.00    +0.000 C 
BRANCH  27  30
ATOM     29  O   UNL     1     104.796 127.929 141.036  0.00  0.00    +0.000 OA
ATOM     30  C   UNL     1     105.185 128.251 141.688  0.00  0.00    +0.000 C 
ENDBRANCH  27  30
BRANCH  26  31
ATOM     31  O   UNL     1     106.501 126.269 143.974  0.00  0.00    +0.000 OA
BRANCH  31  33
ATOM     32  O   UNL     1     105.517 125.233 143.971  0.00  0.00    +0.000 OA
ATOM     33  C   UNL     1     106.022 125.737 144.385  0.00  0.00    +0.000 C 
BRANCH  33  34
ATOM     34  C   UNL     1     106.047 125.711 145.209  0.00  0.00    +0.000 C 
ATOM     35  C   UNL     1     106.104 124.985 145.597  0.00  0.00    +0.000 C 
BRANCH  35  37
ATOM     36  O   UNL     1     106.206 124.880 148.894  0.00  0.00    +0.000 OA
ATOM     37  C   UNL     1     106.129 124.959 146.421  0.00  0.00    +0.000 A 
ATOM     38  C   UNL     1     105.460 124.733 146.848  0.00  0.00    +0.000 A 
ATOM     39  C   UNL     1     106.824 125.158 146.819  0.00  0.00    +0.000 A 
ATOM     40  C   UNL     1     106.850 125.132 147.643  0.00  0.00    +0.000 A 
ATOM     41  C   UNL     1     105.486 124.707 147.672  0.00  0.00    +0.000 A 
ATOM     42  C   UNL     1     106.180 124.906 148.069  0.00  0.00    +0.000 A 
BRANCH  41  43
ATOM     43  O   UNL     1     104.817 124.482 148.098  0.00  0.00    +0.000 OA
ATOM     44  C   UNL     1     104.072 124.521 147.747  0.00  0.00    +0.000 C 
ENDBRANCH  41  43
BRANCH  40  45
ATOM     45  O   UNL     1     107.544 125.331 148.041  0.00  0.00    +0.000 OA
ATOM     46  C   UNL     1     108.274 125.086 147.744  0.00  0.00    +0.000 C 
ENDBRANCH  40  45
ENDBRANCH  35  37
ENDBRANCH  33  34
ENDBRANCH  31  33
ENDBRANCH  26  31
ENDBRANCH  20  28
ENDBRANCH   7  20
BRANCH   4  47
ATOM     47  O   UNL     1     110.417 128.105 139.795  0.00  0.00    +0.000 OA
BRANCH  47  54
ATOM     48  O   UNL     1     111.497 127.420 140.433  0.00  0.00    +0.000 OA
ATOM     49  O   UNL     1     112.550 127.028 138.228  0.00  0.00    +0.000 OA
ATOM     50  O   UNL     1     113.279 126.474 139.600  0.00  0.00    +0.000 OA
ATOM     51  C   UNL     1     111.483 127.566 139.012  0.00  0.00    +0.000 C 
ATOM     52  C   UNL     1     112.199 127.158 138.963  0.00  0.00    +0.000 C 
ATOM     53  C   UNL     1     112.563 126.882 139.649  0.00  0.00    +0.000 C 
ATOM     54  C   UNL     1     111.132 127.697 139.747  0.00  0.00    +0.000 C 
ATOM     55  C   UNL     1     112.212 127.013 140.384  0.00  0.00    +0.000 C 
BRANCH  55  57
ATOM     56  O   UNL     1     112.797 127.265 141.663  0.00  0.00    +0.000 OA
ATOM     57  C   UNL     1     112.577 126.736 141.070  0.00  0.00    +0.000 C 
ENDBRANCH  55  57
BRANCH  51  58
ATOM     58  O   UNL     1     111.119 127.843 138.325  0.00  0.00    +0.000 OA
BRANCH  58  63
ATOM     59  O   UNL     1     111.833 129.078 138.420  0.00  0.00    +0.000 OA
ATOM     60  O   UNL     1     110.670 128.222 136.783  0.00  0.00    +0.000 OA
ATOM     61  O   UNL     1     111.159 129.645 136.107  0.00  0.00    +0.000 OA
ATOM     62  O   UNL     1     112.098 130.690 136.973  0.00  0.00    +0.000 OA
ATOM     63  C   UNL     1     111.364 128.555 137.987  0.00  0.00    +0.000 C 
ATOM     64  C   UNL     1     111.139 128.744 137.216  0.00  0.00    +0.000 C 
ATOM     65  C   UNL     1     111.384 129.456 136.878  0.00  0.00    +0.000 C 
ATOM     66  C   UNL     1     111.853 129.979 137.311  0.00  0.00    +0.000 C 
ATOM     67  C   UNL     1     112.078 129.789 138.082  0.00  0.00    +0.000 C 
BRANCH  67  69
ATOM     68  O   UNL     1     112.228 130.715 139.161  0.00  0.00    +0.000 OA
ATOM     69  C   UNL     1     112.547 130.311 138.515  0.00  0.00    +0.000 C 
ENDBRANCH  67  69
ENDBRANCH  58  63
ENDBRANCH  51  58
ENDBRANCH  47  54
ENDBRANCH   4  47
TORSDOF 16
ENDMDL
MODEL 9
REMARK VINA RESULT:     -10.0      3.674      7.476
REMARK  Name = 131752462
REMARK  16 active torsions:
REMARK  status: ('A' for Active; 'I' for Inactive)
REMARK    1  A    between atoms: O_1  and  C_26
REMARK    2  A    between atoms: O_1  and  C_29
REMARK    3  A    between atoms: O_4  and  C_31
REMARK    4  A    between atoms: O_4  and  C_43
REMARK    5  A    between atoms: O_13  and  C_42
REMARK    6  A    between atoms: O_13  and  C_47
REMARK    7  A    between atoms: O_14  and  C_40
REMARK    8  A    between atoms: O_14  and  C_53
REMARK    9  A    between atoms: O_23  and  C_65
REMARK   10  A    between atoms: O_24  and  C_66
REMARK   11  A    between atoms: C_32  and  C_36
REMARK   12  A    between atoms: C_35  and  C_37
REMARK   13  A    between atoms: C_41  and  C_44
REMARK   14  A    between atoms: C_52  and  C_54
REMARK   15  A    between atoms: C_53  and  C_55
REMARK   16  A    between atoms: C_58  and  C_62
REMARK                            x       y       z     vdW  Elec       q    Type
REMARK                         _______ _______ _______ _____ _____    ______ ____
ROOT
ATOM      1  O   UNL     1     105.682 129.396 143.859  0.00  0.00    +0.000 OA
ATOM      2  O   UNL     1     104.080 128.277 141.731  0.00  0.00    +0.000 OA
ATOM      3  O   UNL     1     104.828 127.427 142.625  0.00  0.00    +0.000 OA
ATOM      4  C   UNL     1     104.420 130.411 142.319  0.00  0.00    +0.000 A 
ATOM      5  C   UNL     1     104.949 130.297 142.987  0.00  0.00    +0.000 A 
ATOM      6  C   UNL     1     104.124 129.728 141.891  0.00  0.00    +0.000 A 
ATOM      7  C   UNL     1     105.621 127.980 143.678  0.00  0.00    +0.000 A 
ATOM      8  C   UNL     1     105.174 129.500 143.217  0.00  0.00    +0.000 A 
ATOM      9  C   UNL     1     104.889 128.844 142.806  0.00  0.00    +0.000 A 
ATOM     10  C   UNL     1     104.360 128.939 142.136  0.00  0.00    +0.000 A 
ATOM     11  C   UNL     1     105.113 128.084 143.036  0.00  0.00    +0.000 A 
ATOM     12  C   UNL     1     105.906 128.636 144.089  0.00  0.00    +0.000 A 
ENDROOT
BRANCH  12  14
ATOM     13  O   UNL     1     107.940 128.224 146.655  0.00  0.00    +0.000 OA
ATOM     14  C   UNL     1     106.413 128.533 144.731  0.00  0.00    +0.000 A 
ATOM     15  C   UNL     1     107.224 128.654 144.638  0.00  0.00    +0.000 A 
ATOM     16  C   UNL     1     106.111 128.309 145.465  0.00  0.00    +0.000 A 
ATOM     17  C   UNL     1     107.733 128.551 145.279  0.00  0.00    +0.000 A 
ATOM     18  C   UNL     1     106.620 128.206 146.106  0.00  0.00    +0.000 A 
ATOM     19  C   UNL     1     107.431 128.327 146.013  0.00  0.00    +0.000 A 
ENDBRANCH  12  14
BRANCH   7  20
ATOM     20  O   UNL     1     105.844 127.220 143.909  0.00  0.00    +0.000 OA
BRANCH  20  28
ATOM     21  O   UNL     1     106.792 127.024 142.859  0.00  0.00    +0.000 OA
ATOM     22  O   UNL     1     106.222 124.616 142.793  0.00  0.00    +0.000 OA
ATOM     23  O   UNL     1     107.361 125.223 141.764  0.00  0.00    +0.000 OA
ATOM     24  C   UNL     1     106.412 125.420 142.815  0.00  0.00    +0.000 C 
ATOM     25  C   UNL     1     106.981 125.722 142.300  0.00  0.00    +0.000 C 
ATOM     26  C   UNL     1     106.033 125.919 143.351  0.00  0.00    +0.000 C 
ATOM     27  C   UNL     1     107.171 126.525 142.322  0.00  0.00    +0.000 C 
ATOM     28  C   UNL     1     106.223 126.721 143.373  0.00  0.00    +0.000 C 
BRANCH  27  30
ATOM     29  O   UNL     1     108.454 127.117 142.105  0.00  0.00    +0.000 OA
ATOM     30  C   UNL     1     107.740 126.828 141.808  0.00  0.00    +0.000 C 
ENDBRANCH  27  30
BRANCH  26  31
ATOM     31  O   UNL     1     105.464 125.615 143.865  0.00  0.00    +0.000 OA
BRANCH  31  33
ATOM     32  O   UNL     1     106.469 124.944 144.628  0.00  0.00    +0.000 OA
ATOM     33  C   UNL     1     105.696 125.224 144.553  0.00  0.00    +0.000 C 
BRANCH  33  34
ATOM     34  C   UNL     1     105.156 125.111 145.167  0.00  0.00    +0.000 C 
ATOM     35  C   UNL     1     105.306 124.548 145.751  0.00  0.00    +0.000 C 
BRANCH  35  37
ATOM     36  O   UNL     1     103.144 124.099 148.204  0.00  0.00    +0.000 OA
ATOM     37  C   UNL     1     104.765 124.436 146.364  0.00  0.00    +0.000 A 
ATOM     38  C   UNL     1     104.914 124.757 147.110  0.00  0.00    +0.000 A 
ATOM     39  C   UNL     1     104.076 124.003 146.232  0.00  0.00    +0.000 A 
ATOM     40  C   UNL     1     103.535 123.890 146.845  0.00  0.00    +0.000 A 
ATOM     41  C   UNL     1     104.373 124.644 147.722  0.00  0.00    +0.000 A 
ATOM     42  C   UNL     1     103.685 124.212 147.590  0.00  0.00    +0.000 A 
BRANCH  41  43
ATOM     43  O   UNL     1     104.523 124.965 148.467  0.00  0.00    +0.000 OA
ATOM     44  C   UNL     1     105.299 125.115 148.704  0.00  0.00    +0.000 C 
ENDBRANCH  41  43
BRANCH  40  45
ATOM     45  O   UNL     1     102.846 123.457 146.713  0.00  0.00    +0.000 OA
ATOM     46  C   UNL     1     102.852 122.821 146.188  0.00  0.00    +0.000 C 
ENDBRANCH  40  45
ENDBRANCH  35  37
ENDBRANCH  33  34
ENDBRANCH  31  33
ENDBRANCH  26  31
ENDBRANCH  20  28
ENDBRANCH   7  20
BRANCH   4  47
ATOM     47  O   UNL     1     104.198 131.173 142.090  0.00  0.00    +0.000 OA
BRANCH  47  54
ATOM     48  O   UNL     1     103.208 131.391 143.097  0.00  0.00    +0.000 OA
ATOM     49  O   UNL     1     101.778 132.547 141.441  0.00  0.00    +0.000 OA
ATOM     50  O   UNL     1     101.265 132.379 142.999  0.00  0.00    +0.000 OA
ATOM     51  C   UNL     1     102.989 131.859 141.766  0.00  0.00    +0.000 C 
ATOM     52  C   UNL     1     102.255 132.161 141.993  0.00  0.00    +0.000 C 
ATOM     53  C   UNL     1     101.999 132.078 142.773  0.00  0.00    +0.000 C 
ATOM     54  C   UNL     1     103.465 131.474 142.318  0.00  0.00    +0.000 C 
ATOM     55  C   UNL     1     102.475 131.692 143.325  0.00  0.00    +0.000 C 
BRANCH  55  57
ATOM     56  O   UNL     1     102.696 131.867 144.726  0.00  0.00    +0.000 OA
ATOM     57  C   UNL     1     102.219 131.609 144.104  0.00  0.00    +0.000 C 
ENDBRANCH  55  57
BRANCH  51  58
ATOM     58  O   UNL     1     103.245 131.943 140.986  0.00  0.00    +0.000 OA
BRANCH  58  63
ATOM     59  O   UNL     1     103.788 133.228 141.297  0.00  0.00    +0.000 OA
ATOM     60  O   UNL     1     103.577 132.190 139.389  0.00  0.00    +0.000 OA
ATOM     61  O   UNL     1     104.285 133.598 138.901  0.00  0.00    +0.000 OA
ATOM     62  O   UNL     1     104.662 134.759 140.011  0.00  0.00    +0.000 OA
ATOM     63  C   UNL     1     103.599 132.648 140.742  0.00  0.00    +0.000 C 
ATOM     64  C   UNL     1     103.765 132.770 139.943  0.00  0.00    +0.000 C 
ATOM     65  C   UNL     1     104.120 133.475 139.700  0.00  0.00    +0.000 C 
ATOM     66  C   UNL     1     104.308 134.056 140.254  0.00  0.00    +0.000 C 
ATOM     67  C   UNL     1     104.142 133.932 141.053  0.00  0.00    +0.000 C 
BRANCH  67  69
ATOM     68  O   UNL     1     104.965 134.400 142.125  0.00  0.00    +0.000 OA
ATOM     69  C   UNL     1     104.330 134.513 141.608  0.00  0.00    +0.000 C 
ENDBRANCH  67  69
ENDBRANCH  58  63
ENDBRANCH  51  58
ENDBRANCH  47  54
ENDBRANCH   4  47
TORSDOF 16
ENDMDL
MODEL 10
REMARK VINA RESULT:     -10.0      5.474      9.107
REMARK  Name = 131752462
REMARK  16 active torsions:
REMARK  status: ('A' for Active; 'I' for Inactive)
REMARK    1  A    between atoms: O_1  and  C_26
REMARK    2  A    between atoms: O_1  and  C_29
REMARK    3  A    between atoms: O_4  and  C_31
REMARK    4  A    between atoms: O_4  and  C_43
REMARK    5  A    between atoms: O_13  and  C_42
REMARK    6  A    between atoms: O_13  and  C_47
REMARK    7  A    between atoms: O_14  and  C_40
REMARK    8  A    between atoms: O_14  and  C_53
REMARK    9  A    between atoms: O_23  and  C_65
REMARK   10  A    between atoms: O_24  and  C_66
REMARK   11  A    between atoms: C_32  and  C_36
REMARK   12  A    between atoms: C_35  and  C_37
REMARK   13  A    between atoms: C_41  and  C_44
REMARK   14  A    between atoms: C_52  and  C_54
REMARK   15  A    between atoms: C_53  and  C_55
REMARK   16  A    between atoms: C_58  and  C_62
REMARK                            x       y       z     vdW  Elec       q    Type
REMARK                         _______ _______ _______ _____ _____    ______ ____
ROOT
ATOM      1  O   UNL     1     105.423 128.926 146.256  0.00  0.00    +0.000 OA
ATOM      2  O   UNL     1     107.034 127.503 144.325  0.00  0.00    +0.000 OA
ATOM      3  O   UNL     1     107.140 128.934 144.473  0.00  0.00    +0.000 OA
ATOM      4  C   UNL     1     105.506 126.744 145.776  0.00  0.00    +0.000 A 
ATOM      5  C   UNL     1     105.277 127.485 146.148  0.00  0.00    +0.000 A 
ATOM      6  C   UNL     1     106.103 126.748 145.158  0.00  0.00    +0.000 A 
ATOM      7  C   UNL     1     106.344 129.639 145.428  0.00  0.00    +0.000 A 
ATOM      8  C   UNL     1     105.647 128.218 145.896  0.00  0.00    +0.000 A 
ATOM      9  C   UNL     1     106.219 128.221 145.301  0.00  0.00    +0.000 A 
ATOM     10  C   UNL     1     106.461 127.491 144.919  0.00  0.00    +0.000 A 
ATOM     11  C   UNL     1     106.568 128.931 145.067  0.00  0.00    +0.000 A 
ATOM     12  C   UNL     1     105.772 129.636 146.022  0.00  0.00    +0.000 A 
ENDROOT
BRANCH  12  14
ATOM     13  O   UNL     1     104.876 132.464 147.466  0.00  0.00    +0.000 OA
ATOM     14  C   UNL     1     105.547 130.343 146.382  0.00  0.00    +0.000 A 
ATOM     15  C   UNL     1     105.999 130.652 147.000  0.00  0.00    +0.000 A 
ATOM     16  C   UNL     1     104.872 130.741 146.126  0.00  0.00    +0.000 A 
ATOM     17  C   UNL     1     105.775 131.359 147.361  0.00  0.00    +0.000 A 
ATOM     18  C   UNL     1     104.648 131.448 146.487  0.00  0.00    +0.000 A 
ATOM     19  C   UNL     1     105.099 131.757 147.105  0.00  0.00    +0.000 A 
ENDBRANCH  12  14
BRANCH   7  20
ATOM     20  O   UNL     1     106.692 130.349 145.194  0.00  0.00    +0.000 OA
BRANCH  20  28
ATOM     21  O   UNL     1     106.023 130.389 143.933  0.00  0.00    +0.000 OA
ATOM     22  O   UNL     1     107.933 131.626 142.958  0.00  0.00    +0.000 OA
ATOM     23  O   UNL     1     106.626 131.253 142.021  0.00  0.00    +0.000 OA
ATOM     24  C   UNL     1     107.296 131.213 143.283  0.00  0.00    +0.000 C 
ATOM     25  C   UNL     1     106.643 131.027 142.814  0.00  0.00    +0.000 C 
ATOM     26  C   UNL     1     107.312 130.987 144.076  0.00  0.00    +0.000 C 
ATOM     27  C   UNL     1     106.007 130.615 143.139  0.00  0.00    +0.000 C 
ATOM     28  C   UNL     1     106.676 130.575 144.401  0.00  0.00    +0.000 C 
BRANCH  27  30
ATOM     29  O   UNL     1     104.611 130.736 142.856  0.00  0.00    +0.000 OA
ATOM     30  C   UNL     1     105.354 130.429 142.671  0.00  0.00    +0.000 C 
ENDBRANCH  27  30
BRANCH  26  31
ATOM     31  O   UNL     1     107.966 131.173 144.545  0.00  0.00    +0.000 OA
BRANCH  31  33
ATOM     32  O   UNL     1     107.635 132.562 144.467  0.00  0.00    +0.000 OA
ATOM     33  C   UNL     1     108.092 131.952 144.785  0.00  0.00    +0.000 C 
BRANCH  33  34
ATOM     34  C   UNL     1     108.675 132.122 145.344  0.00  0.00    +0.000 C 
ATOM     35  C   UNL     1     108.846 132.906 145.537  0.00  0.00    +0.000 C 
BRANCH  35  37
ATOM     36  O   UNL     1     111.177 133.586 147.772  0.00  0.00    +0.000 OA
ATOM     37  C   UNL     1     109.429 133.076 146.095  0.00  0.00    +0.000 A 
ATOM     38  C   UNL     1     110.223 133.091 145.872  0.00  0.00    +0.000 A 
ATOM     39  C   UNL     1     109.217 133.230 146.878  0.00  0.00    +0.000 A 
ATOM     40  C   UNL     1     109.800 133.400 147.437  0.00  0.00    +0.000 A 
ATOM     41  C   UNL     1     110.805 133.261 146.431  0.00  0.00    +0.000 A 
ATOM     42  C   UNL     1     110.594 133.416 147.213  0.00  0.00    +0.000 A 
BRANCH  41  43
ATOM     43  O   UNL     1     111.599 133.277 146.207  0.00  0.00    +0.000 OA
ATOM     44  C   UNL     1     111.809 133.526 145.450  0.00  0.00    +0.000 C 
ENDBRANCH  41  43
BRANCH  40  45
ATOM     45  O   UNL     1     109.589 133.555 148.219  0.00  0.00    +0.000 OA
ATOM     46  C   UNL     1     108.803 133.716 148.410  0.00  0.00    +0.000 C 
ENDBRANCH  40  45
ENDBRANCH  35  37
ENDBRANCH  33  34
ENDBRANCH  31  33
ENDBRANCH  26  31
ENDBRANCH  20  28
ENDBRANCH   7  20
BRANCH   4  47
ATOM     47  O   UNL     1     105.157 126.035 146.012  0.00  0.00    +0.000 OA
BRANCH  47  54
ATOM     48  O   UNL     1     106.260 125.587 146.802  0.00  0.00    +0.000 OA
ATOM     49  O   UNL     1     104.690 124.506 148.382  0.00  0.00    +0.000 OA
ATOM     50  O   UNL     1     106.316 124.419 148.645  0.00  0.00    +0.000 OA
ATOM     51  C   UNL     1     104.923 125.271 147.196  0.00  0.00    +0.000 C 
ATOM     52  C   UNL     1     105.213 124.867 147.855  0.00  0.00    +0.000 C 
ATOM     53  C   UNL     1     106.026 124.823 147.986  0.00  0.00    +0.000 C 
ATOM     54  C   UNL     1     105.446 125.631 146.670  0.00  0.00    +0.000 C 
ATOM     55  C   UNL     1     106.550 125.183 147.460  0.00  0.00    +0.000 C 
BRANCH  55  57
ATOM     56  O   UNL     1     107.874 124.970 146.967  0.00  0.00    +0.000 OA
ATOM     57  C   UNL     1     107.362 125.140 147.592  0.00  0.00    +0.000 C 
ENDBRANCH  55  57
BRANCH  51  58
ATOM     58  O   UNL     1     104.110 125.315 147.065  0.00  0.00    +0.000 OA
BRANCH  58  63
ATOM     59  O   UNL     1     104.110 124.143 146.246  0.00  0.00    +0.000 OA
ATOM     60  O   UNL     1     102.511 125.081 147.398  0.00  0.00    +0.000 OA
ATOM     61  O   UNL     1     101.712 123.793 146.746  0.00  0.00    +0.000 OA
ATOM     62  O   UNL     1     102.512 122.739 145.760  0.00  0.00    +0.000 OA
ATOM     63  C   UNL     1     103.710 124.670 146.738  0.00  0.00    +0.000 C 
ATOM     64  C   UNL     1     102.911 124.554 146.905  0.00  0.00    +0.000 C 
ATOM     65  C   UNL     1     102.511 123.909 146.579  0.00  0.00    +0.000 C 
ATOM     66  C   UNL     1     102.911 123.382 146.086  0.00  0.00    +0.000 C 
ATOM     67  C   UNL     1     103.711 123.500 145.920  0.00  0.00    +0.000 C 
BRANCH  67  69
ATOM     68  O   UNL     1     104.393 123.226 144.693  0.00  0.00    +0.000 OA
ATOM     69  C   UNL     1     104.111 122.973 145.427  0.00  0.00    +0.000 C 
ENDBRANCH  67  69
ENDBRANCH  58  63
ENDBRANCH  51  58
ENDBRANCH  47  54
ENDBRANCH   4  47
TORSDOF 16
ENDMDL
