MODEL 1
REMARK VINA RESULT:      -8.2      0.000      0.000
REMARK  Name = 602152
REMARK  3 active torsions:
REMARK  status: ('A' for Active; 'I' for Inactive)
REMARK    1  A    between atoms: O_3  and  C_16
REMARK    2  A    between atoms: O_4  and  C_19
REMARK    3  A    between atoms: C_6  and  C_9
REMARK                            x       y       z     vdW  Elec       q    Type
REMARK                         _______ _______ _______ _____ _____    ______ ____
ROOT
ATOM      1  O   UNL     1     102.643 123.754 138.101  0.00  0.00    +0.000 OA
ATOM      2  O   UNL     1     102.311 122.739 135.391  0.00  0.00    +0.000 OA
ATOM      3  C   UNL     1     103.945 123.855 138.680  0.00  0.00    +0.000 C 
ATOM      4  C   UNL     1     104.277 123.556 137.986  0.00  0.00    +0.000 C 
ATOM      5  C   UNL     1     103.128 123.954 138.738  0.00  0.00    +0.000 C 
ATOM      6  C   UNL     1     103.792 123.356 137.350  0.00  0.00    +0.000 A 
ATOM      7  C   UNL     1     102.975 123.455 137.407  0.00  0.00    +0.000 A 
ATOM      8  C   UNL     1     104.149 123.046 136.633  0.00  0.00    +0.000 A 
ATOM      9  C   UNL     1     102.459 123.250 136.751  0.00  0.00    +0.000 A 
ATOM     10  C   UNL     1     103.649 122.835 135.967  0.00  0.00    +0.000 A 
ATOM     11  C   UNL     1     102.798 122.938 136.026  0.00  0.00    +0.000 A 
ENDROOT
BRANCH   3  13
ATOM     12  O   UNL     1     104.201 122.771 139.897  0.00  0.00    +0.000 OA
ATOM     13  C   UNL     1     104.431 124.055 139.316  0.00  0.00    +0.000 A 
ATOM     14  C   UNL     1     104.559 123.513 139.925  0.00  0.00    +0.000 A 
ATOM     15  C   UNL     1     104.790 124.798 139.343  0.00  0.00    +0.000 A 
ATOM     16  C   UNL     1     105.045 123.714 140.561  0.00  0.00    +0.000 A 
ATOM     17  C   UNL     1     105.275 124.998 139.979  0.00  0.00    +0.000 A 
ATOM     18  C   UNL     1     105.403 124.456 140.588  0.00  0.00    +0.000 A 
BRANCH  16  19
ATOM     19  O   UNL     1     105.173 123.172 141.169  0.00  0.00    +0.000 OA
ATOM     20  C   UNL     1     104.585 123.036 141.732  0.00  0.00    +0.000 C 
ENDBRANCH  16  19
BRANCH  18  21
ATOM     21  O   UNL     1     105.889 124.657 141.224  0.00  0.00    +0.000 OA
ATOM     22  C   UNL     1     106.378 125.320 141.177  0.00  0.00    +0.000 C 
ENDBRANCH  18  21
ENDBRANCH   3  13
TORSDOF 3
ENDMDL
MODEL 2
REMARK VINA RESULT:      -8.0      7.043      9.106
REMARK  Name = 602152
REMARK  3 active torsions:
REMARK  status: ('A' for Active; 'I' for Inactive)
REMARK    1  A    between atoms: O_3  and  C_16
REMARK    2  A    between atoms: O_4  and  C_19
REMARK    3  A    between atoms: C_6  and  C_9
REMARK                            x       y       z     vdW  Elec       q    Type
REMARK                         _______ _______ _______ _____ _____    ______ ____
ROOT
ATOM      1  O   UNL     1     105.977 125.203 146.220  0.00  0.00    +0.000 OA
ATOM      2  O   UNL     1     108.490 125.446 147.670  0.00  0.00    +0.000 OA
ATOM      3  C   UNL     1     104.837 124.608 146.843  0.00  0.00    +0.000 C 
ATOM      4  C   UNL     1     105.277 124.486 147.531  0.00  0.00    +0.000 C 
ATOM      5  C   UNL     1     105.187 124.967 146.187  0.00  0.00    +0.000 C 
ATOM      6  C   UNL     1     106.066 124.723 147.562  0.00  0.00    +0.000 A 
ATOM      7  C   UNL     1     106.416 125.082 146.907  0.00  0.00    +0.000 A 
ATOM      8  C   UNL     1     106.514 124.591 148.284  0.00  0.00    +0.000 A 
ATOM      9  C   UNL     1     107.238 125.333 146.928  0.00  0.00    +0.000 A 
ATOM     10  C   UNL     1     107.337 124.835 148.323  0.00  0.00    +0.000 A 
ATOM     11  C   UNL     1     107.701 125.209 147.641  0.00  0.00    +0.000 A 
ENDROOT
BRANCH   3  13
ATOM     12  O   UNL     1     104.421 123.224 146.047  0.00  0.00    +0.000 OA
ATOM     13  C   UNL     1     104.047 124.372 146.811  0.00  0.00    +0.000 A 
ATOM     14  C   UNL     1     103.839 123.679 146.414  0.00  0.00    +0.000 A 
ATOM     15  C   UNL     1     103.465 124.828 147.178  0.00  0.00    +0.000 A 
ATOM     16  C   UNL     1     103.049 123.443 146.383  0.00  0.00    +0.000 A 
ATOM     17  C   UNL     1     102.676 124.591 147.147  0.00  0.00    +0.000 A 
ATOM     18  C   UNL     1     102.468 123.899 146.749  0.00  0.00    +0.000 A 
BRANCH  16  19
ATOM     19  O   UNL     1     102.841 122.751 145.985  0.00  0.00    +0.000 OA
ATOM     20  C   UNL     1     102.819 122.739 145.161  0.00  0.00    +0.000 C 
ENDBRANCH  16  19
BRANCH  18  21
ATOM     21  O   UNL     1     101.678 123.663 146.719  0.00  0.00    +0.000 OA
ATOM     22  C   UNL     1     101.130 123.985 147.244  0.00  0.00    +0.000 C 
ENDBRANCH  18  21
ENDBRANCH   3  13
TORSDOF 3
ENDMDL
MODEL 3
REMARK VINA RESULT:      -7.7      7.268      8.035
REMARK  Name = 602152
REMARK  3 active torsions:
REMARK  status: ('A' for Active; 'I' for Inactive)
REMARK    1  A    between atoms: O_3  and  C_16
REMARK    2  A    between atoms: O_4  and  C_19
REMARK    3  A    between atoms: C_6  and  C_9
REMARK                            x       y       z     vdW  Elec       q    Type
REMARK                         _______ _______ _______ _____ _____    ______ ____
ROOT
ATOM      1  O   UNL     1     103.580 123.172 145.899  0.00  0.00    +0.000 OA
ATOM      2  O   UNL     1     100.711 123.225 146.395  0.00  0.00    +0.000 OA
ATOM      3  C   UNL     1     104.421 124.212 146.401  0.00  0.00    +0.000 C 
ATOM      4  C   UNL     1     103.763 124.583 146.735  0.00  0.00    +0.000 C 
ATOM      5  C   UNL     1     104.330 123.507 145.983  0.00  0.00    +0.000 C 
ATOM      6  C   UNL     1     103.014 124.247 146.650  0.00  0.00    +0.000 A 
ATOM      7  C   UNL     1     102.923 123.541 146.232  0.00  0.00    +0.000 A 
ATOM      8  C   UNL     1     102.336 124.641 147.002  0.00  0.00    +0.000 A 
ATOM      9  C   UNL     1     102.148 123.182 146.137  0.00  0.00    +0.000 A 
ATOM     10  C   UNL     1     101.554 124.297 146.917  0.00  0.00    +0.000 A 
ATOM     11  C   UNL     1     101.459 123.562 146.481  0.00  0.00    +0.000 A 
ENDROOT
BRANCH   3  13
ATOM     12  O   UNL     1     105.160 124.922 145.108  0.00  0.00    +0.000 OA
ATOM     13  C   UNL     1     105.169 124.548 146.486  0.00  0.00    +0.000 A 
ATOM     14  C   UNL     1     105.539 124.903 145.839  0.00  0.00    +0.000 A 
ATOM     15  C   UNL     1     105.549 124.529 147.219  0.00  0.00    +0.000 A 
ATOM     16  C   UNL     1     106.288 125.239 145.926  0.00  0.00    +0.000 A 
ATOM     17  C   UNL     1     106.297 124.865 147.304  0.00  0.00    +0.000 A 
ATOM     18  C   UNL     1     106.667 125.220 146.658  0.00  0.00    +0.000 A 
BRANCH  16  19
ATOM     19  O   UNL     1     106.657 125.594 145.279  0.00  0.00    +0.000 OA
ATOM     20  C   UNL     1     106.439 126.354 145.045  0.00  0.00    +0.000 C 
ENDBRANCH  16  19
BRANCH  18  21
ATOM     21  O   UNL     1     107.416 125.556 146.744  0.00  0.00    +0.000 OA
ATOM     22  C   UNL     1     107.840 125.445 147.442  0.00  0.00    +0.000 C 
ENDBRANCH  18  21
ENDBRANCH   3  13
TORSDOF 3
ENDMDL
MODEL 4
REMARK VINA RESULT:      -7.7      1.059      2.056
REMARK  Name = 602152
REMARK  3 active torsions:
REMARK  status: ('A' for Active; 'I' for Inactive)
REMARK    1  A    between atoms: O_3  and  C_16
REMARK    2  A    between atoms: O_4  and  C_19
REMARK    3  A    between atoms: C_6  and  C_9
REMARK                            x       y       z     vdW  Elec       q    Type
REMARK                         _______ _______ _______ _____ _____    ______ ____
ROOT
ATOM      1  O   UNL     1     104.837 123.267 138.328  0.00  0.00    +0.000 OA
ATOM      2  O   UNL     1     102.447 123.175 136.666  0.00  0.00    +0.000 OA
ATOM      3  C   UNL     1     104.816 123.939 139.589  0.00  0.00    +0.000 C 
ATOM      4  C   UNL     1     104.023 124.136 139.470  0.00  0.00    +0.000 C 
ATOM      5  C   UNL     1     105.223 123.504 139.018  0.00  0.00    +0.000 C 
ATOM      6  C   UNL     1     103.638 123.899 138.780  0.00  0.00    +0.000 A 
ATOM      7  C   UNL     1     104.045 123.464 138.209  0.00  0.00    +0.000 A 
ATOM      8  C   UNL     1     102.813 124.111 138.668  0.00  0.00    +0.000 A 
ATOM      9  C   UNL     1     103.654 123.211 137.486  0.00  0.00    +0.000 A 
ATOM     10  C   UNL     1     102.406 123.866 137.951  0.00  0.00    +0.000 A 
ATOM     11  C   UNL     1     102.830 123.414 137.357  0.00  0.00    +0.000 A 
ENDROOT
BRANCH   3  13
ATOM     12  O   UNL     1     105.863 125.214 139.554  0.00  0.00    +0.000 OA
ATOM     13  C   UNL     1     105.200 124.176 140.279  0.00  0.00    +0.000 A 
ATOM     14  C   UNL     1     105.724 124.814 140.261  0.00  0.00    +0.000 A 
ATOM     15  C   UNL     1     105.061 123.775 140.987  0.00  0.00    +0.000 A 
ATOM     16  C   UNL     1     106.108 125.050 140.952  0.00  0.00    +0.000 A 
ATOM     17  C   UNL     1     105.446 124.013 141.677  0.00  0.00    +0.000 A 
ATOM     18  C   UNL     1     105.969 124.650 141.659  0.00  0.00    +0.000 A 
BRANCH  16  19
ATOM     19  O   UNL     1     106.631 125.688 140.935  0.00  0.00    +0.000 OA
ATOM     20  C   UNL     1     107.422 125.568 140.732  0.00  0.00    +0.000 C 
ENDBRANCH  16  19
BRANCH  18  21
ATOM     21  O   UNL     1     106.354 124.887 142.350  0.00  0.00    +0.000 OA
ATOM     22  C   UNL     1     106.004 124.751 143.084  0.00  0.00    +0.000 C 
ENDBRANCH  18  21
ENDBRANCH   3  13
TORSDOF 3
ENDMDL
MODEL 5
REMARK VINA RESULT:      -7.6      5.296      8.704
REMARK  Name = 602152
REMARK  3 active torsions:
REMARK  status: ('A' for Active; 'I' for Inactive)
REMARK    1  A    between atoms: O_3  and  C_16
REMARK    2  A    between atoms: O_4  and  C_19
REMARK    3  A    between atoms: C_6  and  C_9
REMARK                            x       y       z     vdW  Elec       q    Type
REMARK                         _______ _______ _______ _____ _____    ______ ____
ROOT
ATOM      1  O   UNL     1     105.627 124.679 147.300  0.00  0.00    +0.000 OA
ATOM      2  O   UNL     1     107.317 124.152 149.612  0.00  0.00    +0.000 OA
ATOM      3  C   UNL     1     106.132 125.423 146.189  0.00  0.00    +0.000 C 
ATOM      4  C   UNL     1     106.859 125.502 146.573  0.00  0.00    +0.000 C 
ATOM      5  C   UNL     1     105.516 125.011 146.553  0.00  0.00    +0.000 C 
ATOM      6  C   UNL     1     106.968 125.169 147.320  0.00  0.00    +0.000 A 
ATOM      7  C   UNL     1     106.353 124.758 147.683  0.00  0.00    +0.000 A 
ATOM      8  C   UNL     1     107.730 125.258 147.709  0.00  0.00    +0.000 A 
ATOM      9  C   UNL     1     106.455 124.406 148.461  0.00  0.00    +0.000 A 
ATOM     10  C   UNL     1     107.850 124.914 148.487  0.00  0.00    +0.000 A 
ATOM     11  C   UNL     1     107.209 124.485 148.865  0.00  0.00    +0.000 A 
ENDROOT
BRANCH   3  13
ATOM     12  O   UNL     1     106.414 124.525 144.835  0.00  0.00    +0.000 OA
ATOM     13  C   UNL     1     106.022 125.756 145.443  0.00  0.00    +0.000 A 
ATOM     14  C   UNL     1     106.163 125.307 144.765  0.00  0.00    +0.000 A 
ATOM     15  C   UNL     1     105.771 126.540 145.374  0.00  0.00    +0.000 A 
ATOM     16  C   UNL     1     106.053 125.641 144.019  0.00  0.00    +0.000 A 
ATOM     17  C   UNL     1     105.661 126.873 144.627  0.00  0.00    +0.000 A 
ATOM     18  C   UNL     1     105.802 126.423 143.950  0.00  0.00    +0.000 A 
BRANCH  16  19
ATOM     19  O   UNL     1     106.195 125.192 143.341  0.00  0.00    +0.000 OA
ATOM     20  C   UNL     1     105.653 124.615 143.109  0.00  0.00    +0.000 C 
ENDBRANCH  16  19
BRANCH  18  21
ATOM     21  O   UNL     1     105.692 126.758 143.203  0.00  0.00    +0.000 OA
ATOM     22  C   UNL     1     105.577 127.570 143.128  0.00  0.00    +0.000 C 
ENDBRANCH  18  21
ENDBRANCH   3  13
TORSDOF 3
ENDMDL
MODEL 6
REMARK VINA RESULT:      -7.6      6.622      8.247
REMARK  Name = 602152
REMARK  3 active torsions:
REMARK  status: ('A' for Active; 'I' for Inactive)
REMARK    1  A    between atoms: O_3  and  C_16
REMARK    2  A    between atoms: O_4  and  C_19
REMARK    3  A    between atoms: C_6  and  C_9
REMARK                            x       y       z     vdW  Elec       q    Type
REMARK                         _______ _______ _______ _____ _____    ______ ____
ROOT
ATOM      1  O   UNL     1     103.346 129.095 140.717  0.00  0.00    +0.000 OA
ATOM      2  O   UNL     1     105.140 127.099 141.847  0.00  0.00    +0.000 OA
ATOM      3  C   UNL     1     103.030 130.281 141.448  0.00  0.00    +0.000 C 
ATOM      4  C   UNL     1     103.514 130.028 142.067  0.00  0.00    +0.000 C 
ATOM      5  C   UNL     1     102.946 129.815 140.772  0.00  0.00    +0.000 C 
ATOM      6  C   UNL     1     103.912 129.308 142.010  0.00  0.00    +0.000 A 
ATOM      7  C   UNL     1     103.828 128.841 141.335  0.00  0.00    +0.000 A 
ATOM      8  C   UNL     1     104.412 129.054 142.662  0.00  0.00    +0.000 A 
ATOM      9  C   UNL     1     104.239 128.089 141.265  0.00  0.00    +0.000 A 
ATOM     10  C   UNL     1     104.830 128.305 142.609  0.00  0.00    +0.000 A 
ATOM     11  C   UNL     1     104.743 127.820 141.906  0.00  0.00    +0.000 A 
ENDROOT
BRANCH   3  13
ATOM     12  O   UNL     1     103.651 131.628 140.725  0.00  0.00    +0.000 OA
ATOM     13  C   UNL     1     102.632 131.001 141.504  0.00  0.00    +0.000 A 
ATOM     14  C   UNL     1     102.942 131.675 141.143  0.00  0.00    +0.000 A 
ATOM     15  C   UNL     1     101.922 131.047 141.923  0.00  0.00    +0.000 A 
ATOM     16  C   UNL     1     102.543 132.394 141.200  0.00  0.00    +0.000 A 
ATOM     17  C   UNL     1     101.524 131.767 141.980  0.00  0.00    +0.000 A 
ATOM     18  C   UNL     1     101.834 132.441 141.619  0.00  0.00    +0.000 A 
BRANCH  16  19
ATOM     19  O   UNL     1     102.853 133.068 140.839  0.00  0.00    +0.000 OA
ATOM     20  C   UNL     1     103.491 133.464 141.181  0.00  0.00    +0.000 C 
ENDBRANCH  16  19
BRANCH  18  21
ATOM     21  O   UNL     1     101.434 133.160 141.676  0.00  0.00    +0.000 OA
ATOM     22  C   UNL     1     100.714 133.202 142.076  0.00  0.00    +0.000 C 
ENDBRANCH  18  21
ENDBRANCH   3  13
TORSDOF 3
ENDMDL
MODEL 7
REMARK VINA RESULT:      -7.5      9.118     10.618
REMARK  Name = 602152
REMARK  3 active torsions:
REMARK  status: ('A' for Active; 'I' for Inactive)
REMARK    1  A    between atoms: O_3  and  C_16
REMARK    2  A    between atoms: O_4  and  C_19
REMARK    3  A    between atoms: C_6  and  C_9
REMARK                            x       y       z     vdW  Elec       q    Type
REMARK                         _______ _______ _______ _____ _____    ______ ____
ROOT
ATOM      1  O   UNL     1     112.312 126.297 136.246  0.00  0.00    +0.000 OA
ATOM      2  O   UNL     1     112.941 123.522 136.866  0.00  0.00    +0.000 OA
ATOM      3  C   UNL     1     113.295 127.319 136.425  0.00  0.00    +0.000 C 
ATOM      4  C   UNL     1     113.835 126.753 136.690  0.00  0.00    +0.000 C 
ATOM      5  C   UNL     1     112.533 127.091 136.203  0.00  0.00    +0.000 C 
ATOM      6  C   UNL     1     113.612 125.960 136.732  0.00  0.00    +0.000 A 
ATOM      7  C   UNL     1     112.851 125.732 136.510  0.00  0.00    +0.000 A 
ATOM      8  C   UNL     1     114.183 125.380 137.009  0.00  0.00    +0.000 A 
ATOM      9  C   UNL     1     112.608 124.908 136.550  0.00  0.00    +0.000 A 
ATOM     10  C   UNL     1     113.958 124.552 137.055  0.00  0.00    +0.000 A 
ATOM     11  C   UNL     1     113.166 124.315 136.824  0.00  0.00    +0.000 A 
ENDROOT
BRANCH   3  13
ATOM     12  O   UNL     1     112.927 128.347 137.662  0.00  0.00    +0.000 OA
ATOM     13  C   UNL     1     113.517 128.112 136.383  0.00  0.00    +0.000 A 
ATOM     14  C   UNL     1     113.333 128.626 137.002  0.00  0.00    +0.000 A 
ATOM     15  C   UNL     1     113.924 128.391 135.721  0.00  0.00    +0.000 A 
ATOM     16  C   UNL     1     113.556 129.420 136.958  0.00  0.00    +0.000 A 
ATOM     17  C   UNL     1     114.146 129.185 135.679  0.00  0.00    +0.000 A 
ATOM     18  C   UNL     1     113.962 129.699 136.298  0.00  0.00    +0.000 A 
BRANCH  16  19
ATOM     19  O   UNL     1     113.372 129.934 137.577  0.00  0.00    +0.000 OA
ATOM     20  C   UNL     1     112.617 130.262 137.630  0.00  0.00    +0.000 C 
ENDBRANCH  16  19
BRANCH  18  21
ATOM     21  O   UNL     1     114.185 130.492 136.254  0.00  0.00    +0.000 OA
ATOM     22  C   UNL     1     114.747 130.733 135.701  0.00  0.00    +0.000 C 
ENDBRANCH  18  21
ENDBRANCH   3  13
TORSDOF 3
ENDMDL
MODEL 8
REMARK VINA RESULT:      -7.3      8.657     10.313
REMARK  Name = 602152
REMARK  3 active torsions:
REMARK  status: ('A' for Active; 'I' for Inactive)
REMARK    1  A    between atoms: O_3  and  C_16
REMARK    2  A    between atoms: O_4  and  C_19
REMARK    3  A    between atoms: C_6  and  C_9
REMARK                            x       y       z     vdW  Elec       q    Type
REMARK                         _______ _______ _______ _____ _____    ______ ____
ROOT
ATOM      1  O   UNL     1     112.995 128.574 137.322  0.00  0.00    +0.000 OA
ATOM      2  O   UNL     1     114.569 130.778 136.251  0.00  0.00    +0.000 OA
ATOM      3  C   UNL     1     112.889 127.345 136.601  0.00  0.00    +0.000 C 
ATOM      4  C   UNL     1     113.370 127.652 136.005  0.00  0.00    +0.000 C 
ATOM      5  C   UNL     1     112.701 127.806 137.260  0.00  0.00    +0.000 C 
ATOM      6  C   UNL     1     113.663 128.421 136.068  0.00  0.00    +0.000 A 
ATOM      7  C   UNL     1     113.476 128.882 136.727  0.00  0.00    +0.000 A 
ATOM      8  C   UNL     1     114.163 128.730 135.441  0.00  0.00    +0.000 A 
ATOM      9  C   UNL     1     113.776 129.684 136.803  0.00  0.00    +0.000 A 
ATOM     10  C   UNL     1     114.472 129.530 135.501  0.00  0.00    +0.000 A 
ATOM     11  C   UNL     1     114.277 130.009 136.186  0.00  0.00    +0.000 A 
ENDROOT
BRANCH   3  13
ATOM     12  O   UNL     1     111.336 127.091 136.103  0.00  0.00    +0.000 OA
ATOM     13  C   UNL     1     112.595 126.576 136.538  0.00  0.00    +0.000 A 
ATOM     14  C   UNL     1     111.819 126.450 136.289  0.00  0.00    +0.000 A 
ATOM     15  C   UNL     1     113.079 125.934 136.724  0.00  0.00    +0.000 A 
ATOM     16  C   UNL     1     111.527 125.681 136.226  0.00  0.00    +0.000 A 
ATOM     17  C   UNL     1     112.786 125.166 136.661  0.00  0.00    +0.000 A 
ATOM     18  C   UNL     1     112.010 125.039 136.412  0.00  0.00    +0.000 A 
BRANCH  16  19
ATOM     19  O   UNL     1     110.750 125.554 135.978  0.00  0.00    +0.000 OA
ATOM     20  C   UNL     1     110.562 125.597 135.176  0.00  0.00    +0.000 C 
ENDBRANCH  16  19
BRANCH  18  21
ATOM     21  O   UNL     1     111.718 124.270 136.349  0.00  0.00    +0.000 OA
ATOM     22  C   UNL     1     112.115 123.646 136.713  0.00  0.00    +0.000 C 
ENDBRANCH  18  21
ENDBRANCH   3  13
TORSDOF 3
ENDMDL
MODEL 9
REMARK VINA RESULT:      -7.2      7.379      8.280
REMARK  Name = 602152
REMARK  3 active torsions:
REMARK  status: ('A' for Active; 'I' for Inactive)
REMARK    1  A    between atoms: O_3  and  C_16
REMARK    2  A    between atoms: O_4  and  C_19
REMARK    3  A    between atoms: C_6  and  C_9
REMARK                            x       y       z     vdW  Elec       q    Type
REMARK                         _______ _______ _______ _____ _____    ______ ____
ROOT
ATOM      1  O   UNL     1     103.481 123.603 145.696  0.00  0.00    +0.000 OA
ATOM      2  O   UNL     1     100.711 122.907 146.264  0.00  0.00    +0.000 OA
ATOM      3  C   UNL     1     104.150 124.600 146.470  0.00  0.00    +0.000 C 
ATOM      4  C   UNL     1     103.465 124.710 146.919  0.00  0.00    +0.000 C 
ATOM      5  C   UNL     1     104.157 124.047 145.859  0.00  0.00    +0.000 C 
ATOM      6  C   UNL     1     102.790 124.265 146.756  0.00  0.00    +0.000 A 
ATOM      7  C   UNL     1     102.798 123.712 146.145  0.00  0.00    +0.000 A 
ATOM      8  C   UNL     1     102.084 124.388 147.231  0.00  0.00    +0.000 A 
ATOM      9  C   UNL     1     102.100 123.243 145.965  0.00  0.00    +0.000 A 
ATOM     10  C   UNL     1     101.377 123.929 147.066  0.00  0.00    +0.000 A 
ATOM     11  C   UNL     1     101.385 123.352 146.429  0.00  0.00    +0.000 A 
ENDROOT
BRANCH   3  13
ATOM     12  O   UNL     1     105.407 123.920 147.293  0.00  0.00    +0.000 OA
ATOM     13  C   UNL     1     104.825 125.045 146.634  0.00  0.00    +0.000 A 
ATOM     14  C   UNL     1     105.454 124.705 147.045  0.00  0.00    +0.000 A 
ATOM     15  C   UNL     1     104.871 125.831 146.385  0.00  0.00    +0.000 A 
ATOM     16  C   UNL     1     106.129 125.151 147.208  0.00  0.00    +0.000 A 
ATOM     17  C   UNL     1     105.546 126.275 146.548  0.00  0.00    +0.000 A 
ATOM     18  C   UNL     1     106.175 125.935 146.960  0.00  0.00    +0.000 A 
BRANCH  16  19
ATOM     19  O   UNL     1     106.758 124.810 147.619  0.00  0.00    +0.000 OA
ATOM     20  C   UNL     1     106.720 124.731 148.439  0.00  0.00    +0.000 C 
ENDBRANCH  16  19
BRANCH  18  21
ATOM     21  O   UNL     1     106.850 126.381 147.122  0.00  0.00    +0.000 OA
ATOM     22  C   UNL     1     106.964 127.109 146.752  0.00  0.00    +0.000 C 
ENDBRANCH  18  21
ENDBRANCH   3  13
TORSDOF 3
ENDMDL
MODEL 10
REMARK VINA RESULT:      -7.2      7.643      9.414
REMARK  Name = 602152
REMARK  3 active torsions:
REMARK  status: ('A' for Active; 'I' for Inactive)
REMARK    1  A    between atoms: O_3  and  C_16
REMARK    2  A    between atoms: O_4  and  C_19
REMARK    3  A    between atoms: C_6  and  C_9
REMARK                            x       y       z     vdW  Elec       q    Type
REMARK                         _______ _______ _______ _____ _____    ______ ____
ROOT
ATOM      1  O   UNL     1     112.918 126.633 137.383  0.00  0.00    +0.000 OA
ATOM      2  O   UNL     1     114.720 125.007 135.774  0.00  0.00    +0.000 OA
ATOM      3  C   UNL     1     112.997 126.604 138.809  0.00  0.00    +0.000 C 
ATOM      4  C   UNL     1     113.616 126.060 138.764  0.00  0.00    +0.000 C 
ATOM      5  C   UNL     1     112.648 126.891 138.119  0.00  0.00    +0.000 C 
ATOM      6  C   UNL     1     113.885 125.803 138.028  0.00  0.00    +0.000 A 
ATOM      7  C   UNL     1     113.536 126.089 137.337  0.00  0.00    +0.000 A 
ATOM      8  C   UNL     1     114.530 125.236 137.993  0.00  0.00    +0.000 A 
ATOM      9  C   UNL     1     113.808 125.829 136.565  0.00  0.00    +0.000 A 
ATOM     10  C   UNL     1     114.815 124.964 137.230  0.00  0.00    +0.000 A 
ATOM     11  C   UNL     1     114.452 125.262 136.511  0.00  0.00    +0.000 A 
ENDROOT
BRANCH   3  13
ATOM     12  O   UNL     1     111.756 125.815 139.557  0.00  0.00    +0.000 OA
ATOM     13  C   UNL     1     112.728 126.861 139.545  0.00  0.00    +0.000 A 
ATOM     14  C   UNL     1     112.107 126.466 139.919  0.00  0.00    +0.000 A 
ATOM     15  C   UNL     1     113.080 127.514 139.908  0.00  0.00    +0.000 A 
ATOM     16  C   UNL     1     111.839 126.724 140.656  0.00  0.00    +0.000 A 
ATOM     17  C   UNL     1     112.811 127.771 140.644  0.00  0.00    +0.000 A 
ATOM     18  C   UNL     1     112.190 127.376 141.018  0.00  0.00    +0.000 A 
BRANCH  16  19
ATOM     19  O   UNL     1     111.218 126.330 141.029  0.00  0.00    +0.000 OA
ATOM     20  C   UNL     1     110.437 126.500 140.825  0.00  0.00    +0.000 C 
ENDBRANCH  16  19
BRANCH  18  21
ATOM     21  O   UNL     1     111.922 127.634 141.755  0.00  0.00    +0.000 OA
ATOM     22  C   UNL     1     112.298 128.262 142.134  0.00  0.00    +0.000 C 
ENDBRANCH  18  21
ENDBRANCH   3  13
TORSDOF 3
ENDMDL
