MODEL 1
REMARK VINA RESULT:      -7.8      0.000      0.000
REMARK  Name = 44259886
REMARK  4 active torsions:
REMARK  status: ('A' for Active; 'I' for Inactive)
REMARK    1  A    between atoms: O_2  and  C_13
REMARK    2  A    between atoms: O_3  and  C_18
REMARK    3  A    between atoms: O_7  and  C_24
REMARK    4  A    between atoms: C_12  and  C_14
REMARK                            x       y       z     vdW  Elec       q    Type
REMARK                         _______ _______ _______ _____ _____    ______ ____
ROOT
ATOM      1  O   UNL     1     103.526 130.139 142.292  0.00  0.00    +0.000 OA
ATOM      2  O   UNL     1     104.287 127.692 140.959  0.00  0.00    +0.000 OA
ATOM      3  O   UNL     1     103.394 128.635 140.331  0.00  0.00    +0.000 OA
ATOM      4  O   UNL     1     105.332 128.282 143.621  0.00  0.00    +0.000 OA
ATOM      5  C   UNL     1     103.903 128.929 141.634  0.00  0.00    +0.000 A 
ATOM      6  C   UNL     1     103.946 129.430 142.288  0.00  0.00    +0.000 A 
ATOM      7  C   UNL     1     103.060 130.348 141.643  0.00  0.00    +0.000 A 
ATOM      8  C   UNL     1     103.017 129.846 140.989  0.00  0.00    +0.000 A 
ATOM      9  C   UNL     1     103.438 129.136 140.985  0.00  0.00    +0.000 A 
ATOM     10  C   UNL     1     104.337 128.186 141.617  0.00  0.00    +0.000 A 
ATOM     11  C   UNL     1     104.427 129.224 142.970  0.00  0.00    +0.000 A 
ATOM     12  C   UNL     1     104.822 127.964 142.290  0.00  0.00    +0.000 A 
ATOM     13  C   UNL     1     104.868 128.487 142.971  0.00  0.00    +0.000 A 
ENDROOT
BRANCH   7  16
ATOM     14  O   UNL     1     100.710 131.826 142.319  0.00  0.00    +0.000 OA
ATOM     15  O   UNL     1     102.883 133.125 140.994  0.00  0.00    +0.000 OA
ATOM     16  C   UNL     1     102.640 131.056 141.647  0.00  0.00    +0.000 A 
ATOM     17  C   UNL     1     102.972 131.736 141.318  0.00  0.00    +0.000 A 
ATOM     18  C   UNL     1     101.886 131.086 141.981  0.00  0.00    +0.000 A 
ATOM     19  C   UNL     1     101.464 131.796 141.986  0.00  0.00    +0.000 A 
ATOM     20  C   UNL     1     102.551 132.445 141.323  0.00  0.00    +0.000 A 
ATOM     21  C   UNL     1     101.797 132.475 141.656  0.00  0.00    +0.000 A 
BRANCH  21  22
ATOM     22  O   UNL     1     101.375 133.185 141.661  0.00  0.00    +0.000 OA
ATOM     23  C   UNL     1     101.468 133.716 142.286  0.00  0.00    +0.000 C 
ENDBRANCH  21  22
ENDBRANCH   7  16
BRANCH   8  24
ATOM     24  O   UNL     1     102.552 130.053 140.340  0.00  0.00    +0.000 OA
ATOM     25  C   UNL     1     102.216 129.466 139.868  0.00  0.00    +0.000 C 
ENDBRANCH   8  24
BRANCH  12  26
ATOM     26  O   UNL     1     105.242 127.254 142.282  0.00  0.00    +0.000 OA
ATOM     27  C   UNL     1     106.060 127.260 142.172  0.00  0.00    +0.000 C 
ENDBRANCH  12  26
TORSDOF 4
ENDMDL
MODEL 2
REMARK VINA RESULT:      -7.8     10.662     11.597
REMARK  Name = 44259886
REMARK  4 active torsions:
REMARK  status: ('A' for Active; 'I' for Inactive)
REMARK    1  A    between atoms: O_2  and  C_13
REMARK    2  A    between atoms: O_3  and  C_18
REMARK    3  A    between atoms: O_7  and  C_24
REMARK    4  A    between atoms: C_12  and  C_14
REMARK                            x       y       z     vdW  Elec       q    Type
REMARK                         _______ _______ _______ _____ _____    ______ ____
ROOT
ATOM      1  O   UNL     1     113.474 126.860 136.690  0.00  0.00    +0.000 OA
ATOM      2  O   UNL     1     111.314 125.092 135.948  0.00  0.00    +0.000 OA
ATOM      3  O   UNL     1     111.201 126.519 135.774  0.00  0.00    +0.000 OA
ATOM      4  O   UNL     1     113.774 123.989 137.072  0.00  0.00    +0.000 OA
ATOM      5  C   UNL     1     112.407 125.985 136.324  0.00  0.00    +0.000 A 
ATOM      6  C   UNL     1     113.165 126.099 136.629  0.00  0.00    +0.000 A 
ATOM      7  C   UNL     1     113.027 127.509 136.446  0.00  0.00    +0.000 A 
ATOM      8  C   UNL     1     112.269 127.396 136.140  0.00  0.00    +0.000 A 
ATOM      9  C   UNL     1     111.959 126.633 136.079  0.00  0.00    +0.000 A 
ATOM     10  C   UNL     1     112.072 125.196 136.255  0.00  0.00    +0.000 A 
ATOM     11  C   UNL     1     113.641 125.431 136.888  0.00  0.00    +0.000 A 
ATOM     12  C   UNL     1     112.534 124.517 136.508  0.00  0.00    +0.000 A 
ATOM     13  C   UNL     1     113.324 124.636 136.826  0.00  0.00    +0.000 A 
ENDROOT
BRANCH   7  16
ATOM     14  O   UNL     1     114.532 129.666 135.327  0.00  0.00    +0.000 OA
ATOM     15  O   UNL     1     113.382 129.926 137.930  0.00  0.00    +0.000 OA
ATOM     16  C   UNL     1     113.337 128.271 136.507  0.00  0.00    +0.000 A 
ATOM     17  C   UNL     1     113.204 128.718 137.188  0.00  0.00    +0.000 A 
ATOM     18  C   UNL     1     113.779 128.587 135.887  0.00  0.00    +0.000 A 
ATOM     19  C   UNL     1     114.089 129.350 135.947  0.00  0.00    +0.000 A 
ATOM     20  C   UNL     1     113.514 129.479 137.249  0.00  0.00    +0.000 A 
ATOM     21  C   UNL     1     113.956 129.795 136.629  0.00  0.00    +0.000 A 
BRANCH  21  22
ATOM     22  O   UNL     1     114.267 130.558 136.689  0.00  0.00    +0.000 OA
ATOM     23  C   UNL     1     113.794 131.211 136.515  0.00  0.00    +0.000 C 
ENDBRANCH  21  22
ENDBRANCH   7  16
BRANCH   8  24
ATOM     24  O   UNL     1     111.821 128.043 135.896  0.00  0.00    +0.000 OA
ATOM     25  C   UNL     1     111.167 127.932 135.405  0.00  0.00    +0.000 C 
ENDBRANCH   8  24
BRANCH  12  26
ATOM     26  O   UNL     1     112.221 123.756 136.446  0.00  0.00    +0.000 OA
ATOM     27  C   UNL     1     111.924 123.376 137.115  0.00  0.00    +0.000 C 
ENDBRANCH  12  26
TORSDOF 4
ENDMDL
MODEL 3
REMARK VINA RESULT:      -7.7      6.044      7.901
REMARK  Name = 44259886
REMARK  4 active torsions:
REMARK  status: ('A' for Active; 'I' for Inactive)
REMARK    1  A    between atoms: O_2  and  C_13
REMARK    2  A    between atoms: O_3  and  C_18
REMARK    3  A    between atoms: O_7  and  C_24
REMARK    4  A    between atoms: C_12  and  C_14
REMARK                            x       y       z     vdW  Elec       q    Type
REMARK                         _______ _______ _______ _____ _____    ______ ____
ROOT
ATOM      1  O   UNL     1     104.088 125.300 146.612  0.00  0.00    +0.000 OA
ATOM      2  O   UNL     1     106.055 124.453 144.673  0.00  0.00    +0.000 OA
ATOM      3  O   UNL     1     105.056 123.538 145.169  0.00  0.00    +0.000 OA
ATOM      4  O   UNL     1     106.075 127.203 145.657  0.00  0.00    +0.000 OA
ATOM      5  C   UNL     1     105.061 124.883 145.654  0.00  0.00    +0.000 A 
ATOM      6  C   UNL     1     104.739 125.470 146.135  0.00  0.00    +0.000 A 
ATOM      7  C   UNL     1     103.760 124.543 146.610  0.00  0.00    +0.000 A 
ATOM      8  C   UNL     1     104.082 123.956 146.128  0.00  0.00    +0.000 A 
ATOM      9  C   UNL     1     104.734 124.126 145.650  0.00  0.00    +0.000 A 
ATOM     10  C   UNL     1     105.740 125.046 145.151  0.00  0.00    +0.000 A 
ATOM     11  C   UNL     1     105.072 126.262 146.147  0.00  0.00    +0.000 A 
ATOM     12  C   UNL     1     106.085 125.833 145.150  0.00  0.00    +0.000 A 
ATOM     13  C   UNL     1     105.749 126.445 145.651  0.00  0.00    +0.000 A 
ENDROOT
BRANCH   7  16
ATOM     14  O   UNL     1     100.930 124.356 146.962  0.00  0.00    +0.000 OA
ATOM     15  O   UNL     1     102.685 123.712 149.124  0.00  0.00    +0.000 OA
ATOM     16  C   UNL     1     103.110 124.374 147.087  0.00  0.00    +0.000 A 
ATOM     17  C   UNL     1     103.222 124.127 147.867  0.00  0.00    +0.000 A 
ATOM     18  C   UNL     1     102.345 124.450 146.786  0.00  0.00    +0.000 A 
ATOM     19  C   UNL     1     101.694 124.280 147.264  0.00  0.00    +0.000 A 
ATOM     20  C   UNL     1     102.572 123.958 148.344  0.00  0.00    +0.000 A 
ATOM     21  C   UNL     1     101.808 124.034 148.043  0.00  0.00    +0.000 A 
BRANCH  21  22
ATOM     22  O   UNL     1     101.156 123.864 148.521  0.00  0.00    +0.000 OA
ATOM     23  C   UNL     1     100.839 123.103 148.530  0.00  0.00    +0.000 C 
ENDBRANCH  21  22
ENDBRANCH   7  16
BRANCH   8  24
ATOM     24  O   UNL     1     103.755 123.199 146.125  0.00  0.00    +0.000 OA
ATOM     25  C   UNL     1     103.783 122.740 145.440  0.00  0.00    +0.000 C 
ENDBRANCH   8  24
BRANCH  12  26
ATOM     26  O   UNL     1     106.736 126.000 144.671  0.00  0.00    +0.000 OA
ATOM     27  C   UNL     1     106.634 126.419 143.967  0.00  0.00    +0.000 C 
ENDBRANCH  12  26
TORSDOF 4
ENDMDL
MODEL 4
REMARK VINA RESULT:      -7.7      5.924      8.303
REMARK  Name = 44259886
REMARK  4 active torsions:
REMARK  status: ('A' for Active; 'I' for Inactive)
REMARK    1  A    between atoms: O_2  and  C_13
REMARK    2  A    between atoms: O_3  and  C_18
REMARK    3  A    between atoms: O_7  and  C_24
REMARK    4  A    between atoms: C_12  and  C_14
REMARK                            x       y       z     vdW  Elec       q    Type
REMARK                         _______ _______ _______ _____ _____    ______ ____
ROOT
ATOM      1  O   UNL     1     103.514 124.668 146.349  0.00  0.00    +0.000 OA
ATOM      2  O   UNL     1     102.676 124.011 149.034  0.00  0.00    +0.000 OA
ATOM      3  O   UNL     1     104.001 124.516 148.771  0.00  0.00    +0.000 OA
ATOM      4  O   UNL     1     100.823 123.653 146.806  0.00  0.00    +0.000 OA
ATOM      5  C   UNL     1     103.099 124.343 147.676  0.00  0.00    +0.000 A 
ATOM      6  C   UNL     1     102.936 124.393 146.869  0.00  0.00    +0.000 A 
ATOM      7  C   UNL     1     104.255 124.892 146.635  0.00  0.00    +0.000 A 
ATOM      8  C   UNL     1     104.417 124.841 147.443  0.00  0.00    +0.000 A 
ATOM      9  C   UNL     1     103.839 124.566 147.964  0.00  0.00    +0.000 A 
ATOM     10  C   UNL     1     102.504 124.058 148.230  0.00  0.00    +0.000 A 
ATOM     11  C   UNL     1     102.169 124.163 146.558  0.00  0.00    +0.000 A 
ATOM     12  C   UNL     1     101.732 123.824 147.937  0.00  0.00    +0.000 A 
ATOM     13  C   UNL     1     101.563 123.877 147.095  0.00  0.00    +0.000 A 
ENDROOT
BRANCH   7  16
ATOM     14  O   UNL     1     106.381 124.369 144.798  0.00  0.00    +0.000 OA
ATOM     15  O   UNL     1     105.600 127.062 145.350  0.00  0.00    +0.000 OA
ATOM     16  C   UNL     1     104.833 125.166 146.115  0.00  0.00    +0.000 A 
ATOM     17  C   UNL     1     104.927 125.977 145.993  0.00  0.00    +0.000 A 
ATOM     18  C   UNL     1     105.317 124.630 145.717  0.00  0.00    +0.000 A 
ATOM     19  C   UNL     1     105.896 124.905 145.196  0.00  0.00    +0.000 A 
ATOM     20  C   UNL     1     105.505 126.251 145.473  0.00  0.00    +0.000 A 
ATOM     21  C   UNL     1     105.990 125.715 145.075  0.00  0.00    +0.000 A 
BRANCH  21  22
ATOM     22  O   UNL     1     106.569 125.990 144.554  0.00  0.00    +0.000 OA
ATOM     23  C   UNL     1     106.378 126.135 143.764  0.00  0.00    +0.000 C 
ENDBRANCH  21  22
ENDBRANCH   7  16
BRANCH   8  24
ATOM     24  O   UNL     1     105.157 125.065 147.730  0.00  0.00    +0.000 OA
ATOM     25  C   UNL     1     105.430 124.764 148.448  0.00  0.00    +0.000 C 
ENDBRANCH   8  24
BRANCH  12  26
ATOM     26  O   UNL     1     101.155 123.549 148.459  0.00  0.00    +0.000 OA
ATOM     27  C   UNL     1     101.021 122.739 148.538  0.00  0.00    +0.000 C 
ENDBRANCH  12  26
TORSDOF 4
ENDMDL
MODEL 5
REMARK VINA RESULT:      -7.7      8.247     10.815
REMARK  Name = 44259886
REMARK  4 active torsions:
REMARK  status: ('A' for Active; 'I' for Inactive)
REMARK    1  A    between atoms: O_2  and  C_13
REMARK    2  A    between atoms: O_3  and  C_18
REMARK    3  A    between atoms: O_7  and  C_24
REMARK    4  A    between atoms: C_12  and  C_14
REMARK                            x       y       z     vdW  Elec       q    Type
REMARK                         _______ _______ _______ _____ _____    ______ ____
ROOT
ATOM      1  O   UNL     1     109.998 126.950 136.256  0.00  0.00    +0.000 OA
ATOM      2  O   UNL     1     110.642 129.556 135.191  0.00  0.00    +0.000 OA
ATOM      3  O   UNL     1     111.675 128.588 135.465  0.00  0.00    +0.000 OA
ATOM      4  O   UNL     1     107.859 128.854 135.726  0.00  0.00    +0.000 OA
ATOM      5  C   UNL     1     110.315 128.238 135.729  0.00  0.00    +0.000 A 
ATOM      6  C   UNL     1     109.756 127.692 135.993  0.00  0.00    +0.000 A 
ATOM      7  C   UNL     1     110.799 126.751 136.256  0.00  0.00    +0.000 A 
ATOM      8  C   UNL     1     111.358 127.298 135.992  0.00  0.00    +0.000 A 
ATOM      9  C   UNL     1     111.116 128.042 135.729  0.00  0.00    +0.000 A 
ATOM     10  C   UNL     1     110.076 129.017 135.452  0.00  0.00    +0.000 A 
ATOM     11  C   UNL     1     108.918 127.886 135.998  0.00  0.00    +0.000 A 
ATOM     12  C   UNL     1     109.244 129.228 135.450  0.00  0.00    +0.000 A 
ATOM     13  C   UNL     1     108.661 128.659 135.725  0.00  0.00    +0.000 A 
ENDROOT
BRANCH   7  16
ATOM     14  O   UNL     1     111.530 125.000 138.393  0.00  0.00    +0.000 OA
ATOM     15  O   UNL     1     111.519 124.042 135.701  0.00  0.00    +0.000 OA
ATOM     16  C   UNL     1     111.040 126.009 136.519  0.00  0.00    +0.000 A 
ATOM     17  C   UNL     1     111.159 125.397 135.979  0.00  0.00    +0.000 A 
ATOM     18  C   UNL     1     111.164 125.876 137.324  0.00  0.00    +0.000 A 
ATOM     19  C   UNL     1     111.406 125.133 137.588  0.00  0.00    +0.000 A 
ATOM     20  C   UNL     1     111.401 124.654 136.242  0.00  0.00    +0.000 A 
ATOM     21  C   UNL     1     111.524 124.522 137.047  0.00  0.00    +0.000 A 
BRANCH  21  22
ATOM     22  O   UNL     1     111.766 123.778 137.311  0.00  0.00    +0.000 OA
ATOM     23  C   UNL     1     112.551 123.541 137.214  0.00  0.00    +0.000 C 
ENDBRANCH  21  22
ENDBRANCH   7  16
BRANCH   8  24
ATOM     24  O   UNL     1     112.159 127.101 135.992  0.00  0.00    +0.000 OA
ATOM     25  C   UNL     1     112.729 127.690 136.085  0.00  0.00    +0.000 C 
ENDBRANCH   8  24
BRANCH  12  26
ATOM     26  O   UNL     1     109.005 129.972 135.186  0.00  0.00    +0.000 OA
ATOM     27  C   UNL     1     108.792 130.555 135.731  0.00  0.00    +0.000 C 
ENDBRANCH  12  26
TORSDOF 4
ENDMDL
MODEL 6
REMARK VINA RESULT:      -7.7     10.302     12.204
REMARK  Name = 44259886
REMARK  4 active torsions:
REMARK  status: ('A' for Active; 'I' for Inactive)
REMARK    1  A    between atoms: O_2  and  C_13
REMARK    2  A    between atoms: O_3  and  C_18
REMARK    3  A    between atoms: O_7  and  C_24
REMARK    4  A    between atoms: C_12  and  C_14
REMARK                            x       y       z     vdW  Elec       q    Type
REMARK                         _______ _______ _______ _____ _____    ______ ____
ROOT
ATOM      1  O   UNL     1     113.329 127.197 136.123  0.00  0.00    +0.000 OA
ATOM      2  O   UNL     1     113.166 129.678 137.592  0.00  0.00    +0.000 OA
ATOM      3  O   UNL     1     112.630 128.455 138.136  0.00  0.00    +0.000 OA
ATOM      4  O   UNL     1     114.433 129.628 134.962  0.00  0.00    +0.000 OA
ATOM      5  C   UNL     1     113.249 128.424 136.848  0.00  0.00    +0.000 A 
ATOM      6  C   UNL     1     113.482 128.005 136.177  0.00  0.00    +0.000 A 
ATOM      7  C   UNL     1     112.943 126.807 136.739  0.00  0.00    +0.000 A 
ATOM      8  C   UNL     1     112.710 127.226 137.410  0.00  0.00    +0.000 A 
ATOM      9  C   UNL     1     112.863 128.036 137.465  0.00  0.00    +0.000 A 
ATOM     10  C   UNL     1     113.403 129.268 136.918  0.00  0.00    +0.000 A 
ATOM     11  C   UNL     1     113.885 128.399 135.528  0.00  0.00    +0.000 A 
ATOM     12  C   UNL     1     113.804 129.679 136.279  0.00  0.00    +0.000 A 
ATOM     13  C   UNL     1     114.047 129.241 135.579  0.00  0.00    +0.000 A 
ENDROOT
BRANCH   7  16
ATOM     14  O   UNL     1     111.191 124.662 136.032  0.00  0.00    +0.000 OA
ATOM     15  O   UNL     1     113.774 124.099 137.118  0.00  0.00    +0.000 OA
ATOM     16  C   UNL     1     112.789 125.998 136.684  0.00  0.00    +0.000 A 
ATOM     17  C   UNL     1     113.358 125.453 136.929  0.00  0.00    +0.000 A 
ATOM     18  C   UNL     1     112.067 125.735 136.386  0.00  0.00    +0.000 A 
ATOM     19  C   UNL     1     111.913 124.926 136.331  0.00  0.00    +0.000 A 
ATOM     20  C   UNL     1     113.205 124.644 136.874  0.00  0.00    +0.000 A 
ATOM     21  C   UNL     1     112.483 124.381 136.575  0.00  0.00    +0.000 A 
BRANCH  21  22
ATOM     22  O   UNL     1     112.329 123.571 136.521  0.00  0.00    +0.000 OA
ATOM     23  C   UNL     1     111.941 123.183 137.136  0.00  0.00    +0.000 C 
ENDBRANCH  21  22
ENDBRANCH   7  16
BRANCH   8  24
ATOM     24  O   UNL     1     112.324 126.838 138.027  0.00  0.00    +0.000 OA
ATOM     25  C   UNL     1     112.313 127.170 138.782  0.00  0.00    +0.000 C 
ENDBRANCH   8  24
BRANCH  12  26
ATOM     26  O   UNL     1     113.956 130.487 136.336  0.00  0.00    +0.000 OA
ATOM     27  C   UNL     1     114.713 130.752 136.533  0.00  0.00    +0.000 C 
ENDBRANCH  12  26
TORSDOF 4
ENDMDL
MODEL 7
REMARK VINA RESULT:      -7.6      5.201      7.683
REMARK  Name = 44259886
REMARK  4 active torsions:
REMARK  status: ('A' for Active; 'I' for Inactive)
REMARK    1  A    between atoms: O_2  and  C_13
REMARK    2  A    between atoms: O_3  and  C_18
REMARK    3  A    between atoms: O_7  and  C_24
REMARK    4  A    between atoms: C_12  and  C_14
REMARK                            x       y       z     vdW  Elec       q    Type
REMARK                         _______ _______ _______ _____ _____    ______ ____
ROOT
ATOM      1  O   UNL     1     106.813 125.335 146.148  0.00  0.00    +0.000 OA
ATOM      2  O   UNL     1     105.627 124.572 148.669  0.00  0.00    +0.000 OA
ATOM      3  O   UNL     1     104.813 124.785 147.497  0.00  0.00    +0.000 OA
ATOM      4  O   UNL     1     108.519 124.920 148.472  0.00  0.00    +0.000 OA
ATOM      5  C   UNL     1     106.228 124.957 147.395  0.00  0.00    +0.000 A 
ATOM      6  C   UNL     1     106.895 125.140 146.945  0.00  0.00    +0.000 A 
ATOM      7  C   UNL     1     106.065 125.346 145.799  0.00  0.00    +0.000 A 
ATOM      8  C   UNL     1     105.399 125.163 146.249  0.00  0.00    +0.000 A 
ATOM      9  C   UNL     1     105.479 124.968 147.048  0.00  0.00    +0.000 A 
ATOM     10  C   UNL     1     106.298 124.753 148.227  0.00  0.00    +0.000 A 
ATOM     11  C   UNL     1     107.679 125.132 147.296  0.00  0.00    +0.000 A 
ATOM     12  C   UNL     1     107.075 124.740 148.595  0.00  0.00    +0.000 A 
ATOM     13  C   UNL     1     107.770 124.931 148.126  0.00  0.00    +0.000 A 
ENDROOT
BRANCH   7  16
ATOM     14  O   UNL     1     105.636 127.301 143.760  0.00  0.00    +0.000 OA
ATOM     15  O   UNL     1     106.007 124.557 143.053  0.00  0.00    +0.000 OA
ATOM     16  C   UNL     1     105.984 125.540 145.002  0.00  0.00    +0.000 A 
ATOM     17  C   UNL     1     106.036 124.952 144.426  0.00  0.00    +0.000 A 
ATOM     18  C   UNL     1     105.851 126.323 144.780  0.00  0.00    +0.000 A 
ATOM     19  C   UNL     1     105.769 126.518 143.982  0.00  0.00    +0.000 A 
ATOM     20  C   UNL     1     105.955 125.146 143.629  0.00  0.00    +0.000 A 
ATOM     21  C   UNL     1     105.822 125.929 143.407  0.00  0.00    +0.000 A 
BRANCH  21  22
ATOM     22  O   UNL     1     105.740 126.124 142.609  0.00  0.00    +0.000 OA
ATOM     23  C   UNL     1     106.388 126.409 142.186  0.00  0.00    +0.000 C 
ENDBRANCH  21  22
ENDBRANCH   7  16
BRANCH   8  24
ATOM     24  O   UNL     1     104.650 125.174 145.902  0.00  0.00    +0.000 OA
ATOM     25  C   UNL     1     104.031 124.747 146.241  0.00  0.00    +0.000 C 
ENDBRANCH   8  24
BRANCH  12  26
ATOM     26  O   UNL     1     107.153 124.545 149.393  0.00  0.00    +0.000 OA
ATOM     27  C   UNL     1     107.374 123.781 149.611  0.00  0.00    +0.000 C 
ENDBRANCH  12  26
TORSDOF 4
ENDMDL
MODEL 8
REMARK VINA RESULT:      -7.6      7.872      8.954
REMARK  Name = 44259886
REMARK  4 active torsions:
REMARK  status: ('A' for Active; 'I' for Inactive)
REMARK    1  A    between atoms: O_2  and  C_13
REMARK    2  A    between atoms: O_3  and  C_18
REMARK    3  A    between atoms: O_7  and  C_24
REMARK    4  A    between atoms: C_12  and  C_14
REMARK                            x       y       z     vdW  Elec       q    Type
REMARK                         _______ _______ _______ _____ _____    ______ ____
ROOT
ATOM      1  O   UNL     1     104.670 124.202 146.954  0.00  0.00    +0.000 OA
ATOM      2  O   UNL     1     101.888 124.683 147.562  0.00  0.00    +0.000 OA
ATOM      3  O   UNL     1     102.934 125.389 148.259  0.00  0.00    +0.000 OA
ATOM      4  O   UNL     1     102.610 122.739 145.506  0.00  0.00    +0.000 OA
ATOM      5  C   UNL     1     103.294 124.439 147.254  0.00  0.00    +0.000 A 
ATOM      6  C   UNL     1     103.873 124.043 146.819  0.00  0.00    +0.000 A 
ATOM      7  C   UNL     1     104.891 124.756 147.524  0.00  0.00    +0.000 A 
ATOM      8  C   UNL     1     104.312 125.152 147.959  0.00  0.00    +0.000 A 
ATOM      9  C   UNL     1     103.513 124.994 147.824  0.00  0.00    +0.000 A 
ATOM     10  C   UNL     1     102.458 124.283 147.123  0.00  0.00    +0.000 A 
ATOM     11  C   UNL     1     103.656 123.464 146.222  0.00  0.00    +0.000 A 
ATOM     12  C   UNL     1     102.224 123.707 146.530  0.00  0.00    +0.000 A 
ATOM     13  C   UNL     1     102.827 123.294 146.077  0.00  0.00    +0.000 A 
ENDROOT
BRANCH   7  16
ATOM     14  O   UNL     1     107.283 124.312 149.024  0.00  0.00    +0.000 OA
ATOM     15  O   UNL     1     107.288 126.153 146.837  0.00  0.00    +0.000 OA
ATOM     16  C   UNL     1     105.688 124.915 147.659  0.00  0.00    +0.000 A 
ATOM     17  C   UNL     1     106.089 125.455 147.181  0.00  0.00    +0.000 A 
ATOM     18  C   UNL     1     106.086 124.534 148.274  0.00  0.00    +0.000 A 
ATOM     19  C   UNL     1     106.885 124.693 148.409  0.00  0.00    +0.000 A 
ATOM     20  C   UNL     1     106.887 125.613 147.316  0.00  0.00    +0.000 A 
ATOM     21  C   UNL     1     107.285 125.232 147.930  0.00  0.00    +0.000 A 
BRANCH  21  22
ATOM     22  O   UNL     1     108.084 125.391 148.066  0.00  0.00    +0.000 OA
ATOM     23  C   UNL     1     108.659 124.853 147.819  0.00  0.00    +0.000 C 
ENDBRANCH  21  22
ENDBRANCH   7  16
BRANCH   8  24
ATOM     24  O   UNL     1     104.531 125.707 148.529  0.00  0.00    +0.000 OA
ATOM     25  C   UNL     1     103.958 126.046 149.016  0.00  0.00    +0.000 C 
ENDBRANCH   8  24
BRANCH  12  26
ATOM     26  O   UNL     1     101.425 123.550 146.397  0.00  0.00    +0.000 OA
ATOM     27  C   UNL     1     101.053 123.845 145.722  0.00  0.00    +0.000 C 
ENDBRANCH  12  26
TORSDOF 4
ENDMDL
MODEL 9
REMARK VINA RESULT:      -7.5      6.315      8.080
REMARK  Name = 44259886
REMARK  4 active torsions:
REMARK  status: ('A' for Active; 'I' for Inactive)
REMARK    1  A    between atoms: O_2  and  C_13
REMARK    2  A    between atoms: O_3  and  C_18
REMARK    3  A    between atoms: O_7  and  C_24
REMARK    4  A    between atoms: C_12  and  C_14
REMARK                            x       y       z     vdW  Elec       q    Type
REMARK                         _______ _______ _______ _____ _____    ______ ____
ROOT
ATOM      1  O   UNL     1     104.116 124.747 147.183  0.00  0.00    +0.000 OA
ATOM      2  O   UNL     1     102.273 122.748 146.210  0.00  0.00    +0.000 OA
ATOM      3  O   UNL     1     103.324 123.263 145.368  0.00  0.00    +0.000 OA
ATOM      4  O   UNL     1     102.017 123.753 148.940  0.00  0.00    +0.000 OA
ATOM      5  C   UNL     1     103.204 123.759 146.703  0.00  0.00    +0.000 A 
ATOM      6  C   UNL     1     103.468 124.253 147.308  0.00  0.00    +0.000 A 
ATOM      7  C   UNL     1     104.501 124.747 146.454  0.00  0.00    +0.000 A 
ATOM      8  C   UNL     1     104.237 124.253 145.848  0.00  0.00    +0.000 A 
ATOM      9  C   UNL     1     103.588 123.758 145.973  0.00  0.00    +0.000 A 
ATOM     10  C   UNL     1     102.529 123.238 146.820  0.00  0.00    +0.000 A 
ATOM     11  C   UNL     1     103.076 124.263 148.073  0.00  0.00    +0.000 A 
ATOM     12  C   UNL     1     102.125 123.235 147.578  0.00  0.00    +0.000 A 
ATOM     13  C   UNL     1     102.400 123.750 148.209  0.00  0.00    +0.000 A 
ENDROOT
BRANCH   7  16
ATOM     14  O   UNL     1     107.322 125.199 146.541  0.00  0.00    +0.000 OA
ATOM     15  O   UNL     1     105.573 127.261 145.617  0.00  0.00    +0.000 OA
ATOM     16  C   UNL     1     105.149 125.241 146.329  0.00  0.00    +0.000 A 
ATOM     17  C   UNL     1     105.037 126.004 146.035  0.00  0.00    +0.000 A 
ATOM     18  C   UNL     1     105.911 124.973 146.497  0.00  0.00    +0.000 A 
ATOM     19  C   UNL     1     106.560 125.467 146.372  0.00  0.00    +0.000 A 
ATOM     20  C   UNL     1     105.685 126.498 145.910  0.00  0.00    +0.000 A 
ATOM     21  C   UNL     1     106.447 126.230 146.079  0.00  0.00    +0.000 A 
BRANCH  21  22
ATOM     22  O   UNL     1     107.096 126.724 145.954  0.00  0.00    +0.000 OA
ATOM     23  C   UNL     1     107.334 127.250 146.544  0.00  0.00    +0.000 C 
ENDBRANCH  21  22
ENDBRANCH   7  16
BRANCH   8  24
ATOM     24  O   UNL     1     104.621 124.252 145.118  0.00  0.00    +0.000 OA
ATOM     25  C   UNL     1     104.564 123.595 144.622  0.00  0.00    +0.000 C 
ENDBRANCH   8  24
BRANCH  12  26
ATOM     26  O   UNL     1     101.476 122.739 147.700  0.00  0.00    +0.000 OA
ATOM     27  C   UNL     1     100.711 123.045 147.662  0.00  0.00    +0.000 C 
ENDBRANCH  12  26
TORSDOF 4
ENDMDL
MODEL 10
REMARK VINA RESULT:      -7.5      5.388      8.122
REMARK  Name = 44259886
REMARK  4 active torsions:
REMARK  status: ('A' for Active; 'I' for Inactive)
REMARK    1  A    between atoms: O_2  and  C_13
REMARK    2  A    between atoms: O_3  and  C_18
REMARK    3  A    between atoms: O_7  and  C_24
REMARK    4  A    between atoms: C_12  and  C_14
REMARK                            x       y       z     vdW  Elec       q    Type
REMARK                         _______ _______ _______ _____ _____    ______ ____
ROOT
ATOM      1  O   UNL     1     106.376 125.086 145.826  0.00  0.00    +0.000 OA
ATOM      2  O   UNL     1     106.066 127.223 143.907  0.00  0.00    +0.000 OA
ATOM      3  O   UNL     1     106.507 127.491 145.254  0.00  0.00    +0.000 OA
ATOM      4  O   UNL     1     105.482 124.471 143.124  0.00  0.00    +0.000 OA
ATOM      5  C   UNL     1     106.223 126.142 144.876  0.00  0.00    +0.000 A 
ATOM      6  C   UNL     1     106.179 125.340 145.067  0.00  0.00    +0.000 A 
ATOM      7  C   UNL     1     106.617 125.633 146.395  0.00  0.00    +0.000 A 
ATOM      8  C   UNL     1     106.661 126.434 146.205  0.00  0.00    +0.000 A 
ATOM      9  C   UNL     1     106.464 126.689 145.444  0.00  0.00    +0.000 A 
ATOM     10  C   UNL     1     106.020 126.420 144.088  0.00  0.00    +0.000 A 
ATOM     11  C   UNL     1     105.929 124.761 144.483  0.00  0.00    +0.000 A 
ATOM     12  C   UNL     1     105.768 125.855 143.492  0.00  0.00    +0.000 A 
ATOM     13  C   UNL     1     105.723 125.020 143.691  0.00  0.00    +0.000 A 
ENDROOT
BRANCH   7  16
ATOM     14  O   UNL     1     105.835 124.948 149.057  0.00  0.00    +0.000 OA
ATOM     15  O   UNL     1     108.584 124.791 148.291  0.00  0.00    +0.000 OA
ATOM     16  C   UNL     1     106.815 125.379 147.154  0.00  0.00    +0.000 A 
ATOM     17  C   UNL     1     107.601 125.212 147.343  0.00  0.00    +0.000 A 
ATOM     18  C   UNL     1     106.226 125.291 147.726  0.00  0.00    +0.000 A 
ATOM     19  C   UNL     1     106.423 125.036 148.486  0.00  0.00    +0.000 A 
ATOM     20  C   UNL     1     107.798 124.958 148.102  0.00  0.00    +0.000 A 
ATOM     21  C   UNL     1     107.209 124.870 148.674  0.00  0.00    +0.000 A 
BRANCH  21  22
ATOM     22  O   UNL     1     107.406 124.615 149.434  0.00  0.00    +0.000 OA
ATOM     23  C   UNL     1     107.408 123.810 149.612  0.00  0.00    +0.000 C 
ENDBRANCH  21  22
ENDBRANCH   7  16
BRANCH   8  24
ATOM     24  O   UNL     1     106.902 126.982 146.773  0.00  0.00    +0.000 OA
ATOM     25  C   UNL     1     106.867 127.789 146.609  0.00  0.00    +0.000 C 
ENDBRANCH   8  24
BRANCH  12  26
ATOM     26  O   UNL     1     105.571 126.113 142.733  0.00  0.00    +0.000 OA
ATOM     27  C   UNL     1     106.090 125.980 142.105  0.00  0.00    +0.000 C 
ENDBRANCH  12  26
TORSDOF 4
ENDMDL
