MODEL 1
REMARK VINA RESULT:      -8.9      0.000      0.000
REMARK  Name = 44260006
REMARK  6 active torsions:
REMARK  status: ('A' for Active; 'I' for Inactive)
REMARK    1  A    between atoms: O_2  and  C_18
REMARK    2  A    between atoms: O_2  and  C_20
REMARK    3  A    between atoms: O_10  and  C_31
REMARK    4  A    between atoms: O_11  and  C_33
REMARK    5  A    between atoms: C_16  and  C_19
REMARK    6  A    between atoms: C_23  and  C_26
REMARK                            x       y       z     vdW  Elec       q    Type
REMARK                         _______ _______ _______ _____ _____    ______ ____
ROOT
ATOM      1  O   UNL     1     110.163 125.947 138.549  0.00  0.00    +0.000 OA
ATOM      2  C   UNL     1     110.738 125.818 137.247  0.00  0.00    +0.000 A 
ATOM      3  C   UNL     1     110.290 126.248 137.791  0.00  0.00    +0.000 A 
ATOM      4  C   UNL     1     110.865 126.119 136.489  0.00  0.00    +0.000 A 
ATOM      5  C   UNL     1     110.096 127.278 136.819  0.00  0.00    +0.000 A 
ATOM      6  C   UNL     1     109.969 126.977 137.577  0.00  0.00    +0.000 A 
ATOM      7  C   UNL     1     110.544 126.848 136.275  0.00  0.00    +0.000 A 
ENDROOT
BRANCH   5  12
ATOM      8  O   UNL     1     110.211 128.699 136.719  0.00  0.00    +0.000 OA
ATOM      9  O   UNL     1     108.583 127.354 136.165  0.00  0.00    +0.000 OA
ATOM     10  O   UNL     1     108.032 130.248 135.624  0.00  0.00    +0.000 OA
ATOM     11  O   UNL     1     107.941 128.813 135.737  0.00  0.00    +0.000 OA
ATOM     12  C   UNL     1     109.775 128.007 136.605  0.00  0.00    +0.000 A 
ATOM     13  C   UNL     1     109.890 129.428 136.505  0.00  0.00    +0.000 A 
ATOM     14  C   UNL     1     109.133 129.466 136.177  0.00  0.00    +0.000 A 
ATOM     15  C   UNL     1     109.019 128.045 136.278  0.00  0.00    +0.000 A 
ATOM     16  C   UNL     1     108.698 128.774 136.064  0.00  0.00    +0.000 A 
ATOM     17  C   UNL     1     110.354 130.141 136.628  0.00  0.00    +0.000 A 
ATOM     18  C   UNL     1     108.788 130.220 135.951  0.00  0.00    +0.000 A 
ATOM     19  C   UNL     1     110.025 130.903 136.407  0.00  0.00    +0.000 A 
ATOM     20  C   UNL     1     109.237 130.943 136.066  0.00  0.00    +0.000 A 
BRANCH  17  21
ATOM     21  O   UNL     1     111.109 130.093 136.956  0.00  0.00    +0.000 OA
ATOM     22  C   UNL     1     111.772 130.226 136.483  0.00  0.00    +0.000 C 
ENDBRANCH  17  21
BRANCH  19  23
ATOM     23  O   UNL     1     110.463 131.593 136.521  0.00  0.00    +0.000 OA
ATOM     24  C   UNL     1     110.085 132.326 136.523  0.00  0.00    +0.000 C 
ENDBRANCH  19  23
ENDBRANCH   5  12
BRANCH   2  25
ATOM     25  O   UNL     1     111.058 125.090 137.461  0.00  0.00    +0.000 OA
BRANCH  25  34
ATOM     26  O   UNL     1     112.411 125.481 137.701  0.00  0.00    +0.000 OA
ATOM     27  O   UNL     1     113.206 123.491 136.464  0.00  0.00    +0.000 OA
ATOM     28  O   UNL     1     114.294 124.545 137.117  0.00  0.00    +0.000 OA
ATOM     29  O   UNL     1     111.588 123.763 136.636  0.00  0.00    +0.000 OA
ATOM     30  C   UNL     1     112.941 124.154 136.876  0.00  0.00    +0.000 C 
ATOM     31  C   UNL     1     113.485 124.681 137.202  0.00  0.00    +0.000 C 
ATOM     32  C   UNL     1     113.220 125.344 137.615  0.00  0.00    +0.000 C 
ATOM     33  C   UNL     1     112.132 124.290 136.962  0.00  0.00    +0.000 C 
ATOM     34  C   UNL     1     111.867 124.953 137.375  0.00  0.00    +0.000 C 
BRANCH  32  36
ATOM     35  O   UNL     1     113.684 126.112 138.728  0.00  0.00    +0.000 OA
ATOM     36  C   UNL     1     113.764 125.872 137.942  0.00  0.00    +0.000 C 
ENDBRANCH  32  36
ENDBRANCH  25  34
ENDBRANCH   2  25
TORSDOF 6
ENDMDL
MODEL 2
REMARK VINA RESULT:      -8.9      1.404      6.178
REMARK  Name = 44260006
REMARK  6 active torsions:
REMARK  status: ('A' for Active; 'I' for Inactive)
REMARK    1  A    between atoms: O_2  and  C_18
REMARK    2  A    between atoms: O_2  and  C_20
REMARK    3  A    between atoms: O_10  and  C_31
REMARK    4  A    between atoms: O_11  and  C_33
REMARK    5  A    between atoms: C_16  and  C_19
REMARK    6  A    between atoms: C_23  and  C_26
REMARK                            x       y       z     vdW  Elec       q    Type
REMARK                         _______ _______ _______ _____ _____    ______ ____
ROOT
ATOM      1  O   UNL     1     111.914 129.368 134.614  0.00  0.00    +0.000 OA
ATOM      2  C   UNL     1     111.705 129.477 136.024  0.00  0.00    +0.000 A 
ATOM      3  C   UNL     1     111.972 129.047 135.373  0.00  0.00    +0.000 A 
ATOM      4  C   UNL     1     111.764 129.156 136.782  0.00  0.00    +0.000 A 
ATOM      5  C   UNL     1     112.357 127.975 136.237  0.00  0.00    +0.000 A 
ATOM      6  C   UNL     1     112.298 128.296 135.479  0.00  0.00    +0.000 A 
ATOM      7  C   UNL     1     112.089 128.406 136.889  0.00  0.00    +0.000 A 
ENDROOT
BRANCH   5  12
ATOM      8  O   UNL     1     112.191 126.562 136.364  0.00  0.00    +0.000 OA
ATOM      9  O   UNL     1     113.989 127.800 136.407  0.00  0.00    +0.000 OA
ATOM     10  O   UNL     1     114.501 124.869 136.751  0.00  0.00    +0.000 OA
ATOM     11  O   UNL     1     114.639 126.299 136.620  0.00  0.00    +0.000 OA
ATOM     12  C   UNL     1     112.682 127.225 136.343  0.00  0.00    +0.000 A 
ATOM     13  C   UNL     1     112.517 125.811 136.470  0.00  0.00    +0.000 A 
ATOM     14  C   UNL     1     113.333 125.724 136.556  0.00  0.00    +0.000 A 
ATOM     15  C   UNL     1     113.497 127.137 136.428  0.00  0.00    +0.000 A 
ATOM     16  C   UNL     1     113.823 126.387 136.535  0.00  0.00    +0.000 A 
ATOM     17  C   UNL     1     111.995 125.128 136.490  0.00  0.00    +0.000 A 
ATOM     18  C   UNL     1     113.684 124.947 136.667  0.00  0.00    +0.000 A 
ATOM     19  C   UNL     1     112.328 124.344 136.601  0.00  0.00    +0.000 A 
ATOM     20  C   UNL     1     113.178 124.253 136.690  0.00  0.00    +0.000 A 
BRANCH  17  21
ATOM     21  O   UNL     1     111.181 125.226 136.404  0.00  0.00    +0.000 OA
ATOM     22  C   UNL     1     110.809 124.985 135.708  0.00  0.00    +0.000 C 
ENDBRANCH  17  21
BRANCH  19  23
ATOM     23  O   UNL     1     111.836 123.683 136.621  0.00  0.00    +0.000 OA
ATOM     24  C   UNL     1     112.007 123.056 137.130  0.00  0.00    +0.000 C 
ENDBRANCH  19  23
ENDBRANCH   5  12
BRANCH   2  25
ATOM     25  O   UNL     1     111.380 130.227 135.918  0.00  0.00    +0.000 OA
BRANCH  25  34
ATOM     26  O   UNL     1     110.001 129.892 136.082  0.00  0.00    +0.000 OA
ATOM     27  O   UNL     1     109.663 131.939 137.430  0.00  0.00    +0.000 OA
ATOM     28  O   UNL     1     108.397 130.922 137.145  0.00  0.00    +0.000 OA
ATOM     29  O   UNL     1     111.155 131.592 136.817  0.00  0.00    +0.000 OA
ATOM     30  C   UNL     1     109.776 131.257 136.981  0.00  0.00    +0.000 C 
ATOM     31  C   UNL     1     109.143 130.748 136.838  0.00  0.00    +0.000 C 
ATOM     32  C   UNL     1     109.255 130.066 136.389  0.00  0.00    +0.000 C 
ATOM     33  C   UNL     1     110.522 131.084 136.674  0.00  0.00    +0.000 C 
ATOM     34  C   UNL     1     110.635 130.401 136.225  0.00  0.00    +0.000 C 
BRANCH  32  36
ATOM     35  O   UNL     1     108.490 129.268 135.484  0.00  0.00    +0.000 OA
ATOM     36  C   UNL     1     108.622 129.556 136.246  0.00  0.00    +0.000 C 
ENDBRANCH  32  36
ENDBRANCH  25  34
ENDBRANCH   2  25
TORSDOF 6
ENDMDL
MODEL 3
REMARK VINA RESULT:      -8.7      8.438      9.611
REMARK  Name = 44260006
REMARK  6 active torsions:
REMARK  status: ('A' for Active; 'I' for Inactive)
REMARK    1  A    between atoms: O_2  and  C_18
REMARK    2  A    between atoms: O_2  and  C_20
REMARK    3  A    between atoms: O_10  and  C_31
REMARK    4  A    between atoms: O_11  and  C_33
REMARK    5  A    between atoms: C_16  and  C_19
REMARK    6  A    between atoms: C_23  and  C_26
REMARK                            x       y       z     vdW  Elec       q    Type
REMARK                         _______ _______ _______ _____ _____    ______ ____
ROOT
ATOM      1  O   UNL     1     107.519 127.825 144.541  0.00  0.00    +0.000 OA
ATOM      2  C   UNL     1     106.484 126.855 144.713  0.00  0.00    +0.000 A 
ATOM      3  C   UNL     1     106.768 127.541 144.352  0.00  0.00    +0.000 A 
ATOM      4  C   UNL     1     105.732 126.571 144.524  0.00  0.00    +0.000 A 
ATOM      5  C   UNL     1     105.549 127.659 143.615  0.00  0.00    +0.000 A 
ATOM      6  C   UNL     1     106.300 127.943 143.804  0.00  0.00    +0.000 A 
ATOM      7  C   UNL     1     105.265 126.973 143.975  0.00  0.00    +0.000 A 
ENDROOT
BRANCH   5  12
ATOM      8  O   UNL     1     104.634 128.711 143.304  0.00  0.00    +0.000 OA
ATOM      9  O   UNL     1     105.511 127.161 142.042  0.00  0.00    +0.000 OA
ATOM     10  O   UNL     1     103.652 129.018 140.604  0.00  0.00    +0.000 OA
ATOM     11  O   UNL     1     104.577 127.964 140.945  0.00  0.00    +0.000 OA
ATOM     12  C   UNL     1     105.082 128.061 143.066  0.00  0.00    +0.000 A 
ATOM     13  C   UNL     1     104.167 129.113 142.755  0.00  0.00    +0.000 A 
ATOM     14  C   UNL     1     104.148 128.864 141.968  0.00  0.00    +0.000 A 
ATOM     15  C   UNL     1     105.063 127.811 142.280  0.00  0.00    +0.000 A 
ATOM     16  C   UNL     1     104.596 128.213 141.732  0.00  0.00    +0.000 A 
ATOM     17  C   UNL     1     103.705 129.789 143.015  0.00  0.00    +0.000 A 
ATOM     18  C   UNL     1     103.665 129.274 141.388  0.00  0.00    +0.000 A 
ATOM     19  C   UNL     1     103.217 130.211 142.448  0.00  0.00    +0.000 A 
ATOM     20  C   UNL     1     103.197 129.952 141.629  0.00  0.00    +0.000 A 
BRANCH  17  21
ATOM     21  O   UNL     1     103.731 130.031 143.803  0.00  0.00    +0.000 OA
ATOM     22  C   UNL     1     104.087 130.748 144.002  0.00  0.00    +0.000 C 
ENDBRANCH  17  21
BRANCH  19  23
ATOM     23  O   UNL     1     102.770 130.862 142.689  0.00  0.00    +0.000 OA
ATOM     24  C   UNL     1     102.217 131.195 142.174  0.00  0.00    +0.000 C 
ENDBRANCH  19  23
ENDBRANCH   5  12
BRANCH   2  25
ATOM     25  O   UNL     1     106.951 126.454 145.261  0.00  0.00    +0.000 OA
BRANCH  25  34
ATOM     26  O   UNL     1     106.289 126.826 146.471  0.00  0.00    +0.000 OA
ATOM     27  O   UNL     1     106.405 124.482 147.255  0.00  0.00    +0.000 OA
ATOM     28  O   UNL     1     105.705 125.635 148.204  0.00  0.00    +0.000 OA
ATOM     29  O   UNL     1     107.028 124.891 145.783  0.00  0.00    +0.000 OA
ATOM     30  C   UNL     1     106.366 125.263 146.994  0.00  0.00    +0.000 C 
ATOM     31  C   UNL     1     106.016 125.839 147.468  0.00  0.00    +0.000 C 
ATOM     32  C   UNL     1     105.978 126.621 147.207  0.00  0.00    +0.000 C 
ATOM     33  C   UNL     1     106.678 125.467 146.258  0.00  0.00    +0.000 C 
ATOM     34  C   UNL     1     106.639 126.249 145.996  0.00  0.00    +0.000 C 
BRANCH  32  36
ATOM     35  O   UNL     1     105.919 127.971 147.672  0.00  0.00    +0.000 OA
ATOM     36  C   UNL     1     105.628 127.198 147.681  0.00  0.00    +0.000 C 
ENDBRANCH  32  36
ENDBRANCH  25  34
ENDBRANCH   2  25
TORSDOF 6
ENDMDL
MODEL 4
REMARK VINA RESULT:      -8.7      1.409      5.742
REMARK  Name = 44260006
REMARK  6 active torsions:
REMARK  status: ('A' for Active; 'I' for Inactive)
REMARK    1  A    between atoms: O_2  and  C_18
REMARK    2  A    between atoms: O_2  and  C_20
REMARK    3  A    between atoms: O_10  and  C_31
REMARK    4  A    between atoms: O_11  and  C_33
REMARK    5  A    between atoms: C_16  and  C_19
REMARK    6  A    between atoms: C_23  and  C_26
REMARK                            x       y       z     vdW  Elec       q    Type
REMARK                         _______ _______ _______ _____ _____    ______ ____
ROOT
ATOM      1  O   UNL     1     110.048 129.925 134.612  0.00  0.00    +0.000 OA
ATOM      2  C   UNL     1     109.423 129.659 135.869  0.00  0.00    +0.000 A 
ATOM      3  C   UNL     1     109.914 129.420 135.251  0.00  0.00    +0.000 A 
ATOM      4  C   UNL     1     109.288 129.153 136.508  0.00  0.00    +0.000 A 
ATOM      5  C   UNL     1     110.136 128.170 135.909  0.00  0.00    +0.000 A 
ATOM      6  C   UNL     1     110.270 128.676 135.271  0.00  0.00    +0.000 A 
ATOM      7  C   UNL     1     109.645 128.409 136.528  0.00  0.00    +0.000 A 
ENDROOT
BRANCH   5  12
ATOM      8  O   UNL     1     111.249 127.341 136.248  0.00  0.00    +0.000 OA
ATOM      9  O   UNL     1     109.338 126.856 135.310  0.00  0.00    +0.000 OA
ATOM     10  O   UNL     1     111.160 124.509 135.681  0.00  0.00    +0.000 OA
ATOM     11  O   UNL     1     110.051 125.369 135.349  0.00  0.00    +0.000 OA
ATOM     12  C   UNL     1     110.493 127.427 135.928  0.00  0.00    +0.000 A 
ATOM     13  C   UNL     1     111.605 126.597 136.267  0.00  0.00    +0.000 A 
ATOM     14  C   UNL     1     111.206 125.939 135.968  0.00  0.00    +0.000 A 
ATOM     15  C   UNL     1     110.094 126.770 135.629  0.00  0.00    +0.000 A 
ATOM     16  C   UNL     1     110.450 126.027 135.649  0.00  0.00    +0.000 A 
ATOM     17  C   UNL     1     112.393 126.520 136.603  0.00  0.00    +0.000 A 
ATOM     18  C   UNL     1     111.567 125.160 135.983  0.00  0.00    +0.000 A 
ATOM     19  C   UNL     1     112.769 125.748 136.626  0.00  0.00    +0.000 A 
ATOM     20  C   UNL     1     112.353 125.063 136.314  0.00  0.00    +0.000 A 
BRANCH  17  21
ATOM     21  O   UNL     1     112.784 127.182 136.899  0.00  0.00    +0.000 OA
ATOM     22  C   UNL     1     113.417 127.508 136.482  0.00  0.00    +0.000 C 
ENDBRANCH  17  21
BRANCH  19  23
ATOM     23  O   UNL     1     113.525 125.664 136.945  0.00  0.00    +0.000 OA
ATOM     24  C   UNL     1     113.790 124.921 137.188  0.00  0.00    +0.000 C 
ENDBRANCH  19  23
ENDBRANCH   5  12
BRANCH   2  25
ATOM     25  O   UNL     1     109.067 130.402 135.849  0.00  0.00    +0.000 OA
BRANCH  25  34
ATOM     26  O   UNL     1     109.889 131.096 136.789  0.00  0.00    +0.000 OA
ATOM     27  O   UNL     1     107.869 132.075 137.832  0.00  0.00    +0.000 OA
ATOM     28  O   UNL     1     109.363 132.443 138.424  0.00  0.00    +0.000 OA
ATOM     29  O   UNL     1     107.720 131.054 136.544  0.00  0.00    +0.000 OA
ATOM     30  C   UNL     1     108.542 131.749 137.484  0.00  0.00    +0.000 C 
ATOM     31  C   UNL     1     109.289 131.933 137.780  0.00  0.00    +0.000 C 
ATOM     32  C   UNL     1     109.962 131.607 137.433  0.00  0.00    +0.000 C 
ATOM     33  C   UNL     1     108.467 131.238 136.840  0.00  0.00    +0.000 C 
ATOM     34  C   UNL     1     109.140 130.912 136.493  0.00  0.00    +0.000 C 
BRANCH  32  36
ATOM     35  O   UNL     1     111.316 132.007 137.211  0.00  0.00    +0.000 OA
ATOM     36  C   UNL     1     110.710 131.791 137.729  0.00  0.00    +0.000 C 
ENDBRANCH  32  36
ENDBRANCH  25  34
ENDBRANCH   2  25
TORSDOF 6
ENDMDL
MODEL 5
REMARK VINA RESULT:      -8.7      1.409      6.032
REMARK  Name = 44260006
REMARK  6 active torsions:
REMARK  status: ('A' for Active; 'I' for Inactive)
REMARK    1  A    between atoms: O_2  and  C_18
REMARK    2  A    between atoms: O_2  and  C_20
REMARK    3  A    between atoms: O_10  and  C_31
REMARK    4  A    between atoms: O_11  and  C_33
REMARK    5  A    between atoms: C_16  and  C_19
REMARK    6  A    between atoms: C_23  and  C_26
REMARK                            x       y       z     vdW  Elec       q    Type
REMARK                         _______ _______ _______ _____ _____    ______ ____
ROOT
ATOM      1  O   UNL     1     109.286 129.117 138.213  0.00  0.00    +0.000 OA
ATOM      2  C   UNL     1     109.368 129.308 136.799  0.00  0.00    +0.000 A 
ATOM      3  C   UNL     1     109.659 128.967 137.492  0.00  0.00    +0.000 A 
ATOM      4  C   UNL     1     109.741 129.158 136.078  0.00  0.00    +0.000 A 
ATOM      5  C   UNL     1     110.696 128.328 136.744  0.00  0.00    +0.000 A 
ATOM      6  C   UNL     1     110.322 128.478 137.464  0.00  0.00    +0.000 A 
ATOM      7  C   UNL     1     110.405 128.669 136.050  0.00  0.00    +0.000 A 
ENDROOT
BRANCH   5  12
ATOM      8  O   UNL     1     111.266 127.022 136.638  0.00  0.00    +0.000 OA
ATOM      9  O   UNL     1     112.208 128.981 136.847  0.00  0.00    +0.000 OA
ATOM     10  O   UNL     1     114.137 126.695 136.686  0.00  0.00    +0.000 OA
ATOM     11  O   UNL     1     113.535 128.002 136.792  0.00  0.00    +0.000 OA
ATOM     12  C   UNL     1     111.359 127.839 136.717  0.00  0.00    +0.000 A 
ATOM     13  C   UNL     1     111.930 126.533 136.610  0.00  0.00    +0.000 A 
ATOM     14  C   UNL     1     112.686 126.859 136.662  0.00  0.00    +0.000 A 
ATOM     15  C   UNL     1     112.114 128.165 136.768  0.00  0.00    +0.000 A 
ATOM     16  C   UNL     1     112.778 127.675 136.741  0.00  0.00    +0.000 A 
ATOM     17  C   UNL     1     111.820 125.684 136.528  0.00  0.00    +0.000 A 
ATOM     18  C   UNL     1     113.385 126.360 136.634  0.00  0.00    +0.000 A 
ATOM     19  C   UNL     1     112.507 125.170 136.499  0.00  0.00    +0.000 A 
ATOM     20  C   UNL     1     113.295 125.510 136.552  0.00  0.00    +0.000 A 
BRANCH  17  21
ATOM     21  O   UNL     1     111.060 125.367 136.477  0.00  0.00    +0.000 OA
ATOM     22  C   UNL     1     110.783 125.077 135.756  0.00  0.00    +0.000 C 
ENDBRANCH  17  21
BRANCH  19  23
ATOM     23  O   UNL     1     112.412 124.354 136.420  0.00  0.00    +0.000 OA
ATOM     24  C   UNL     1     112.980 123.841 136.726  0.00  0.00    +0.000 C 
ENDBRANCH  19  23
ENDBRANCH   5  12
BRANCH   2  25
ATOM     25  O   UNL     1     108.705 129.797 136.826  0.00  0.00    +0.000 OA
BRANCH  25  34
ATOM     26  O   UNL     1     109.347 131.055 136.612  0.00  0.00    +0.000 OA
ATOM     27  O   UNL     1     107.529 131.719 135.069  0.00  0.00    +0.000 OA
ATOM     28  O   UNL     1     108.776 132.756 135.369  0.00  0.00    +0.000 OA
ATOM     29  O   UNL     1     107.493 130.239 135.798  0.00  0.00    +0.000 OA
ATOM     30  C   UNL     1     108.135 131.498 135.584  0.00  0.00    +0.000 C 
ATOM     31  C   UNL     1     108.758 132.016 135.733  0.00  0.00    +0.000 C 
ATOM     32  C   UNL     1     109.364 131.795 136.247  0.00  0.00    +0.000 C 
ATOM     33  C   UNL     1     108.116 130.758 135.948  0.00  0.00    +0.000 C 
ATOM     34  C   UNL     1     108.722 130.536 136.462  0.00  0.00    +0.000 C 
BRANCH  32  36
ATOM     35  O   UNL     1     110.245 132.436 137.173  0.00  0.00    +0.000 OA
ATOM     36  C   UNL     1     109.988 132.313 136.397  0.00  0.00    +0.000 C 
ENDBRANCH  32  36
ENDBRANCH  25  34
ENDBRANCH   2  25
TORSDOF 6
ENDMDL
MODEL 6
REMARK VINA RESULT:      -8.6      3.374      5.313
REMARK  Name = 44260006
REMARK  6 active torsions:
REMARK  status: ('A' for Active; 'I' for Inactive)
REMARK    1  A    between atoms: O_2  and  C_18
REMARK    2  A    between atoms: O_2  and  C_20
REMARK    3  A    between atoms: O_10  and  C_31
REMARK    4  A    between atoms: O_11  and  C_33
REMARK    5  A    between atoms: C_16  and  C_19
REMARK    6  A    between atoms: C_23  and  C_26
REMARK                            x       y       z     vdW  Elec       q    Type
REMARK                         _______ _______ _______ _____ _____    ______ ____
ROOT
ATOM      1  O   UNL     1     113.693 127.304 140.456  0.00  0.00    +0.000 OA
ATOM      2  C   UNL     1     113.488 128.573 139.830  0.00  0.00    +0.000 A 
ATOM      3  C   UNL     1     113.280 127.780 139.921  0.00  0.00    +0.000 A 
ATOM      4  C   UNL     1     113.075 129.048 139.296  0.00  0.00    +0.000 A 
ATOM      5  C   UNL     1     112.248 127.936 138.945  0.00  0.00    +0.000 A 
ATOM      6  C   UNL     1     112.661 127.462 139.479  0.00  0.00    +0.000 A 
ATOM      7  C   UNL     1     112.456 128.730 138.853  0.00  0.00    +0.000 A 
ENDROOT
BRANCH   5  12
ATOM      8  O   UNL     1     111.787 127.234 137.789  0.00  0.00    +0.000 OA
ATOM      9  O   UNL     1     110.695 128.067 139.486  0.00  0.00    +0.000 OA
ATOM     10  O   UNL     1     108.964 126.725 137.444  0.00  0.00    +0.000 OA
ATOM     11  O   UNL     1     109.456 127.431 138.601  0.00  0.00    +0.000 OA
ATOM     12  C   UNL     1     111.629 127.618 138.502  0.00  0.00    +0.000 A 
ATOM     13  C   UNL     1     111.167 126.916 137.347  0.00  0.00    +0.000 A 
ATOM     14  C   UNL     1     110.390 126.981 137.617  0.00  0.00    +0.000 A 
ATOM     15  C   UNL     1     110.853 127.684 138.773  0.00  0.00    +0.000 A 
ATOM     16  C   UNL     1     110.234 127.365 138.330  0.00  0.00    +0.000 A 
ATOM     17  C   UNL     1     111.344 126.518 136.605  0.00  0.00    +0.000 A 
ATOM     18  C   UNL     1     109.737 126.654 137.166  0.00  0.00    +0.000 A 
ATOM     19  C   UNL     1     110.703 126.185 136.141  0.00  0.00    +0.000 A 
ATOM     20  C   UNL     1     109.894 126.253 136.422  0.00  0.00    +0.000 A 
BRANCH  17  21
ATOM     21  O   UNL     1     112.124 126.458 136.343  0.00  0.00    +0.000 OA
ATOM     22  C   UNL     1     112.502 125.724 136.344  0.00  0.00    +0.000 C 
ENDBRANCH  17  21
BRANCH  19  23
ATOM     23  O   UNL     1     110.863 125.802 135.428  0.00  0.00    +0.000 OA
ATOM     24  C   UNL     1     110.277 125.741 134.851  0.00  0.00    +0.000 C 
ENDBRANCH  19  23
ENDBRANCH   5  12
BRANCH   2  25
ATOM     25  O   UNL     1     114.106 128.891 140.272  0.00  0.00    +0.000 OA
BRANCH  25  34
ATOM     26  O   UNL     1     113.324 129.634 141.209  0.00  0.00    +0.000 OA
ATOM     27  O   UNL     1     114.947 131.498 141.085  0.00  0.00    +0.000 OA
ATOM     28  O   UNL     1     113.624 131.619 142.063  0.00  0.00    +0.000 OA
ATOM     29  O   UNL     1     115.188 130.134 140.190  0.00  0.00    +0.000 OA
ATOM     30  C   UNL     1     114.406 130.877 141.127  0.00  0.00    +0.000 C 
ATOM     31  C   UNL     1     113.745 130.938 141.615  0.00  0.00    +0.000 C 
ATOM     32  C   UNL     1     113.204 130.316 141.656  0.00  0.00    +0.000 C 
ATOM     33  C   UNL     1     114.527 130.195 140.678  0.00  0.00    +0.000 C 
ATOM     34  C   UNL     1     113.986 129.573 140.720  0.00  0.00    +0.000 C 
BRANCH  32  36
ATOM     35  O   UNL     1     112.327 129.742 142.627  0.00  0.00    +0.000 OA
ATOM     36  C   UNL     1     112.542 130.376 142.145  0.00  0.00    +0.000 C 
ENDBRANCH  32  36
ENDBRANCH  25  34
ENDBRANCH   2  25
TORSDOF 6
ENDMDL
MODEL 7
REMARK VINA RESULT:      -8.6     10.113     12.108
REMARK  Name = 44260006
REMARK  6 active torsions:
REMARK  status: ('A' for Active; 'I' for Inactive)
REMARK    1  A    between atoms: O_2  and  C_18
REMARK    2  A    between atoms: O_2  and  C_20
REMARK    3  A    between atoms: O_10  and  C_31
REMARK    4  A    between atoms: O_11  and  C_33
REMARK    5  A    between atoms: C_16  and  C_19
REMARK    6  A    between atoms: C_23  and  C_26
REMARK                            x       y       z     vdW  Elec       q    Type
REMARK                         _______ _______ _______ _____ _____    ______ ____
ROOT
ATOM      1  O   UNL     1     107.257 125.311 146.426  0.00  0.00    +0.000 OA
ATOM      2  C   UNL     1     106.336 126.308 145.980  0.00  0.00    +0.000 A 
ATOM      3  C   UNL     1     106.481 125.556 146.287  0.00  0.00    +0.000 A 
ATOM      4  C   UNL     1     105.560 126.554 145.841  0.00  0.00    +0.000 A 
ATOM      5  C   UNL     1     105.077 125.295 146.316  0.00  0.00    +0.000 A 
ATOM      6  C   UNL     1     105.852 125.050 146.455  0.00  0.00    +0.000 A 
ATOM      7  C   UNL     1     104.930 126.047 146.009  0.00  0.00    +0.000 A 
ENDROOT
BRANCH   5  12
ATOM      8  O   UNL     1     104.106 124.790 147.236  0.00  0.00    +0.000 OA
ATOM      9  O   UNL     1     104.501 124.279 145.150  0.00  0.00    +0.000 OA
ATOM     10  O   UNL     1     102.253 122.739 146.394  0.00  0.00    +0.000 OA
ATOM     11  O   UNL     1     103.242 123.266 145.486  0.00  0.00    +0.000 OA
ATOM     12  C   UNL     1     104.447 124.788 146.484  0.00  0.00    +0.000 A 
ATOM     13  C   UNL     1     103.477 124.283 147.404  0.00  0.00    +0.000 A 
ATOM     14  C   UNL     1     103.189 123.775 146.820  0.00  0.00    +0.000 A 
ATOM     15  C   UNL     1     104.160 124.281 145.901  0.00  0.00    +0.000 A 
ATOM     16  C   UNL     1     103.530 123.775 146.069  0.00  0.00    +0.000 A 
ATOM     17  C   UNL     1     103.130 124.294 148.190  0.00  0.00    +0.000 A 
ATOM     18  C   UNL     1     102.534 123.243 146.983  0.00  0.00    +0.000 A 
ATOM     19  C   UNL     1     102.475 123.769 148.371  0.00  0.00    +0.000 A 
ATOM     20  C   UNL     1     102.175 123.240 147.763  0.00  0.00    +0.000 A 
BRANCH  17  21
ATOM     21  O   UNL     1     103.425 124.805 148.766  0.00  0.00    +0.000 OA
ATOM     22  C   UNL     1     103.814 124.500 149.427  0.00  0.00    +0.000 C 
ENDBRANCH  17  21
BRANCH  19  23
ATOM     23  O   UNL     1     102.136 123.772 149.123  0.00  0.00    +0.000 OA
ATOM     24  C   UNL     1     101.396 123.427 149.243  0.00  0.00    +0.000 C 
ENDBRANCH  19  23
ENDBRANCH   5  12
BRANCH   2  25
ATOM     25  O   UNL     1     106.964 126.814 145.812  0.00  0.00    +0.000 OA
BRANCH  25  34
ATOM     26  O   UNL     1     106.926 126.797 144.384  0.00  0.00    +0.000 OA
ATOM     27  O   UNL     1     107.196 129.257 144.347  0.00  0.00    +0.000 OA
ATOM     28  O   UNL     1     107.067 128.420 142.932  0.00  0.00    +0.000 OA
ATOM     29  O   UNL     1     107.144 128.454 145.788  0.00  0.00    +0.000 OA
ATOM     30  C   UNL     1     107.106 128.437 144.359  0.00  0.00    +0.000 C 
ATOM     31  C   UNL     1     107.042 128.019 143.652  0.00  0.00    +0.000 C 
ATOM     32  C   UNL     1     106.951 127.199 143.664  0.00  0.00    +0.000 C 
ATOM     33  C   UNL     1     107.080 128.036 145.080  0.00  0.00    +0.000 C 
ATOM     34  C   UNL     1     106.990 127.216 145.092  0.00  0.00    +0.000 C 
BRANCH  32  36
ATOM     35  O   UNL     1     107.344 126.103 142.836  0.00  0.00    +0.000 OA
ATOM     36  C   UNL     1     106.887 126.780 142.957  0.00  0.00    +0.000 C 
ENDBRANCH  32  36
ENDBRANCH  25  34
ENDBRANCH   2  25
TORSDOF 6
ENDMDL
MODEL 8
REMARK VINA RESULT:      -8.6      8.847     11.008
REMARK  Name = 44260006
REMARK  6 active torsions:
REMARK  status: ('A' for Active; 'I' for Inactive)
REMARK    1  A    between atoms: O_2  and  C_18
REMARK    2  A    between atoms: O_2  and  C_20
REMARK    3  A    between atoms: O_10  and  C_31
REMARK    4  A    between atoms: O_11  and  C_33
REMARK    5  A    between atoms: C_16  and  C_19
REMARK    6  A    between atoms: C_23  and  C_26
REMARK                            x       y       z     vdW  Elec       q    Type
REMARK                         _______ _______ _______ _____ _____    ______ ____
ROOT
ATOM      1  O   UNL     1     105.685 124.852 143.099  0.00  0.00    +0.000 OA
ATOM      2  C   UNL     1     105.576 126.208 143.534  0.00  0.00    +0.000 A 
ATOM      3  C   UNL     1     105.665 125.407 143.710  0.00  0.00    +0.000 A 
ATOM      4  C   UNL     1     105.556 126.764 144.145  0.00  0.00    +0.000 A 
ATOM      5  C   UNL     1     105.716 125.716 145.104  0.00  0.00    +0.000 A 
ATOM      6  C   UNL     1     105.735 125.161 144.494  0.00  0.00    +0.000 A 
ATOM      7  C   UNL     1     105.626 126.518 144.929  0.00  0.00    +0.000 A 
ENDROOT
BRANCH   5  12
ATOM      8  O   UNL     1     105.111 125.267 146.318  0.00  0.00    +0.000 OA
ATOM      9  O   UNL     1     107.204 125.629 145.812  0.00  0.00    +0.000 OA
ATOM     10  O   UNL     1     106.759 124.682 148.618  0.00  0.00    +0.000 OA
ATOM     11  O   UNL     1     107.344 125.137 147.380  0.00  0.00    +0.000 OA
ATOM     12  C   UNL     1     105.786 125.470 145.888  0.00  0.00    +0.000 A 
ATOM     13  C   UNL     1     105.181 125.021 147.103  0.00  0.00    +0.000 A 
ATOM     14  C   UNL     1     105.926 124.978 147.457  0.00  0.00    +0.000 A 
ATOM     15  C   UNL     1     106.529 125.426 146.242  0.00  0.00    +0.000 A 
ATOM     16  C   UNL     1     106.599 125.180 147.026  0.00  0.00    +0.000 A 
ATOM     17  C   UNL     1     104.471 124.813 147.540  0.00  0.00    +0.000 A 
ATOM     18  C   UNL     1     106.012 124.723 148.273  0.00  0.00    +0.000 A 
ATOM     19  C   UNL     1     104.538 124.556 148.357  0.00  0.00    +0.000 A 
ATOM     20  C   UNL     1     105.313 124.511 148.726  0.00  0.00    +0.000 A 
BRANCH  17  21
ATOM     21  O   UNL     1     103.732 124.860 147.178  0.00  0.00    +0.000 OA
ATOM     22  C   UNL     1     103.341 124.169 146.951  0.00  0.00    +0.000 C 
ENDBRANCH  17  21
BRANCH  19  23
ATOM     23  O   UNL     1     103.863 124.354 148.786  0.00  0.00    +0.000 OA
ATOM     24  C   UNL     1     103.865 124.405 149.609  0.00  0.00    +0.000 C 
ENDBRANCH  19  23
ENDBRANCH   5  12
BRANCH   2  25
ATOM     25  O   UNL     1     105.506 126.454 142.751  0.00  0.00    +0.000 OA
BRANCH  25  34
ATOM     26  O   UNL     1     106.790 127.058 142.582  0.00  0.00    +0.000 OA
ATOM     27  O   UNL     1     105.739 128.962 141.400  0.00  0.00    +0.000 OA
ATOM     28  O   UNL     1     107.373 128.930 141.625  0.00  0.00    +0.000 OA
ATOM     29  O   UNL     1     104.805 127.724 141.963  0.00  0.00    +0.000 OA
ATOM     30  C   UNL     1     106.090 128.327 141.794  0.00  0.00    +0.000 C 
ATOM     31  C   UNL     1     106.906 128.312 141.906  0.00  0.00    +0.000 C 
ATOM     32  C   UNL     1     107.256 127.677 142.300  0.00  0.00    +0.000 C 
ATOM     33  C   UNL     1     105.622 127.708 142.076  0.00  0.00    +0.000 C 
ATOM     34  C   UNL     1     105.972 127.073 142.469  0.00  0.00    +0.000 C 
BRANCH  32  36
ATOM     35  O   UNL     1     108.487 126.952 142.325  0.00  0.00    +0.000 OA
ATOM     36  C   UNL     1     108.073 127.661 142.413  0.00  0.00    +0.000 C 
ENDBRANCH  32  36
ENDBRANCH  25  34
ENDBRANCH   2  25
TORSDOF 6
ENDMDL
MODEL 9
REMARK VINA RESULT:      -8.5      2.448      6.235
REMARK  Name = 44260006
REMARK  6 active torsions:
REMARK  status: ('A' for Active; 'I' for Inactive)
REMARK    1  A    between atoms: O_2  and  C_18
REMARK    2  A    between atoms: O_2  and  C_20
REMARK    3  A    between atoms: O_10  and  C_31
REMARK    4  A    between atoms: O_11  and  C_33
REMARK    5  A    between atoms: C_16  and  C_19
REMARK    6  A    between atoms: C_23  and  C_26
REMARK                            x       y       z     vdW  Elec       q    Type
REMARK                         _______ _______ _______ _____ _____    ______ ____
ROOT
ATOM      1  O   UNL     1     111.757 129.789 135.730  0.00  0.00    +0.000 OA
ATOM      2  C   UNL     1     110.655 129.718 136.636  0.00  0.00    +0.000 A 
ATOM      3  C   UNL     1     111.468 129.716 136.500  0.00  0.00    +0.000 A 
ATOM      4  C   UNL     1     110.366 129.645 137.406  0.00  0.00    +0.000 A 
ATOM      5  C   UNL     1     111.705 129.569 137.902  0.00  0.00    +0.000 A 
ATOM      6  C   UNL     1     111.993 129.642 137.132  0.00  0.00    +0.000 A 
ATOM      7  C   UNL     1     110.891 129.571 138.039  0.00  0.00    +0.000 A 
ENDROOT
BRANCH   5  12
ATOM      8  O   UNL     1     112.508 128.750 138.753  0.00  0.00    +0.000 OA
ATOM      9  O   UNL     1     112.195 130.910 138.728  0.00  0.00    +0.000 OA
ATOM     10  O   UNL     1     114.064 129.958 140.866  0.00  0.00    +0.000 OA
ATOM     11  O   UNL     1     113.245 130.762 139.993  0.00  0.00    +0.000 OA
ATOM     12  C   UNL     1     112.229 129.495 138.534  0.00  0.00    +0.000 A 
ATOM     13  C   UNL     1     113.033 128.676 139.385  0.00  0.00    +0.000 A 
ATOM     14  C   UNL     1     113.279 129.347 139.799  0.00  0.00    +0.000 A 
ATOM     15  C   UNL     1     112.474 130.165 138.947  0.00  0.00    +0.000 A 
ATOM     16  C   UNL     1     112.999 130.091 139.579  0.00  0.00    +0.000 A 
ATOM     17  C   UNL     1     113.317 127.894 139.603  0.00  0.00    +0.000 A 
ATOM     18  C   UNL     1     113.825 129.282 140.459  0.00  0.00    +0.000 A 
ATOM     19  C   UNL     1     113.863 127.811 140.261  0.00  0.00    +0.000 A 
ATOM     20  C   UNL     1     114.119 128.509 140.692  0.00  0.00    +0.000 A 
BRANCH  17  21
ATOM     21  O   UNL     1     113.066 127.230 139.184  0.00  0.00    +0.000 OA
ATOM     22  C   UNL     1     112.564 126.682 139.544  0.00  0.00    +0.000 C 
ENDBRANCH  17  21
BRANCH  19  23
ATOM     23  O   UNL     1     114.141 127.065 140.478  0.00  0.00    +0.000 OA
ATOM     24  C   UNL     1     114.763 126.997 141.015  0.00  0.00    +0.000 C 
ENDBRANCH  19  23
ENDBRANCH   5  12
BRANCH   2  25
ATOM     25  O   UNL     1     110.131 129.792 136.005  0.00  0.00    +0.000 OA
BRANCH  25  34
ATOM     26  O   UNL     1     109.696 131.137 136.212  0.00  0.00    +0.000 OA
ATOM     27  O   UNL     1     107.359 130.449 135.774  0.00  0.00    +0.000 OA
ATOM     28  O   UNL     1     107.703 132.022 136.127  0.00  0.00    +0.000 OA
ATOM     29  O   UNL     1     108.573 129.333 135.713  0.00  0.00    +0.000 OA
ATOM     30  C   UNL     1     108.138 130.678 135.920  0.00  0.00    +0.000 C 
ATOM     31  C   UNL     1     108.310 131.465 136.096  0.00  0.00    +0.000 C 
ATOM     32  C   UNL     1     109.088 131.694 136.242  0.00  0.00    +0.000 C 
ATOM     33  C   UNL     1     108.745 130.119 135.889  0.00  0.00    +0.000 C 
ATOM     34  C   UNL     1     109.524 130.349 136.035  0.00  0.00    +0.000 C 
BRANCH  32  36
ATOM     35  O   UNL     1     109.910 132.850 136.066  0.00  0.00    +0.000 OA
ATOM     36  C   UNL     1     109.261 132.481 136.418  0.00  0.00    +0.000 C 
ENDBRANCH  32  36
ENDBRANCH  25  34
ENDBRANCH   2  25
TORSDOF 6
ENDMDL
MODEL 10
REMARK VINA RESULT:      -8.5      1.588      2.920
REMARK  Name = 44260006
REMARK  6 active torsions:
REMARK  status: ('A' for Active; 'I' for Inactive)
REMARK    1  A    between atoms: O_2  and  C_18
REMARK    2  A    between atoms: O_2  and  C_20
REMARK    3  A    between atoms: O_10  and  C_31
REMARK    4  A    between atoms: O_11  and  C_33
REMARK    5  A    between atoms: C_16  and  C_19
REMARK    6  A    between atoms: C_23  and  C_26
REMARK                            x       y       z     vdW  Elec       q    Type
REMARK                         _______ _______ _______ _____ _____    ______ ____
ROOT
ATOM      1  O   UNL     1     113.887 127.754 135.736  0.00  0.00    +0.000 OA
ATOM      2  C   UNL     1     113.100 127.201 136.792  0.00  0.00    +0.000 A 
ATOM      3  C   UNL     1     113.316 127.846 136.325  0.00  0.00    +0.000 A 
ATOM      4  C   UNL     1     112.528 127.292 137.382  0.00  0.00    +0.000 A 
ATOM      5  C   UNL     1     112.391 128.672 137.035  0.00  0.00    +0.000 A 
ATOM      6  C   UNL     1     112.961 128.581 136.446  0.00  0.00    +0.000 A 
ATOM      7  C   UNL     1     112.174 128.027 137.503  0.00  0.00    +0.000 A 
ENDROOT
BRANCH   5  12
ATOM      8  O   UNL     1     111.443 129.668 136.645  0.00  0.00    +0.000 OA
ATOM      9  O   UNL     1     112.869 129.621 138.297  0.00  0.00    +0.000 OA
ATOM     10  O   UNL     1     111.212 132.112 138.168  0.00  0.00    +0.000 OA
ATOM     11  O   UNL     1     112.160 131.091 138.539  0.00  0.00    +0.000 OA
ATOM     12  C   UNL     1     112.036 129.407 137.156  0.00  0.00    +0.000 A 
ATOM     13  C   UNL     1     111.088 130.403 136.766  0.00  0.00    +0.000 A 
ATOM     14  C   UNL     1     111.328 130.878 137.398  0.00  0.00    +0.000 A 
ATOM     15  C   UNL     1     112.275 129.881 137.786  0.00  0.00    +0.000 A 
ATOM     16  C   UNL     1     111.921 130.616 137.908  0.00  0.00    +0.000 A 
ATOM     17  C   UNL     1     110.471 130.663 136.227  0.00  0.00    +0.000 A 
ATOM     18  C   UNL     1     110.966 131.645 137.534  0.00  0.00    +0.000 A 
ATOM     19  C   UNL     1     110.099 131.428 136.349  0.00  0.00    +0.000 A 
ATOM     20  C   UNL     1     110.348 131.922 137.006  0.00  0.00    +0.000 A 
BRANCH  17  21
ATOM     21  O   UNL     1     110.239 130.182 135.599  0.00  0.00    +0.000 OA
ATOM     22  C   UNL     1     109.496 129.822 135.609  0.00  0.00    +0.000 C 
ENDBRANCH  17  21
BRANCH  19  23
ATOM     23  O   UNL     1     109.505 131.686 135.837  0.00  0.00    +0.000 OA
ATOM     24  C   UNL     1     109.331 132.490 135.780  0.00  0.00    +0.000 C 
ENDBRANCH  19  23
ENDBRANCH   5  12
BRANCH   2  25
ATOM     25  O   UNL     1     113.454 126.467 136.672  0.00  0.00    +0.000 OA
BRANCH  25  34
ATOM     26  O   UNL     1     112.269 125.818 136.204  0.00  0.00    +0.000 OA
ATOM     27  O   UNL     1     113.024 123.698 137.235  0.00  0.00    +0.000 OA
ATOM     28  O   UNL     1     111.589 123.756 136.424  0.00  0.00    +0.000 OA
ATOM     29  O   UNL     1     113.956 125.054 137.359  0.00  0.00    +0.000 OA
ATOM     30  C   UNL     1     112.772 124.405 136.891  0.00  0.00    +0.000 C 
ATOM     31  C   UNL     1     112.055 124.434 136.486  0.00  0.00    +0.000 C 
ATOM     32  C   UNL     1     111.803 125.140 136.142  0.00  0.00    +0.000 C 
ATOM     33  C   UNL     1     113.239 125.082 136.954  0.00  0.00    +0.000 C 
ATOM     34  C   UNL     1     112.988 125.789 136.610  0.00  0.00    +0.000 C 
BRANCH  32  36
ATOM     35  O   UNL     1     111.046 125.534 134.997  0.00  0.00    +0.000 OA
ATOM     36  C   UNL     1     111.086 125.170 135.737  0.00  0.00    +0.000 C 
ENDBRANCH  32  36
ENDBRANCH  25  34
ENDBRANCH   2  25
TORSDOF 6
ENDMDL
