MODEL 1
REMARK VINA RESULT:      -8.4      0.000      0.000
REMARK  Name = 131839157
REMARK  8 active torsions:
REMARK  status: ('A' for Active; 'I' for Inactive)
REMARK    1  A    between atoms: O_2  and  C_13
REMARK    2  A    between atoms: O_2  and  C_16
REMARK    3  A    between atoms: O_8  and  C_22
REMARK    4  A    between atoms: C_14  and  C_15
REMARK    5  A    between atoms: C_17  and  C_19
REMARK    6  A    between atoms: C_19  and  C_20
REMARK    7  A    between atoms: C_20  and  C_23
REMARK    8  A    between atoms: C_23  and  C_25
REMARK                            x       y       z     vdW  Elec       q    Type
REMARK                         _______ _______ _______ _____ _____    ______ ____
ROOT
ATOM      1  C   UNL     1     113.396 129.368 136.407  0.00  0.00    +0.000 A 
ATOM      2  C   UNL     1     113.673 128.730 135.962  0.00  0.00    +0.000 A 
ATOM      3  C   UNL     1     113.740 130.113 136.319  0.00  0.00    +0.000 A 
ATOM      4  C   UNL     1     114.294 128.838 135.429  0.00  0.00    +0.000 A 
ATOM      5  C   UNL     1     114.361 130.220 135.786  0.00  0.00    +0.000 A 
ATOM      6  C   UNL     1     114.637 129.583 135.342  0.00  0.00    +0.000 A 
ENDROOT
BRANCH   5   7
ATOM      7  O   UNL     1     114.704 130.964 135.698  0.00  0.00    +0.000 OA
ATOM      8  C   UNL     1     115.436 131.039 135.324  0.00  0.00    +0.000 C 
ENDBRANCH   5   7
BRANCH   2  10
ATOM      9  O   UNL     1     112.570 127.845 135.759  0.00  0.00    +0.000 OA
ATOM     10  C   UNL     1     113.329 127.986 136.051  0.00  0.00    +0.000 C 
BRANCH  10  11
ATOM     11  C   UNL     1     113.744 127.383 136.432  0.00  0.00    +0.000 C 
BRANCH  11  12
ATOM     12  C   UNL     1     113.463 126.608 136.402  0.00  0.00    +0.000 C 
BRANCH  12  13
ATOM     13  C   UNL     1     113.885 126.002 136.773  0.00  0.00    +0.000 A 
ATOM     14  C   UNL     1     114.330 125.474 136.322  0.00  0.00    +0.000 A 
ATOM     15  C   UNL     1     113.860 125.926 137.594  0.00  0.00    +0.000 A 
ATOM     16  C   UNL     1     114.752 124.869 136.694  0.00  0.00    +0.000 A 
ATOM     17  C   UNL     1     114.281 125.321 137.965  0.00  0.00    +0.000 A 
ATOM     18  C   UNL     1     114.727 124.793 137.515  0.00  0.00    +0.000 A 
ENDBRANCH  12  13
ENDBRANCH  11  12
ENDBRANCH  10  11
ENDBRANCH   2  10
BRANCH   1  19
ATOM     19  O   UNL     1     112.775 129.261 136.940  0.00  0.00    +0.000 OA
BRANCH  19  27
ATOM     20  O   UNL     1     113.394 129.609 138.179  0.00  0.00    +0.000 OA
ATOM     21  O   UNL     1     111.475 131.072 138.727  0.00  0.00    +0.000 OA
ATOM     22  O   UNL     1     111.495 130.236 137.306  0.00  0.00    +0.000 OA
ATOM     23  O   UNL     1     112.734 130.933 139.784  0.00  0.00    +0.000 OA
ATOM     24  C   UNL     1     112.115 130.584 138.544  0.00  0.00    +0.000 C 
ATOM     25  C   UNL     1     112.125 130.166 137.833  0.00  0.00    +0.000 C 
ATOM     26  C   UNL     1     112.745 130.514 139.073  0.00  0.00    +0.000 C 
ATOM     27  C   UNL     1     112.765 129.679 137.651  0.00  0.00    +0.000 C 
ATOM     28  C   UNL     1     113.385 130.027 138.890  0.00  0.00    +0.000 C 
BRANCH  28  31
ATOM     29  O   UNL     1     114.603 130.535 139.438  0.00  0.00    +0.000 OA
ATOM     30  O   UNL     1     114.056 129.309 139.927  0.00  0.00    +0.000 OA
ATOM     31  C   UNL     1     114.014 129.957 139.418  0.00  0.00    +0.000 C 
ENDBRANCH  28  31
ENDBRANCH  19  27
ENDBRANCH   1  19
TORSDOF 8
ENDMDL
MODEL 2
REMARK VINA RESULT:      -8.2     13.129     14.669
REMARK  Name = 131839157
REMARK  8 active torsions:
REMARK  status: ('A' for Active; 'I' for Inactive)
REMARK    1  A    between atoms: O_2  and  C_13
REMARK    2  A    between atoms: O_2  and  C_16
REMARK    3  A    between atoms: O_8  and  C_22
REMARK    4  A    between atoms: C_14  and  C_15
REMARK    5  A    between atoms: C_17  and  C_19
REMARK    6  A    between atoms: C_19  and  C_20
REMARK    7  A    between atoms: C_20  and  C_23
REMARK    8  A    between atoms: C_23  and  C_25
REMARK                            x       y       z     vdW  Elec       q    Type
REMARK                         _______ _______ _______ _____ _____    ______ ____
ROOT
ATOM      1  C   UNL     1     104.568 125.557 148.572  0.00  0.00    +0.000 A 
ATOM      2  C   UNL     1     103.752 125.470 148.483  0.00  0.00    +0.000 A 
ATOM      3  C   UNL     1     104.896 126.310 148.648  0.00  0.00    +0.000 A 
ATOM      4  C   UNL     1     103.265 126.135 148.470  0.00  0.00    +0.000 A 
ATOM      5  C   UNL     1     104.408 126.976 148.635  0.00  0.00    +0.000 A 
ATOM      6  C   UNL     1     103.594 126.888 148.547  0.00  0.00    +0.000 A 
ENDROOT
BRANCH   5   7
ATOM      7  O   UNL     1     104.737 127.728 148.711  0.00  0.00    +0.000 OA
ATOM      8  C   UNL     1     104.550 128.317 148.164  0.00  0.00    +0.000 C 
ENDBRANCH   5   7
BRANCH   2  10
ATOM      9  O   UNL     1     103.402 124.209 149.057  0.00  0.00    +0.000 OA
ATOM     10  C   UNL     1     103.424 124.717 148.407  0.00  0.00    +0.000 C 
BRANCH  10  11
ATOM     11  C   UNL     1     103.119 124.471 147.680  0.00  0.00    +0.000 C 
BRANCH  11  12
ATOM     12  C   UNL     1     102.640 123.801 147.640  0.00  0.00    +0.000 C 
BRANCH  12  13
ATOM     13  C   UNL     1     102.331 123.559 146.913  0.00  0.00    +0.000 A 
ATOM     14  C   UNL     1     101.556 123.756 146.710  0.00  0.00    +0.000 A 
ATOM     15  C   UNL     1     102.796 123.120 146.392  0.00  0.00    +0.000 A 
ATOM     16  C   UNL     1     101.247 123.513 145.983  0.00  0.00    +0.000 A 
ATOM     17  C   UNL     1     102.487 122.878 145.667  0.00  0.00    +0.000 A 
ATOM     18  C   UNL     1     101.712 123.075 145.462  0.00  0.00    +0.000 A 
ENDBRANCH  12  13
ENDBRANCH  11  12
ENDBRANCH  10  11
ENDBRANCH   2  10
BRANCH   1  19
ATOM     19  O   UNL     1     105.055 124.892 148.584  0.00  0.00    +0.000 OA
BRANCH  19  27
ATOM     20  O   UNL     1     105.945 125.140 147.495  0.00  0.00    +0.000 OA
ATOM     21  O   UNL     1     107.878 124.664 148.966  0.00  0.00    +0.000 OA
ATOM     22  O   UNL     1     106.344 124.574 149.565  0.00  0.00    +0.000 OA
ATOM     23  O   UNL     1     108.124 125.071 147.386  0.00  0.00    +0.000 OA
ATOM     24  C   UNL     1     107.234 124.823 148.476  0.00  0.00    +0.000 C 
ATOM     25  C   UNL     1     106.466 124.778 148.775  0.00  0.00    +0.000 C 
ATOM     26  C   UNL     1     107.357 125.026 147.685  0.00  0.00    +0.000 C 
ATOM     27  C   UNL     1     105.822 124.937 148.285  0.00  0.00    +0.000 C 
ATOM     28  C   UNL     1     106.713 125.185 147.195  0.00  0.00    +0.000 C 
BRANCH  28  31
ATOM     29  O   UNL     1     106.731 124.825 145.812  0.00  0.00    +0.000 OA
ATOM     30  O   UNL     1     107.064 126.157 146.209  0.00  0.00    +0.000 OA
ATOM     31  C   UNL     1     106.836 125.389 146.406  0.00  0.00    +0.000 C 
ENDBRANCH  28  31
ENDBRANCH  19  27
ENDBRANCH   1  19
TORSDOF 8
ENDMDL
MODEL 3
REMARK VINA RESULT:      -8.0     13.062     14.573
REMARK  Name = 131839157
REMARK  8 active torsions:
REMARK  status: ('A' for Active; 'I' for Inactive)
REMARK    1  A    between atoms: O_2  and  C_13
REMARK    2  A    between atoms: O_2  and  C_16
REMARK    3  A    between atoms: O_8  and  C_22
REMARK    4  A    between atoms: C_14  and  C_15
REMARK    5  A    between atoms: C_17  and  C_19
REMARK    6  A    between atoms: C_19  and  C_20
REMARK    7  A    between atoms: C_20  and  C_23
REMARK    8  A    between atoms: C_23  and  C_25
REMARK                            x       y       z     vdW  Elec       q    Type
REMARK                         _______ _______ _______ _____ _____    ______ ____
ROOT
ATOM      1  C   UNL     1     105.474 124.768 148.068  0.00  0.00    +0.000 A 
ATOM      2  C   UNL     1     105.032 124.845 148.762  0.00  0.00    +0.000 A 
ATOM      3  C   UNL     1     106.281 124.599 148.111  0.00  0.00    +0.000 A 
ATOM      4  C   UNL     1     105.397 124.754 149.496  0.00  0.00    +0.000 A 
ATOM      5  C   UNL     1     106.645 124.508 148.845  0.00  0.00    +0.000 A 
ATOM      6  C   UNL     1     106.204 124.585 149.537  0.00  0.00    +0.000 A 
ENDROOT
BRANCH   5   7
ATOM      7  O   UNL     1     107.451 124.339 148.887  0.00  0.00    +0.000 OA
ATOM      8  C   UNL     1     107.851 124.411 149.605  0.00  0.00    +0.000 C 
ENDBRANCH   5   7
BRANCH   2  10
ATOM      9  O   UNL     1     103.971 125.794 148.634  0.00  0.00    +0.000 OA
ATOM     10  C   UNL     1     104.226 125.014 148.719  0.00  0.00    +0.000 C 
BRANCH  10  11
ATOM     11  C   UNL     1     103.674 124.402 148.762  0.00  0.00    +0.000 C 
BRANCH  11  12
ATOM     12  C   UNL     1     102.878 124.573 148.894  0.00  0.00    +0.000 C 
BRANCH  12  13
ATOM     13  C   UNL     1     102.321 123.964 148.902  0.00  0.00    +0.000 A 
ATOM     14  C   UNL     1     101.924 123.760 148.208  0.00  0.00    +0.000 A 
ATOM     15  C   UNL     1     102.161 123.559 149.603  0.00  0.00    +0.000 A 
ATOM     16  C   UNL     1     101.367 123.151 148.216  0.00  0.00    +0.000 A 
ATOM     17  C   UNL     1     101.605 122.951 149.610  0.00  0.00    +0.000 A 
ATOM     18  C   UNL     1     101.207 122.747 148.917  0.00  0.00    +0.000 A 
ENDBRANCH  12  13
ENDBRANCH  11  12
ENDBRANCH  10  11
ENDBRANCH   2  10
BRANCH   1  19
ATOM     19  O   UNL     1     105.110 124.859 147.334  0.00  0.00    +0.000 OA
BRANCH  19  27
ATOM     20  O   UNL     1     105.884 125.904 146.744  0.00  0.00    +0.000 OA
ATOM     21  O   UNL     1     106.129 124.559 144.681  0.00  0.00    +0.000 OA
ATOM     22  O   UNL     1     105.273 123.962 145.959  0.00  0.00    +0.000 OA
ATOM     23  O   UNL     1     106.822 126.053 144.779  0.00  0.00    +0.000 OA
ATOM     24  C   UNL     1     106.047 125.007 145.369  0.00  0.00    +0.000 C 
ATOM     25  C   UNL     1     105.619 124.709 146.008  0.00  0.00    +0.000 C 
ATOM     26  C   UNL     1     106.394 125.755 145.418  0.00  0.00    +0.000 C 
ATOM     27  C   UNL     1     105.538 125.158 146.696  0.00  0.00    +0.000 C 
ATOM     28  C   UNL     1     106.312 126.204 146.106  0.00  0.00    +0.000 C 
BRANCH  28  31
ATOM     29  O   UNL     1     106.208 127.625 146.006  0.00  0.00    +0.000 OA
ATOM     30  O   UNL     1     107.457 127.022 146.351  0.00  0.00    +0.000 OA
ATOM     31  C   UNL     1     106.659 126.950 146.154  0.00  0.00    +0.000 C 
ENDBRANCH  28  31
ENDBRANCH  19  27
ENDBRANCH   1  19
TORSDOF 8
ENDMDL
MODEL 4
REMARK VINA RESULT:      -7.9      1.959      4.797
REMARK  Name = 131839157
REMARK  8 active torsions:
REMARK  status: ('A' for Active; 'I' for Inactive)
REMARK    1  A    between atoms: O_2  and  C_13
REMARK    2  A    between atoms: O_2  and  C_16
REMARK    3  A    between atoms: O_8  and  C_22
REMARK    4  A    between atoms: C_14  and  C_15
REMARK    5  A    between atoms: C_17  and  C_19
REMARK    6  A    between atoms: C_19  and  C_20
REMARK    7  A    between atoms: C_20  and  C_23
REMARK    8  A    between atoms: C_23  and  C_25
REMARK                            x       y       z     vdW  Elec       q    Type
REMARK                         _______ _______ _______ _____ _____    ______ ____
ROOT
ATOM      1  C   UNL     1     112.752 127.441 137.672  0.00  0.00    +0.000 A 
ATOM      2  C   UNL     1     112.897 128.254 137.692  0.00  0.00    +0.000 A 
ATOM      3  C   UNL     1     112.817 126.994 138.362  0.00  0.00    +0.000 A 
ATOM      4  C   UNL     1     113.107 128.618 138.402  0.00  0.00    +0.000 A 
ATOM      5  C   UNL     1     113.026 127.358 139.072  0.00  0.00    +0.000 A 
ATOM      6  C   UNL     1     113.171 128.170 139.092  0.00  0.00    +0.000 A 
ENDROOT
BRANCH   5   7
ATOM      7  O   UNL     1     113.091 126.911 139.762  0.00  0.00    +0.000 OA
ATOM      8  C   UNL     1     113.754 126.993 140.246  0.00  0.00    +0.000 C 
ENDBRANCH   5   7
BRANCH   2  10
ATOM      9  O   UNL     1     112.089 128.864 136.684  0.00  0.00    +0.000 OA
ATOM     10  C   UNL     1     112.833 128.701 137.002  0.00  0.00    +0.000 C 
BRANCH  10  11
ATOM     11  C   UNL     1     113.513 128.984 136.630  0.00  0.00    +0.000 C 
BRANCH  11  12
ATOM     12  C   UNL     1     113.451 129.562 136.044  0.00  0.00    +0.000 C 
BRANCH  12  13
ATOM     13  C   UNL     1     114.129 129.830 135.657  0.00  0.00    +0.000 A 
ATOM     14  C   UNL     1     114.416 129.423 135.000  0.00  0.00    +0.000 A 
ATOM     15  C   UNL     1     114.519 130.505 135.927  0.00  0.00    +0.000 A 
ATOM     16  C   UNL     1     115.094 129.691 134.612  0.00  0.00    +0.000 A 
ATOM     17  C   UNL     1     115.196 130.773 135.540  0.00  0.00    +0.000 A 
ATOM     18  C   UNL     1     115.484 130.366 134.882  0.00  0.00    +0.000 A 
ENDBRANCH  12  13
ENDBRANCH  11  12
ENDBRANCH  10  11
ENDBRANCH   2  10
BRANCH   1  19
ATOM     19  O   UNL     1     112.543 127.077 136.962  0.00  0.00    +0.000 OA
BRANCH  19  27
ATOM     20  O   UNL     1     113.560 126.082 136.840  0.00  0.00    +0.000 OA
ATOM     21  O   UNL     1     111.834 124.378 136.346  0.00  0.00    +0.000 OA
ATOM     22  O   UNL     1     111.392 125.941 136.633  0.00  0.00    +0.000 OA
ATOM     23  O   UNL     1     113.427 123.951 136.388  0.00  0.00    +0.000 OA
ATOM     24  C   UNL     1     112.409 124.946 136.510  0.00  0.00    +0.000 C 
ATOM     25  C   UNL     1     112.189 125.728 136.654  0.00  0.00    +0.000 C 
ATOM     26  C   UNL     1     113.207 124.732 136.532  0.00  0.00    +0.000 C 
ATOM     27  C   UNL     1     112.764 126.296 136.819  0.00  0.00    +0.000 C 
ATOM     28  C   UNL     1     113.782 125.300 136.697  0.00  0.00    +0.000 C 
BRANCH  28  31
ATOM     29  O   UNL     1     115.065 125.241 136.070  0.00  0.00    +0.000 OA
ATOM     30  O   UNL     1     114.888 124.718 137.388  0.00  0.00    +0.000 OA
ATOM     31  C   UNL     1     114.578 125.087 136.718  0.00  0.00    +0.000 C 
ENDBRANCH  28  31
ENDBRANCH  19  27
ENDBRANCH   1  19
TORSDOF 8
ENDMDL
MODEL 5
REMARK VINA RESULT:      -7.9      3.951      4.903
REMARK  Name = 131839157
REMARK  8 active torsions:
REMARK  status: ('A' for Active; 'I' for Inactive)
REMARK    1  A    between atoms: O_2  and  C_13
REMARK    2  A    between atoms: O_2  and  C_16
REMARK    3  A    between atoms: O_8  and  C_22
REMARK    4  A    between atoms: C_14  and  C_15
REMARK    5  A    between atoms: C_17  and  C_19
REMARK    6  A    between atoms: C_19  and  C_20
REMARK    7  A    between atoms: C_20  and  C_23
REMARK    8  A    between atoms: C_23  and  C_25
REMARK                            x       y       z     vdW  Elec       q    Type
REMARK                         _______ _______ _______ _____ _____    ______ ____
ROOT
ATOM      1  C   UNL     1     110.643 126.048 138.246  0.00  0.00    +0.000 A 
ATOM      2  C   UNL     1     110.856 125.597 137.588  0.00  0.00    +0.000 A 
ATOM      3  C   UNL     1     110.057 126.625 138.176  0.00  0.00    +0.000 A 
ATOM      4  C   UNL     1     110.484 125.722 136.863  0.00  0.00    +0.000 A 
ATOM      5  C   UNL     1     109.685 126.751 137.451  0.00  0.00    +0.000 A 
ATOM      6  C   UNL     1     109.898 126.299 136.795  0.00  0.00    +0.000 A 
ENDROOT
BRANCH   5   7
ATOM      7  O   UNL     1     109.100 127.327 137.382  0.00  0.00    +0.000 OA
ATOM      8  C   UNL     1     109.155 127.902 136.793  0.00  0.00    +0.000 C 
ENDBRANCH   5   7
BRANCH   2  10
ATOM      9  O   UNL     1     111.259 124.281 137.977  0.00  0.00    +0.000 OA
ATOM     10  C   UNL     1     111.442 125.020 137.658  0.00  0.00    +0.000 C 
BRANCH  10  11
ATOM     11  C   UNL     1     112.212 125.182 137.407  0.00  0.00    +0.000 C 
BRANCH  11  12
ATOM     12  C   UNL     1     112.751 124.566 137.308  0.00  0.00    +0.000 C 
BRANCH  12  13
ATOM     13  C   UNL     1     113.530 124.731 137.091  0.00  0.00    +0.000 A 
ATOM     14  C   UNL     1     113.745 124.730 136.295  0.00  0.00    +0.000 A 
ATOM     15  C   UNL     1     114.093 124.896 137.671  0.00  0.00    +0.000 A 
ATOM     16  C   UNL     1     114.525 124.895 136.078  0.00  0.00    +0.000 A 
ATOM     17  C   UNL     1     114.871 125.061 137.455  0.00  0.00    +0.000 A 
ATOM     18  C   UNL     1     115.088 125.061 136.658  0.00  0.00    +0.000 A 
ENDBRANCH  12  13
ENDBRANCH  11  12
ENDBRANCH  10  11
ENDBRANCH   2  10
BRANCH   1  19
ATOM     19  O   UNL     1     111.015 125.923 138.971  0.00  0.00    +0.000 OA
BRANCH  19  27
ATOM     20  O   UNL     1     109.908 125.648 139.830  0.00  0.00    +0.000 OA
ATOM     21  O   UNL     1     110.771 127.291 141.468  0.00  0.00    +0.000 OA
ATOM     22  O   UNL     1     111.590 127.018 140.063  0.00  0.00    +0.000 OA
ATOM     23  O   UNL     1     109.375 126.469 141.782  0.00  0.00    +0.000 OA
ATOM     24  C   UNL     1     110.483 126.743 140.922  0.00  0.00    +0.000 C 
ATOM     25  C   UNL     1     110.893 126.606 140.219  0.00  0.00    +0.000 C 
ATOM     26  C   UNL     1     109.785 126.332 141.079  0.00  0.00    +0.000 C 
ATOM     27  C   UNL     1     110.605 126.059 139.673  0.00  0.00    +0.000 C 
ATOM     28  C   UNL     1     109.497 125.784 140.533  0.00  0.00    +0.000 C 
BRANCH  28  31
ATOM     29  O   UNL     1     108.071 125.706 140.492  0.00  0.00    +0.000 OA
ATOM     30  O   UNL     1     108.831 124.630 141.046  0.00  0.00    +0.000 OA
ATOM     31  C   UNL     1     108.800 125.373 140.690  0.00  0.00    +0.000 C 
ENDBRANCH  28  31
ENDBRANCH  19  27
ENDBRANCH   1  19
TORSDOF 8
ENDMDL
MODEL 6
REMARK VINA RESULT:      -7.9      1.604      2.265
REMARK  Name = 131839157
REMARK  8 active torsions:
REMARK  status: ('A' for Active; 'I' for Inactive)
REMARK    1  A    between atoms: O_2  and  C_13
REMARK    2  A    between atoms: O_2  and  C_16
REMARK    3  A    between atoms: O_8  and  C_22
REMARK    4  A    between atoms: C_14  and  C_15
REMARK    5  A    between atoms: C_17  and  C_19
REMARK    6  A    between atoms: C_19  and  C_20
REMARK    7  A    between atoms: C_20  and  C_23
REMARK    8  A    between atoms: C_23  and  C_25
REMARK                            x       y       z     vdW  Elec       q    Type
REMARK                         _______ _______ _______ _____ _____    ______ ____
ROOT
ATOM      1  C   UNL     1     112.877 128.627 136.019  0.00  0.00    +0.000 A 
ATOM      2  C   UNL     1     113.405 128.052 136.288  0.00  0.00    +0.000 A 
ATOM      3  C   UNL     1     113.123 129.182 135.460  0.00  0.00    +0.000 A 
ATOM      4  C   UNL     1     114.177 128.033 135.998  0.00  0.00    +0.000 A 
ATOM      5  C   UNL     1     113.895 129.163 135.170  0.00  0.00    +0.000 A 
ATOM      6  C   UNL     1     114.422 128.588 135.439  0.00  0.00    +0.000 A 
ENDROOT
BRANCH   5   7
ATOM      7  O   UNL     1     114.139 129.718 134.612  0.00  0.00    +0.000 OA
ATOM      8  C   UNL     1     114.868 130.095 134.697  0.00  0.00    +0.000 C 
ENDBRANCH   5   7
BRANCH   2  10
ATOM      9  O   UNL     1     113.116 127.705 137.644  0.00  0.00    +0.000 OA
ATOM     10  C   UNL     1     113.160 127.497 136.847  0.00  0.00    +0.000 C 
BRANCH  10  11
ATOM     11  C   UNL     1     112.958 126.733 136.608  0.00  0.00    +0.000 C 
BRANCH  11  12
ATOM     12  C   UNL     1     112.877 126.134 137.169  0.00  0.00    +0.000 C 
BRANCH  12  13
ATOM     13  C   UNL     1     112.678 125.369 136.929  0.00  0.00    +0.000 A 
ATOM     14  C   UNL     1     113.247 124.772 136.942  0.00  0.00    +0.000 A 
ATOM     15  C   UNL     1     111.910 125.202 136.677  0.00  0.00    +0.000 A 
ATOM     16  C   UNL     1     113.048 124.007 136.703  0.00  0.00    +0.000 A 
ATOM     17  C   UNL     1     111.712 124.438 136.439  0.00  0.00    +0.000 A 
ATOM     18  C   UNL     1     112.281 123.840 136.451  0.00  0.00    +0.000 A 
ENDBRANCH  12  13
ENDBRANCH  11  12
ENDBRANCH  10  11
ENDBRANCH   2  10
BRANCH   1  19
ATOM     19  O   UNL     1     112.105 128.646 136.309  0.00  0.00    +0.000 OA
BRANCH  19  27
ATOM     20  O   UNL     1     112.018 129.974 136.826  0.00  0.00    +0.000 OA
ATOM     21  O   UNL     1     109.877 130.300 135.629  0.00  0.00    +0.000 OA
ATOM     22  O   UNL     1     110.677 128.864 135.510  0.00  0.00    +0.000 OA
ATOM     23  O   UNL     1     110.503 131.521 136.546  0.00  0.00    +0.000 OA
ATOM     24  C   UNL     1     110.590 130.192 136.028  0.00  0.00    +0.000 C 
ATOM     25  C   UNL     1     110.991 129.473 135.969  0.00  0.00    +0.000 C 
ATOM     26  C   UNL     1     110.904 130.802 136.487  0.00  0.00    +0.000 C 
ATOM     27  C   UNL     1     111.705 129.364 136.368  0.00  0.00    +0.000 C 
ATOM     28  C   UNL     1     111.618 130.693 136.886  0.00  0.00    +0.000 C 
BRANCH  28  31
ATOM     29  O   UNL     1     112.357 131.913 136.986  0.00  0.00    +0.000 OA
ATOM     30  O   UNL     1     111.819 131.304 138.161  0.00  0.00    +0.000 OA
ATOM     31  C   UNL     1     111.931 131.303 137.344  0.00  0.00    +0.000 C 
ENDBRANCH  28  31
ENDBRANCH  19  27
ENDBRANCH   1  19
TORSDOF 8
ENDMDL
MODEL 7
REMARK VINA RESULT:      -7.8      2.193      4.343
REMARK  Name = 131839157
REMARK  8 active torsions:
REMARK  status: ('A' for Active; 'I' for Inactive)
REMARK    1  A    between atoms: O_2  and  C_13
REMARK    2  A    between atoms: O_2  and  C_16
REMARK    3  A    between atoms: O_8  and  C_22
REMARK    4  A    between atoms: C_14  and  C_15
REMARK    5  A    between atoms: C_17  and  C_19
REMARK    6  A    between atoms: C_19  and  C_20
REMARK    7  A    between atoms: C_20  and  C_23
REMARK    8  A    between atoms: C_23  and  C_25
REMARK                            x       y       z     vdW  Elec       q    Type
REMARK                         _______ _______ _______ _____ _____    ______ ____
ROOT
ATOM      1  C   UNL     1     113.481 126.772 137.421  0.00  0.00    +0.000 A 
ATOM      2  C   UNL     1     113.650 126.945 136.631  0.00  0.00    +0.000 A 
ATOM      3  C   UNL     1     113.748 126.067 137.755  0.00  0.00    +0.000 A 
ATOM      4  C   UNL     1     114.087 126.412 136.177  0.00  0.00    +0.000 A 
ATOM      5  C   UNL     1     114.185 125.535 137.301  0.00  0.00    +0.000 A 
ATOM      6  C   UNL     1     114.354 125.707 136.513  0.00  0.00    +0.000 A 
ENDROOT
BRANCH   5   7
ATOM      7  O   UNL     1     114.452 124.830 137.636  0.00  0.00    +0.000 OA
ATOM      8  C   UNL     1     114.257 124.108 137.287  0.00  0.00    +0.000 C 
ENDBRANCH   5   7
BRANCH   2  10
ATOM      9  O   UNL     1     112.594 127.724 136.065  0.00  0.00    +0.000 OA
ATOM     10  C   UNL     1     113.383 127.650 136.297  0.00  0.00    +0.000 C 
BRANCH  10  11
ATOM     11  C   UNL     1     113.905 128.281 136.194  0.00  0.00    +0.000 C 
BRANCH  11  12
ATOM     12  C   UNL     1     113.699 128.909 135.701  0.00  0.00    +0.000 C 
BRANCH  12  13
ATOM     13  C   UNL     1     114.235 129.523 135.569  0.00  0.00    +0.000 A 
ATOM     14  C   UNL     1     114.660 129.553 134.862  0.00  0.00    +0.000 A 
ATOM     15  C   UNL     1     114.347 130.105 136.143  0.00  0.00    +0.000 A 
ATOM     16  C   UNL     1     115.197 130.166 134.730  0.00  0.00    +0.000 A 
ATOM     17  C   UNL     1     114.883 130.717 136.011  0.00  0.00    +0.000 A 
ATOM     18  C   UNL     1     115.308 130.748 135.304  0.00  0.00    +0.000 A 
ENDBRANCH  12  13
ENDBRANCH  11  12
ENDBRANCH  10  11
ENDBRANCH   2  10
BRANCH   1  19
ATOM     19  O   UNL     1     113.044 127.305 137.875  0.00  0.00    +0.000 OA
BRANCH  19  27
ATOM     20  O   UNL     1     111.929 126.520 138.296  0.00  0.00    +0.000 OA
ATOM     21  O   UNL     1     112.324 127.216 140.638  0.00  0.00    +0.000 OA
ATOM     22  O   UNL     1     113.308 127.769 139.436  0.00  0.00    +0.000 OA
ATOM     23  O   UNL     1     111.076 126.198 140.280  0.00  0.00    +0.000 OA
ATOM     24  C   UNL     1     112.192 126.984 139.858  0.00  0.00    +0.000 C 
ATOM     25  C   UNL     1     112.684 127.260 139.256  0.00  0.00    +0.000 C 
ATOM     26  C   UNL     1     111.568 126.474 139.678  0.00  0.00    +0.000 C 
ATOM     27  C   UNL     1     112.552 127.028 138.475  0.00  0.00    +0.000 C 
ATOM     28  C   UNL     1     111.436 126.242 138.897  0.00  0.00    +0.000 C 
BRANCH  28  31
ATOM     29  O   UNL     1     110.905 124.919 138.808  0.00  0.00    +0.000 OA
ATOM     30  O   UNL     1     110.095 126.040 138.449  0.00  0.00    +0.000 OA
ATOM     31  C   UNL     1     110.812 125.734 138.718  0.00  0.00    +0.000 C 
ENDBRANCH  28  31
ENDBRANCH  19  27
ENDBRANCH   1  19
TORSDOF 8
ENDMDL
MODEL 8
REMARK VINA RESULT:      -7.8      2.714      5.051
REMARK  Name = 131839157
REMARK  8 active torsions:
REMARK  status: ('A' for Active; 'I' for Inactive)
REMARK    1  A    between atoms: O_2  and  C_13
REMARK    2  A    between atoms: O_2  and  C_16
REMARK    3  A    between atoms: O_8  and  C_22
REMARK    4  A    between atoms: C_14  and  C_15
REMARK    5  A    between atoms: C_17  and  C_19
REMARK    6  A    between atoms: C_19  and  C_20
REMARK    7  A    between atoms: C_20  and  C_23
REMARK    8  A    between atoms: C_23  and  C_25
REMARK                            x       y       z     vdW  Elec       q    Type
REMARK                         _______ _______ _______ _____ _____    ______ ____
ROOT
ATOM      1  C   UNL     1     112.081 125.858 137.096  0.00  0.00    +0.000 A 
ATOM      2  C   UNL     1     112.872 126.006 136.910  0.00  0.00    +0.000 A 
ATOM      3  C   UNL     1     111.761 125.109 136.969  0.00  0.00    +0.000 A 
ATOM      4  C   UNL     1     113.341 125.404 136.597  0.00  0.00    +0.000 A 
ATOM      5  C   UNL     1     112.230 124.507 136.656  0.00  0.00    +0.000 A 
ATOM      6  C   UNL     1     113.020 124.654 136.471  0.00  0.00    +0.000 A 
ENDROOT
BRANCH   5   7
ATOM      7  O   UNL     1     111.910 123.758 136.529  0.00  0.00    +0.000 OA
ATOM      8  C   UNL     1     112.044 123.154 137.075  0.00  0.00    +0.000 C 
ENDBRANCH   5   7
BRANCH   2  10
ATOM      9  O   UNL     1     113.355 127.010 137.805  0.00  0.00    +0.000 OA
ATOM     10  C   UNL     1     113.191 126.755 137.037  0.00  0.00    +0.000 C 
BRANCH  10  11
ATOM     11  C   UNL     1     113.348 127.251 136.395  0.00  0.00    +0.000 C 
BRANCH  11  12
ATOM     12  C   UNL     1     113.701 127.986 136.520  0.00  0.00    +0.000 C 
BRANCH  12  13
ATOM     13  C   UNL     1     113.820 128.498 135.883  0.00  0.00    +0.000 A 
ATOM     14  C   UNL     1     113.195 128.958 135.602  0.00  0.00    +0.000 A 
ATOM     15  C   UNL     1     114.564 128.551 135.529  0.00  0.00    +0.000 A 
ATOM     16  C   UNL     1     113.314 129.470 134.966  0.00  0.00    +0.000 A 
ATOM     17  C   UNL     1     114.682 129.063 134.894  0.00  0.00    +0.000 A 
ATOM     18  C   UNL     1     114.058 129.523 134.612  0.00  0.00    +0.000 A 
ENDBRANCH  12  13
ENDBRANCH  11  12
ENDBRANCH  10  11
ENDBRANCH   2  10
BRANCH   1  19
ATOM     19  O   UNL     1     111.611 126.460 137.408  0.00  0.00    +0.000 OA
BRANCH  19  27
ATOM     20  O   UNL     1     110.622 126.597 136.388  0.00  0.00    +0.000 OA
ATOM     21  O   UNL     1     108.843 126.570 138.109  0.00  0.00    +0.000 OA
ATOM     22  O   UNL     1     110.425 126.442 138.555  0.00  0.00    +0.000 OA
ATOM     23  O   UNL     1     108.446 126.716 136.514  0.00  0.00    +0.000 OA
ATOM     24  C   UNL     1     109.436 126.579 137.535  0.00  0.00    +0.000 C 
ATOM     25  C   UNL     1     110.227 126.515 137.758  0.00  0.00    +0.000 C 
ATOM     26  C   UNL     1     109.237 126.652 136.737  0.00  0.00    +0.000 C 
ATOM     27  C   UNL     1     110.820 126.524 137.184  0.00  0.00    +0.000 C 
ATOM     28  C   UNL     1     109.830 126.661 136.163  0.00  0.00    +0.000 C 
BRANCH  28  31
ATOM     29  O   UNL     1     109.675 127.470 134.995  0.00  0.00    +0.000 OA
ATOM     30  O   UNL     1     109.389 126.071 134.940  0.00  0.00    +0.000 OA
ATOM     31  C   UNL     1     109.632 126.734 135.367  0.00  0.00    +0.000 C 
ENDBRANCH  28  31
ENDBRANCH  19  27
ENDBRANCH   1  19
TORSDOF 8
ENDMDL
MODEL 9
REMARK VINA RESULT:      -7.8     11.974     13.778
REMARK  Name = 131839157
REMARK  8 active torsions:
REMARK  status: ('A' for Active; 'I' for Inactive)
REMARK    1  A    between atoms: O_2  and  C_13
REMARK    2  A    between atoms: O_2  and  C_16
REMARK    3  A    between atoms: O_8  and  C_22
REMARK    4  A    between atoms: C_14  and  C_15
REMARK    5  A    between atoms: C_17  and  C_19
REMARK    6  A    between atoms: C_19  and  C_20
REMARK    7  A    between atoms: C_20  and  C_23
REMARK    8  A    between atoms: C_23  and  C_25
REMARK                            x       y       z     vdW  Elec       q    Type
REMARK                         _______ _______ _______ _____ _____    ______ ____
ROOT
ATOM      1  C   UNL     1     106.238 125.030 147.301  0.00  0.00    +0.000 A 
ATOM      2  C   UNL     1     106.884 125.534 147.201  0.00  0.00    +0.000 A 
ATOM      3  C   UNL     1     106.198 124.538 147.962  0.00  0.00    +0.000 A 
ATOM      4  C   UNL     1     107.490 125.545 147.761  0.00  0.00    +0.000 A 
ATOM      5  C   UNL     1     106.804 124.549 148.522  0.00  0.00    +0.000 A 
ATOM      6  C   UNL     1     107.449 125.052 148.421  0.00  0.00    +0.000 A 
ENDROOT
BRANCH   5   7
ATOM      7  O   UNL     1     106.763 124.057 149.183  0.00  0.00    +0.000 OA
ATOM      8  C   UNL     1     107.447 123.886 149.612  0.00  0.00    +0.000 C 
ENDBRANCH   5   7
BRANCH   2  10
ATOM      9  O   UNL     1     107.083 125.706 145.796  0.00  0.00    +0.000 OA
ATOM     10  C   UNL     1     106.924 126.026 146.540  0.00  0.00    +0.000 C 
BRANCH  10  11
ATOM     11  C   UNL     1     106.804 126.838 146.623  0.00  0.00    +0.000 C 
BRANCH  11  12
ATOM     12  C   UNL     1     106.934 127.342 145.983  0.00  0.00    +0.000 C 
BRANCH  12  13
ATOM     13  C   UNL     1     106.872 128.159 146.081  0.00  0.00    +0.000 A 
ATOM     14  C   UNL     1     107.516 128.645 145.911  0.00  0.00    +0.000 A 
ATOM     15  C   UNL     1     106.165 128.489 146.351  0.00  0.00    +0.000 A 
ATOM     16  C   UNL     1     107.454 129.462 146.009  0.00  0.00    +0.000 A 
ATOM     17  C   UNL     1     106.103 129.305 146.449  0.00  0.00    +0.000 A 
ATOM     18  C   UNL     1     106.747 129.792 146.279  0.00  0.00    +0.000 A 
ENDBRANCH  12  13
ENDBRANCH  11  12
ENDBRANCH  10  11
ENDBRANCH   2  10
BRANCH   1  19
ATOM     19  O   UNL     1     105.632 125.019 146.741  0.00  0.00    +0.000 OA
BRANCH  19  27
ATOM     20  O   UNL     1     104.495 125.340 147.543  0.00  0.00    +0.000 OA
ATOM     21  O   UNL     1     103.256 123.445 146.543  0.00  0.00    +0.000 OA
ATOM     22  O   UNL     1     104.806 123.756 146.075  0.00  0.00    +0.000 OA
ATOM     23  O   UNL     1     102.530 124.398 147.678  0.00  0.00    +0.000 OA
ATOM     24  C   UNL     1     103.669 124.077 146.876  0.00  0.00    +0.000 C 
ATOM     25  C   UNL     1     104.444 124.232 146.642  0.00  0.00    +0.000 C 
ATOM     26  C   UNL     1     103.306 124.554 147.444  0.00  0.00    +0.000 C 
ATOM     27  C   UNL     1     104.857 124.864 146.975  0.00  0.00    +0.000 C 
ATOM     28  C   UNL     1     103.719 125.185 147.777  0.00  0.00    +0.000 C 
BRANCH  28  31
ATOM     29  O   UNL     1     103.342 125.425 149.135  0.00  0.00    +0.000 OA
ATOM     30  O   UNL     1     103.007 126.375 148.122  0.00  0.00    +0.000 OA
ATOM     31  C   UNL     1     103.356 125.662 148.344  0.00  0.00    +0.000 C 
ENDBRANCH  28  31
ENDBRANCH  19  27
ENDBRANCH   1  19
TORSDOF 8
ENDMDL
MODEL 10
REMARK VINA RESULT:      -7.7      3.091      4.556
REMARK  Name = 131839157
REMARK  8 active torsions:
REMARK  status: ('A' for Active; 'I' for Inactive)
REMARK    1  A    between atoms: O_2  and  C_13
REMARK    2  A    between atoms: O_2  and  C_16
REMARK    3  A    between atoms: O_8  and  C_22
REMARK    4  A    between atoms: C_14  and  C_15
REMARK    5  A    between atoms: C_17  and  C_19
REMARK    6  A    between atoms: C_19  and  C_20
REMARK    7  A    between atoms: C_20  and  C_23
REMARK    8  A    between atoms: C_23  and  C_25
REMARK                            x       y       z     vdW  Elec       q    Type
REMARK                         _______ _______ _______ _____ _____    ______ ____
ROOT
ATOM      1  C   UNL     1     110.017 126.354 137.535  0.00  0.00    +0.000 A 
ATOM      2  C   UNL     1     110.576 125.773 137.710  0.00  0.00    +0.000 A 
ATOM      3  C   UNL     1     109.553 126.675 138.137  0.00  0.00    +0.000 A 
ATOM      4  C   UNL     1     110.671 125.513 138.488  0.00  0.00    +0.000 A 
ATOM      5  C   UNL     1     109.647 126.415 138.914  0.00  0.00    +0.000 A 
ATOM      6  C   UNL     1     110.206 125.834 139.089  0.00  0.00    +0.000 A 
ENDROOT
BRANCH   5   7
ATOM      7  O   UNL     1     109.183 126.735 139.515  0.00  0.00    +0.000 OA
ATOM      8  C   UNL     1     109.537 127.007 140.209  0.00  0.00    +0.000 C 
ENDBRANCH   5   7
BRANCH   2  10
ATOM      9  O   UNL     1     110.685 125.041 136.488  0.00  0.00    +0.000 OA
ATOM     10  C   UNL     1     111.040 125.453 137.108  0.00  0.00    +0.000 C 
BRANCH  10  11
ATOM     11  C   UNL     1     111.861 125.545 137.127  0.00  0.00    +0.000 C 
BRANCH  11  12
ATOM     12  C   UNL     1     112.337 125.088 136.633  0.00  0.00    +0.000 C 
BRANCH  12  13
ATOM     13  C   UNL     1     113.159 125.114 136.713  0.00  0.00    +0.000 A 
ATOM     14  C   UNL     1     113.575 125.782 136.467  0.00  0.00    +0.000 A 
ATOM     15  C   UNL     1     113.563 124.473 137.039  0.00  0.00    +0.000 A 
ATOM     16  C   UNL     1     114.397 125.809 136.547  0.00  0.00    +0.000 A 
ATOM     17  C   UNL     1     114.383 124.500 137.119  0.00  0.00    +0.000 A 
ATOM     18  C   UNL     1     114.800 125.168 136.873  0.00  0.00    +0.000 A 
ENDBRANCH  12  13
ENDBRANCH  11  12
ENDBRANCH  10  11
ENDBRANCH   2  10
BRANCH   1  19
ATOM     19  O   UNL     1     109.922 126.614 136.757  0.00  0.00    +0.000 OA
BRANCH  19  27
ATOM     20  O   UNL     1     110.263 128.000 136.818  0.00  0.00    +0.000 OA
ATOM     21  O   UNL     1     108.116 128.576 135.730  0.00  0.00    +0.000 OA
ATOM     22  O   UNL     1     108.491 126.998 136.032  0.00  0.00    +0.000 OA
ATOM     23  O   UNL     1     109.173 129.770 136.153  0.00  0.00    +0.000 OA
ATOM     24  C   UNL     1     108.832 128.384 136.092  0.00  0.00    +0.000 C 
ATOM     25  C   UNL     1     109.020 127.595 136.244  0.00  0.00    +0.000 C 
ATOM     26  C   UNL     1     109.361 128.981 136.305  0.00  0.00    +0.000 C 
ATOM     27  C   UNL     1     109.735 127.403 136.607  0.00  0.00    +0.000 C 
ATOM     28  C   UNL     1     110.076 128.789 136.667  0.00  0.00    +0.000 C 
BRANCH  28  31
ATOM     29  O   UNL     1     110.512 129.785 137.596  0.00  0.00    +0.000 OA
ATOM     30  O   UNL     1     111.226 129.585 136.374  0.00  0.00    +0.000 OA
ATOM     31  C   UNL     1     110.604 129.386 136.879  0.00  0.00    +0.000 C 
ENDBRANCH  28  31
ENDBRANCH  19  27
ENDBRANCH   1  19
TORSDOF 8
ENDMDL
