MODEL 1
REMARK VINA RESULT:      -8.8      0.000      0.000
REMARK  Name = null
REMARK  4 active torsions:
REMARK  status: ('A' for Active; 'I' for Inactive)
REMARK    1  A    between atoms: O_2  and  C_3
REMARK    2  A    between atoms: C_6  and  C_9
REMARK    3  A    between atoms: N_12  and  C_13
REMARK    4  A    between atoms: C_16  and  O_19
REMARK                            x       y       z     vdW  Elec       q    Type
REMARK                         _______ _______ _______ _____ _____    ______ ____
ROOT
ATOM      1  C   UNL     1     112.558 126.730 136.490  0.00  0.00    +0.000 A 
ATOM      2  C   UNL     1     111.761 126.518 136.431  0.00  0.00    +0.000 A 
ATOM      3  C   UNL     1     111.539 125.727 136.503  0.00  0.00    +0.000 A 
ATOM      4  N   UNL     1     110.744 125.515 136.444  0.00  0.00    +0.000 NA
ATOM      5  C   UNL     1     112.111 125.146 136.633  0.00  0.00    +0.000 A 
ATOM      6  C   UNL     1     112.907 125.358 136.692  0.00  0.00    +0.000 A 
ATOM      7  O   UNL     1     113.130 126.149 136.620  0.00  0.00    +0.000 OA
ATOM      8  C   UNL     1     113.479 124.778 136.822  0.00  0.00    +0.000 A 
ATOM      9  C   UNL     1     113.256 123.988 136.893  0.00  0.00    +0.000 A 
ATOM     10  C   UNL     1     112.460 123.776 136.834  0.00  0.00    +0.000 A 
ATOM     11  C   UNL     1     111.888 124.356 136.704  0.00  0.00    +0.000 A 
ATOM     12  O   UNL     1     112.238 122.985 136.905  0.00  0.00    +0.000 OA
ENDROOT
BRANCH   1  16
ATOM     13  C   UNL     1     113.226 129.103 136.277  0.00  0.00    +0.000 A 
ATOM     14  C   UNL     1     113.067 128.784 137.022  0.00  0.00    +0.000 A 
ATOM     15  C   UNL     1     112.845 127.993 137.093  0.00  0.00    +0.000 A 
ATOM     16  C   UNL     1     112.780 127.520 136.419  0.00  0.00    +0.000 A 
ATOM     17  C   UNL     1     112.938 127.839 135.676  0.00  0.00    +0.000 A 
ATOM     18  C   UNL     1     113.161 128.630 135.604  0.00  0.00    +0.000 A 
BRANCH  13  20
ATOM     19  C   UNL     1     114.249 130.098 136.201  0.00  0.00    +0.000 C 
ATOM     20  O   UNL     1     113.449 129.894 136.207  0.00  0.00    +0.000 OA
ENDBRANCH  13  20
ENDBRANCH   1  16
BRANCH   4  21
ATOM     21  C   UNL     1     110.171 126.096 136.314  0.00  0.00    +0.000 A 
ATOM     22  C   UNL     1     109.816 126.475 136.953  0.00  0.00    +0.000 A 
ATOM     23  C   UNL     1     109.244 127.055 136.824  0.00  0.00    +0.000 A 
ATOM     24  C   UNL     1     109.027 127.254 136.053  0.00  0.00    +0.000 A 
ATOM     25  C   UNL     1     109.382 126.874 135.414  0.00  0.00    +0.000 A 
ATOM     26  C   UNL     1     109.954 126.295 135.543  0.00  0.00    +0.000 A 
BRANCH  24  27
ATOM     27  O   UNL     1     108.454 127.834 135.923  0.00  0.00    +0.000 OA
ATOM     28  C   UNL     1     108.680 128.619 135.809  0.00  0.00    +0.000 C 
ENDBRANCH  24  27
ENDBRANCH   4  21
TORSDOF 4
ENDMDL
MODEL 2
REMARK VINA RESULT:      -8.7     10.785     12.057
REMARK  Name = null
REMARK  4 active torsions:
REMARK  status: ('A' for Active; 'I' for Inactive)
REMARK    1  A    between atoms: O_2  and  C_3
REMARK    2  A    between atoms: C_6  and  C_9
REMARK    3  A    between atoms: N_12  and  C_13
REMARK    4  A    between atoms: C_16  and  O_19
REMARK                            x       y       z     vdW  Elec       q    Type
REMARK                         _______ _______ _______ _____ _____    ______ ____
ROOT
ATOM      1  C   UNL     1     106.209 125.563 146.004  0.00  0.00    +0.000 A 
ATOM      2  C   UNL     1     105.609 125.187 146.429  0.00  0.00    +0.000 A 
ATOM      3  C   UNL     1     105.768 124.870 147.174  0.00  0.00    +0.000 A 
ATOM      4  N   UNL     1     105.169 124.494 147.598  0.00  0.00    +0.000 NA
ATOM      5  C   UNL     1     106.526 124.928 147.495  0.00  0.00    +0.000 A 
ATOM      6  C   UNL     1     107.126 125.304 147.070  0.00  0.00    +0.000 A 
ATOM      7  O   UNL     1     106.967 125.621 146.326  0.00  0.00    +0.000 OA
ATOM      8  C   UNL     1     107.884 125.362 147.391  0.00  0.00    +0.000 A 
ATOM      9  C   UNL     1     108.042 125.045 148.135  0.00  0.00    +0.000 A 
ATOM     10  C   UNL     1     107.442 124.669 148.560  0.00  0.00    +0.000 A 
ATOM     11  C   UNL     1     106.685 124.610 148.239  0.00  0.00    +0.000 A 
ATOM     12  O   UNL     1     107.602 124.351 149.305  0.00  0.00    +0.000 OA
ENDROOT
BRANCH   1  16
ATOM     13  C   UNL     1     105.733 126.516 143.771  0.00  0.00    +0.000 A 
ATOM     14  C   UNL     1     105.647 126.984 144.446  0.00  0.00    +0.000 A 
ATOM     15  C   UNL     1     105.806 126.665 145.190  0.00  0.00    +0.000 A 
ATOM     16  C   UNL     1     106.051 125.881 145.260  0.00  0.00    +0.000 A 
ATOM     17  C   UNL     1     106.137 125.414 144.586  0.00  0.00    +0.000 A 
ATOM     18  C   UNL     1     105.978 125.731 143.841  0.00  0.00    +0.000 A 
BRANCH  13  20
ATOM     19  C   UNL     1     105.980 127.507 142.771  0.00  0.00    +0.000 C 
ATOM     20  O   UNL     1     105.574 126.834 143.027  0.00  0.00    +0.000 OA
ENDBRANCH  13  20
ENDBRANCH   1  16
BRANCH   4  21
ATOM     21  C   UNL     1     104.410 124.435 147.278  0.00  0.00    +0.000 A 
ATOM     22  C   UNL     1     104.216 123.798 146.792  0.00  0.00    +0.000 A 
ATOM     23  C   UNL     1     103.459 123.739 146.471  0.00  0.00    +0.000 A 
ATOM     24  C   UNL     1     102.895 124.319 146.638  0.00  0.00    +0.000 A 
ATOM     25  C   UNL     1     103.089 124.955 147.124  0.00  0.00    +0.000 A 
ATOM     26  C   UNL     1     103.847 125.014 147.444  0.00  0.00    +0.000 A 
BRANCH  24  27
ATOM     27  O   UNL     1     102.137 124.260 146.317  0.00  0.00    +0.000 OA
ATOM     28  C   UNL     1     101.537 123.887 146.743  0.00  0.00    +0.000 C 
ENDBRANCH  24  27
ENDBRANCH   4  21
TORSDOF 4
ENDMDL
MODEL 3
REMARK VINA RESULT:      -8.7      1.137      3.544
REMARK  Name = null
REMARK  4 active torsions:
REMARK  status: ('A' for Active; 'I' for Inactive)
REMARK    1  A    between atoms: O_2  and  C_3
REMARK    2  A    between atoms: C_6  and  C_9
REMARK    3  A    between atoms: N_12  and  C_13
REMARK    4  A    between atoms: C_16  and  O_19
REMARK                            x       y       z     vdW  Elec       q    Type
REMARK                         _______ _______ _______ _____ _____    ______ ____
ROOT
ATOM      1  C   UNL     1     111.888 125.985 136.293  0.00  0.00    +0.000 A 
ATOM      2  C   UNL     1     112.404 126.620 136.405  0.00  0.00    +0.000 A 
ATOM      3  C   UNL     1     113.181 126.482 136.648  0.00  0.00    +0.000 A 
ATOM      4  N   UNL     1     113.696 127.117 136.759  0.00  0.00    +0.000 NA
ATOM      5  C   UNL     1     113.442 125.711 136.779  0.00  0.00    +0.000 A 
ATOM      6  C   UNL     1     112.926 125.076 136.667  0.00  0.00    +0.000 A 
ATOM      7  O   UNL     1     112.149 125.214 136.425  0.00  0.00    +0.000 OA
ATOM      8  C   UNL     1     113.187 124.305 136.799  0.00  0.00    +0.000 A 
ATOM      9  C   UNL     1     113.963 124.167 137.041  0.00  0.00    +0.000 A 
ATOM     10  C   UNL     1     114.479 124.802 137.153  0.00  0.00    +0.000 A 
ATOM     11  C   UNL     1     114.218 125.573 137.022  0.00  0.00    +0.000 A 
ATOM     12  O   UNL     1     115.255 124.664 137.395  0.00  0.00    +0.000 OA
ENDROOT
BRANCH   1  16
ATOM     13  C   UNL     1     109.559 126.397 135.565  0.00  0.00    +0.000 A 
ATOM     14  C   UNL     1     110.148 126.255 135.004  0.00  0.00    +0.000 A 
ATOM     15  C   UNL     1     110.924 126.117 135.248  0.00  0.00    +0.000 A 
ATOM     16  C   UNL     1     111.112 126.122 136.051  0.00  0.00    +0.000 A 
ATOM     17  C   UNL     1     110.524 126.265 136.611  0.00  0.00    +0.000 A 
ATOM     18  C   UNL     1     109.747 126.403 136.369  0.00  0.00    +0.000 A 
BRANCH  13  20
ATOM     19  C   UNL     1     108.369 127.187 135.613  0.00  0.00    +0.000 C 
ATOM     20  O   UNL     1     108.783 126.535 135.322  0.00  0.00    +0.000 OA
ENDBRANCH  13  20
ENDBRANCH   1  16
BRANCH   4  21
ATOM     21  C   UNL     1     113.435 127.889 136.628  0.00  0.00    +0.000 A 
ATOM     22  C   UNL     1     113.512 128.229 135.881  0.00  0.00    +0.000 A 
ATOM     23  C   UNL     1     113.251 129.000 135.750  0.00  0.00    +0.000 A 
ATOM     24  C   UNL     1     112.914 129.431 136.367  0.00  0.00    +0.000 A 
ATOM     25  C   UNL     1     112.837 129.091 137.114  0.00  0.00    +0.000 A 
ATOM     26  C   UNL     1     113.098 128.320 137.245  0.00  0.00    +0.000 A 
BRANCH  24  27
ATOM     27  O   UNL     1     112.653 130.203 136.236  0.00  0.00    +0.000 OA
ATOM     28  C   UNL     1     111.897 130.430 136.476  0.00  0.00    +0.000 C 
ENDBRANCH  24  27
ENDBRANCH   4  21
TORSDOF 4
ENDMDL
MODEL 4
REMARK VINA RESULT:      -8.6     11.484     13.061
REMARK  Name = null
REMARK  4 active torsions:
REMARK  status: ('A' for Active; 'I' for Inactive)
REMARK    1  A    between atoms: O_2  and  C_3
REMARK    2  A    between atoms: C_6  and  C_9
REMARK    3  A    between atoms: N_12  and  C_13
REMARK    4  A    between atoms: C_16  and  O_19
REMARK                            x       y       z     vdW  Elec       q    Type
REMARK                         _______ _______ _______ _____ _____    ______ ____
ROOT
ATOM      1  C   UNL     1     104.967 124.852 147.828  0.00  0.00    +0.000 A 
ATOM      2  C   UNL     1     105.452 125.118 147.215  0.00  0.00    +0.000 A 
ATOM      3  C   UNL     1     106.272 125.119 147.309  0.00  0.00    +0.000 A 
ATOM      4  N   UNL     1     106.757 125.384 146.697  0.00  0.00    +0.000 NA
ATOM      5  C   UNL     1     106.608 124.854 148.015  0.00  0.00    +0.000 A 
ATOM      6  C   UNL     1     106.122 124.588 148.628  0.00  0.00    +0.000 A 
ATOM      7  O   UNL     1     105.302 124.587 148.534  0.00  0.00    +0.000 OA
ATOM      8  C   UNL     1     106.457 124.323 149.334  0.00  0.00    +0.000 A 
ATOM      9  C   UNL     1     107.276 124.324 149.428  0.00  0.00    +0.000 A 
ATOM     10  C   UNL     1     107.761 124.590 148.815  0.00  0.00    +0.000 A 
ATOM     11  C   UNL     1     107.427 124.855 148.109  0.00  0.00    +0.000 A 
ATOM     12  O   UNL     1     108.581 124.591 148.909  0.00  0.00    +0.000 OA
ENDROOT
BRANCH   1  16
ATOM     13  C   UNL     1     102.509 124.849 147.546  0.00  0.00    +0.000 A 
ATOM     14  C   UNL     1     102.883 125.493 147.902  0.00  0.00    +0.000 A 
ATOM     15  C   UNL     1     103.702 125.493 147.996  0.00  0.00    +0.000 A 
ATOM     16  C   UNL     1     104.148 124.851 147.734  0.00  0.00    +0.000 A 
ATOM     17  C   UNL     1     103.774 124.208 147.378  0.00  0.00    +0.000 A 
ATOM     18  C   UNL     1     102.955 124.206 147.284  0.00  0.00    +0.000 A 
BRANCH  13  20
ATOM     19  C   UNL     1     101.326 124.262 146.999  0.00  0.00    +0.000 C 
ATOM     20  O   UNL     1     101.689 124.849 147.452  0.00  0.00    +0.000 OA
ENDBRANCH  13  20
ENDBRANCH   1  16
BRANCH   4  21
ATOM     21  C   UNL     1     106.422 125.649 145.990  0.00  0.00    +0.000 A 
ATOM     22  C   UNL     1     106.250 126.449 145.890  0.00  0.00    +0.000 A 
ATOM     23  C   UNL     1     105.916 126.714 145.184  0.00  0.00    +0.000 A 
ATOM     24  C   UNL     1     105.754 126.178 144.579  0.00  0.00    +0.000 A 
ATOM     25  C   UNL     1     105.926 125.378 144.679  0.00  0.00    +0.000 A 
ATOM     26  C   UNL     1     106.260 125.113 145.385  0.00  0.00    +0.000 A 
BRANCH  24  27
ATOM     27  O   UNL     1     105.419 126.443 143.872  0.00  0.00    +0.000 OA
ATOM     28  C   UNL     1     105.888 126.522 143.198  0.00  0.00    +0.000 C 
ENDBRANCH  24  27
ENDBRANCH   4  21
TORSDOF 4
ENDMDL
MODEL 5
REMARK VINA RESULT:      -8.4      1.031      3.472
REMARK  Name = null
REMARK  4 active torsions:
REMARK  status: ('A' for Active; 'I' for Inactive)
REMARK    1  A    between atoms: O_2  and  C_3
REMARK    2  A    between atoms: C_6  and  C_9
REMARK    3  A    between atoms: N_12  and  C_13
REMARK    4  A    between atoms: C_16  and  O_19
REMARK                            x       y       z     vdW  Elec       q    Type
REMARK                         _______ _______ _______ _____ _____    ______ ____
ROOT
ATOM      1  C   UNL     1     111.043 126.720 136.121  0.00  0.00    +0.000 A 
ATOM      2  C   UNL     1     111.793 127.017 136.299  0.00  0.00    +0.000 A 
ATOM      3  C   UNL     1     112.415 126.498 136.454  0.00  0.00    +0.000 A 
ATOM      4  N   UNL     1     113.164 126.794 136.632  0.00  0.00    +0.000 NA
ATOM      5  C   UNL     1     112.289 125.683 136.433  0.00  0.00    +0.000 A 
ATOM      6  C   UNL     1     111.539 125.386 136.255  0.00  0.00    +0.000 A 
ATOM      7  O   UNL     1     110.917 125.905 136.099  0.00  0.00    +0.000 OA
ATOM      8  C   UNL     1     111.412 124.572 136.233  0.00  0.00    +0.000 A 
ATOM      9  C   UNL     1     112.034 124.053 136.389  0.00  0.00    +0.000 A 
ATOM     10  C   UNL     1     112.784 124.350 136.567  0.00  0.00    +0.000 A 
ATOM     11  C   UNL     1     112.911 125.164 136.588  0.00  0.00    +0.000 A 
ATOM     12  O   UNL     1     113.406 123.831 136.722  0.00  0.00    +0.000 OA
ENDROOT
BRANCH   1  16
ATOM     13  C   UNL     1     109.176 128.276 135.653  0.00  0.00    +0.000 A 
ATOM     14  C   UNL     1     109.667 128.024 135.039  0.00  0.00    +0.000 A 
ATOM     15  C   UNL     1     110.289 127.506 135.195  0.00  0.00    +0.000 A 
ATOM     16  C   UNL     1     110.421 127.239 135.965  0.00  0.00    +0.000 A 
ATOM     17  C   UNL     1     109.930 127.490 136.578  0.00  0.00    +0.000 A 
ATOM     18  C   UNL     1     109.308 128.009 136.422  0.00  0.00    +0.000 A 
BRANCH  13  20
ATOM     19  C   UNL     1     108.557 129.553 135.824  0.00  0.00    +0.000 C 
ATOM     20  O   UNL     1     108.554 128.795 135.496  0.00  0.00    +0.000 OA
ENDBRANCH  13  20
ENDBRANCH   1  16
BRANCH   4  21
ATOM     21  C   UNL     1     113.291 127.610 136.654  0.00  0.00    +0.000 A 
ATOM     22  C   UNL     1     113.544 128.006 135.977  0.00  0.00    +0.000 A 
ATOM     23  C   UNL     1     113.671 128.820 135.999  0.00  0.00    +0.000 A 
ATOM     24  C   UNL     1     113.544 129.238 136.698  0.00  0.00    +0.000 A 
ATOM     25  C   UNL     1     113.291 128.842 137.375  0.00  0.00    +0.000 A 
ATOM     26  C   UNL     1     113.164 128.028 137.354  0.00  0.00    +0.000 A 
BRANCH  24  27
ATOM     27  O   UNL     1     113.671 130.054 136.720  0.00  0.00    +0.000 OA
ATOM     28  C   UNL     1     113.029 130.572 136.724  0.00  0.00    +0.000 C 
ENDBRANCH  24  27
ENDBRANCH   4  21
TORSDOF 4
ENDMDL
MODEL 6
REMARK VINA RESULT:      -8.3      2.182      4.430
REMARK  Name = null
REMARK  4 active torsions:
REMARK  status: ('A' for Active; 'I' for Inactive)
REMARK    1  A    between atoms: O_2  and  C_3
REMARK    2  A    between atoms: C_6  and  C_9
REMARK    3  A    between atoms: N_12  and  C_13
REMARK    4  A    between atoms: C_16  and  O_19
REMARK                            x       y       z     vdW  Elec       q    Type
REMARK                         _______ _______ _______ _____ _____    ______ ____
ROOT
ATOM      1  C   UNL     1     112.780 127.364 138.226  0.00  0.00    +0.000 A 
ATOM      2  C   UNL     1     112.927 126.795 137.645  0.00  0.00    +0.000 A 
ATOM      3  C   UNL     1     113.234 127.023 136.914  0.00  0.00    +0.000 A 
ATOM      4  N   UNL     1     113.382 126.455 136.334  0.00  0.00    +0.000 NA
ATOM      5  C   UNL     1     113.395 127.818 136.762  0.00  0.00    +0.000 A 
ATOM      6  C   UNL     1     113.247 128.387 137.343  0.00  0.00    +0.000 A 
ATOM      7  O   UNL     1     112.940 128.159 138.074  0.00  0.00    +0.000 OA
ATOM      8  C   UNL     1     113.407 129.181 137.191  0.00  0.00    +0.000 A 
ATOM      9  C   UNL     1     113.714 129.408 136.461  0.00  0.00    +0.000 A 
ATOM     10  C   UNL     1     113.861 128.840 135.880  0.00  0.00    +0.000 A 
ATOM     11  C   UNL     1     113.701 128.045 136.031  0.00  0.00    +0.000 A 
ATOM     12  O   UNL     1     114.169 129.068 135.149  0.00  0.00    +0.000 OA
ENDROOT
BRANCH   1  16
ATOM     13  C   UNL     1     111.859 126.682 140.419  0.00  0.00    +0.000 A 
ATOM     14  C   UNL     1     112.676 126.726 140.310  0.00  0.00    +0.000 A 
ATOM     15  C   UNL     1     112.982 126.953 139.579  0.00  0.00    +0.000 A 
ATOM     16  C   UNL     1     112.473 127.137 138.956  0.00  0.00    +0.000 A 
ATOM     17  C   UNL     1     111.657 127.093 139.065  0.00  0.00    +0.000 A 
ATOM     18  C   UNL     1     111.349 126.866 139.797  0.00  0.00    +0.000 A 
BRANCH  13  20
ATOM     19  C   UNL     1     111.083 126.980 141.581  0.00  0.00    +0.000 C 
ATOM     20  O   UNL     1     111.552 126.455 141.150  0.00  0.00    +0.000 OA
ENDBRANCH  13  20
ENDBRANCH   1  16
BRANCH   4  21
ATOM     21  C   UNL     1     113.222 125.659 136.485  0.00  0.00    +0.000 A 
ATOM     22  C   UNL     1     113.807 125.174 136.802  0.00  0.00    +0.000 A 
ATOM     23  C   UNL     1     113.648 124.379 136.953  0.00  0.00    +0.000 A 
ATOM     24  C   UNL     1     112.901 124.070 136.787  0.00  0.00    +0.000 A 
ATOM     25  C   UNL     1     112.315 124.556 136.471  0.00  0.00    +0.000 A 
ATOM     26  C   UNL     1     112.475 125.351 136.319  0.00  0.00    +0.000 A 
BRANCH  24  27
ATOM     27  O   UNL     1     112.741 123.275 136.938  0.00  0.00    +0.000 OA
ATOM     28  C   UNL     1     111.996 123.048 137.209  0.00  0.00    +0.000 C 
ENDBRANCH  24  27
ENDBRANCH   4  21
TORSDOF 4
ENDMDL
MODEL 7
REMARK VINA RESULT:      -8.3      1.622      4.123
REMARK  Name = null
REMARK  4 active torsions:
REMARK  status: ('A' for Active; 'I' for Inactive)
REMARK    1  A    between atoms: O_2  and  C_3
REMARK    2  A    between atoms: C_6  and  C_9
REMARK    3  A    between atoms: N_12  and  C_13
REMARK    4  A    between atoms: C_16  and  O_19
REMARK                            x       y       z     vdW  Elec       q    Type
REMARK                         _______ _______ _______ _____ _____    ______ ____
ROOT
ATOM      1  C   UNL     1     111.179 129.205 135.543  0.00  0.00    +0.000 A 
ATOM      2  C   UNL     1     110.707 128.529 135.575  0.00  0.00    +0.000 A 
ATOM      3  C   UNL     1     109.888 128.601 135.652  0.00  0.00    +0.000 A 
ATOM      4  N   UNL     1     109.416 127.925 135.684  0.00  0.00    +0.000 NA
ATOM      5  C   UNL     1     109.541 129.348 135.697  0.00  0.00    +0.000 A 
ATOM      6  C   UNL     1     110.013 130.025 135.665  0.00  0.00    +0.000 A 
ATOM      7  O   UNL     1     110.832 129.953 135.588  0.00  0.00    +0.000 OA
ATOM      8  C   UNL     1     109.667 130.771 135.709  0.00  0.00    +0.000 A 
ATOM      9  C   UNL     1     108.849 130.843 135.786  0.00  0.00    +0.000 A 
ATOM     10  C   UNL     1     108.377 130.166 135.818  0.00  0.00    +0.000 A 
ATOM     11  C   UNL     1     108.723 129.420 135.774  0.00  0.00    +0.000 A 
ATOM     12  O   UNL     1     107.558 130.238 135.895  0.00  0.00    +0.000 OA
ENDROOT
BRANCH   1  16
ATOM     13  C   UNL     1     113.633 128.991 135.312  0.00  0.00    +0.000 A 
ATOM     14  C   UNL     1     113.160 129.064 134.639  0.00  0.00    +0.000 A 
ATOM     15  C   UNL     1     112.342 129.136 134.717  0.00  0.00    +0.000 A 
ATOM     16  C   UNL     1     111.997 129.134 135.466  0.00  0.00    +0.000 A 
ATOM     17  C   UNL     1     112.469 129.060 136.137  0.00  0.00    +0.000 A 
ATOM     18  C   UNL     1     113.288 128.989 136.061  0.00  0.00    +0.000 A 
BRANCH  13  20
ATOM     19  C   UNL     1     114.900 129.568 134.991  0.00  0.00    +0.000 C 
ATOM     20  O   UNL     1     114.451 128.919 135.234  0.00  0.00    +0.000 OA
ENDBRANCH  13  20
ENDBRANCH   1  16
BRANCH   4  21
ATOM     21  C   UNL     1     109.763 127.177 135.640  0.00  0.00    +0.000 A 
ATOM     22  C   UNL     1     109.989 126.785 136.329  0.00  0.00    +0.000 A 
ATOM     23  C   UNL     1     110.335 126.038 136.284  0.00  0.00    +0.000 A 
ATOM     24  C   UNL     1     110.455 125.683 135.550  0.00  0.00    +0.000 A 
ATOM     25  C   UNL     1     110.229 126.074 134.861  0.00  0.00    +0.000 A 
ATOM     26  C   UNL     1     109.882 126.822 134.905  0.00  0.00    +0.000 A 
BRANCH  24  27
ATOM     27  O   UNL     1     110.802 124.935 135.505  0.00  0.00    +0.000 OA
ATOM     28  C   UNL     1     111.374 124.712 136.056  0.00  0.00    +0.000 C 
ENDBRANCH  24  27
ENDBRANCH   4  21
TORSDOF 4
ENDMDL
MODEL 8
REMARK VINA RESULT:      -8.3      1.714      3.358
REMARK  Name = null
REMARK  4 active torsions:
REMARK  status: ('A' for Active; 'I' for Inactive)
REMARK    1  A    between atoms: O_2  and  C_3
REMARK    2  A    between atoms: C_6  and  C_9
REMARK    3  A    between atoms: N_12  and  C_13
REMARK    4  A    between atoms: C_16  and  O_19
REMARK                            x       y       z     vdW  Elec       q    Type
REMARK                         _______ _______ _______ _____ _____    ______ ____
ROOT
ATOM      1  C   UNL     1     112.512 128.001 135.980  0.00  0.00    +0.000 A 
ATOM      2  C   UNL     1     112.513 127.427 136.575  0.00  0.00    +0.000 A 
ATOM      3  C   UNL     1     111.996 126.786 136.529  0.00  0.00    +0.000 A 
ATOM      4  N   UNL     1     111.996 126.213 137.123  0.00  0.00    +0.000 NA
ATOM      5  C   UNL     1     111.478 126.716 135.890  0.00  0.00    +0.000 A 
ATOM      6  C   UNL     1     111.477 127.290 135.296  0.00  0.00    +0.000 A 
ATOM      7  O   UNL     1     111.994 127.931 135.341  0.00  0.00    +0.000 OA
ATOM      8  C   UNL     1     110.960 127.221 134.657  0.00  0.00    +0.000 A 
ATOM      9  C   UNL     1     110.444 126.580 134.612  0.00  0.00    +0.000 A 
ATOM     10  C   UNL     1     110.445 126.006 135.207  0.00  0.00    +0.000 A 
ATOM     11  C   UNL     1     110.962 126.075 135.845  0.00  0.00    +0.000 A 
ATOM     12  O   UNL     1     109.928 125.365 135.161  0.00  0.00    +0.000 OA
ENDROOT
BRANCH   1  16
ATOM     13  C   UNL     1     114.062 129.925 136.116  0.00  0.00    +0.000 A 
ATOM     14  C   UNL     1     113.308 129.978 136.449  0.00  0.00    +0.000 A 
ATOM     15  C   UNL     1     112.792 129.336 136.404  0.00  0.00    +0.000 A 
ATOM     16  C   UNL     1     113.028 128.642 136.025  0.00  0.00    +0.000 A 
ATOM     17  C   UNL     1     113.781 128.590 135.692  0.00  0.00    +0.000 A 
ATOM     18  C   UNL     1     114.298 129.231 135.737  0.00  0.00    +0.000 A 
BRANCH  13  20
ATOM     19  C   UNL     1     114.983 130.818 135.487  0.00  0.00    +0.000 C 
ATOM     20  O   UNL     1     114.578 130.567 136.161  0.00  0.00    +0.000 OA
ENDBRANCH  13  20
ENDBRANCH   1  16
BRANCH   4  21
ATOM     21  C   UNL     1     112.514 126.282 137.762  0.00  0.00    +0.000 A 
ATOM     22  C   UNL     1     113.269 125.955 137.719  0.00  0.00    +0.000 A 
ATOM     23  C   UNL     1     113.787 126.024 138.357  0.00  0.00    +0.000 A 
ATOM     24  C   UNL     1     113.547 126.420 139.040  0.00  0.00    +0.000 A 
ATOM     25  C   UNL     1     112.792 126.747 139.084  0.00  0.00    +0.000 A 
ATOM     26  C   UNL     1     112.275 126.679 138.445  0.00  0.00    +0.000 A 
BRANCH  24  27
ATOM     27  O   UNL     1     114.065 126.489 139.679  0.00  0.00    +0.000 OA
ATOM     28  C   UNL     1     113.868 126.971 140.320  0.00  0.00    +0.000 C 
ENDBRANCH  24  27
ENDBRANCH   4  21
TORSDOF 4
ENDMDL
MODEL 9
REMARK VINA RESULT:      -8.2      2.422      3.647
REMARK  Name = null
REMARK  4 active torsions:
REMARK  status: ('A' for Active; 'I' for Inactive)
REMARK    1  A    between atoms: O_2  and  C_3
REMARK    2  A    between atoms: C_6  and  C_9
REMARK    3  A    between atoms: N_12  and  C_13
REMARK    4  A    between atoms: C_16  and  O_19
REMARK                            x       y       z     vdW  Elec       q    Type
REMARK                         _______ _______ _______ _____ _____    ______ ____
ROOT
ATOM      1  C   UNL     1     113.201 126.390 138.502  0.00  0.00    +0.000 A 
ATOM      2  C   UNL     1     113.138 126.920 137.872  0.00  0.00    +0.000 A 
ATOM      3  C   UNL     1     113.538 126.770 137.166  0.00  0.00    +0.000 A 
ATOM      4  N   UNL     1     113.474 127.300 136.536  0.00  0.00    +0.000 NA
ATOM      5  C   UNL     1     114.001 126.091 137.088  0.00  0.00    +0.000 A 
ATOM      6  C   UNL     1     114.064 125.561 137.718  0.00  0.00    +0.000 A 
ATOM      7  O   UNL     1     113.664 125.711 138.425  0.00  0.00    +0.000 OA
ATOM      8  C   UNL     1     114.526 124.883 137.641  0.00  0.00    +0.000 A 
ATOM      9  C   UNL     1     114.925 124.734 136.936  0.00  0.00    +0.000 A 
ATOM     10  C   UNL     1     114.862 125.264 136.305  0.00  0.00    +0.000 A 
ATOM     11  C   UNL     1     114.400 125.942 136.382  0.00  0.00    +0.000 A 
ATOM     12  O   UNL     1     115.262 125.114 135.599  0.00  0.00    +0.000 OA
ENDROOT
BRANCH   1  16
ATOM     13  C   UNL     1     112.004 126.838 140.621  0.00  0.00    +0.000 A 
ATOM     14  C   UNL     1     112.801 127.040 140.546  0.00  0.00    +0.000 A 
ATOM     15  C   UNL     1     113.200 126.890 139.840  0.00  0.00    +0.000 A 
ATOM     16  C   UNL     1     112.802 126.539 139.208  0.00  0.00    +0.000 A 
ATOM     17  C   UNL     1     112.007 126.337 139.283  0.00  0.00    +0.000 A 
ATOM     18  C   UNL     1     111.607 126.486 139.989  0.00  0.00    +0.000 A 
BRANCH  13  20
ATOM     19  C   UNL     1     110.800 126.818 141.390  0.00  0.00    +0.000 C 
ATOM     20  O   UNL     1     111.606 126.987 141.327  0.00  0.00    +0.000 OA
ENDBRANCH  13  20
ENDBRANCH   1  16
BRANCH   4  21
ATOM     21  C   UNL     1     113.011 127.979 136.613  0.00  0.00    +0.000 A 
ATOM     22  C   UNL     1     112.216 127.962 136.398  0.00  0.00    +0.000 A 
ATOM     23  C   UNL     1     111.753 128.641 136.474  0.00  0.00    +0.000 A 
ATOM     24  C   UNL     1     112.087 129.336 136.767  0.00  0.00    +0.000 A 
ATOM     25  C   UNL     1     112.882 129.352 136.983  0.00  0.00    +0.000 A 
ATOM     26  C   UNL     1     113.345 128.674 136.906  0.00  0.00    +0.000 A 
BRANCH  24  27
ATOM     27  O   UNL     1     111.624 130.015 136.844  0.00  0.00    +0.000 OA
ATOM     28  C   UNL     1     111.193 130.144 137.535  0.00  0.00    +0.000 C 
ENDBRANCH  24  27
ENDBRANCH   4  21
TORSDOF 4
ENDMDL
MODEL 10
REMARK VINA RESULT:      -8.2      1.909      2.631
REMARK  Name = null
REMARK  4 active torsions:
REMARK  status: ('A' for Active; 'I' for Inactive)
REMARK    1  A    between atoms: O_2  and  C_3
REMARK    2  A    between atoms: C_6  and  C_9
REMARK    3  A    between atoms: N_12  and  C_13
REMARK    4  A    between atoms: C_16  and  O_19
REMARK                            x       y       z     vdW  Elec       q    Type
REMARK                         _______ _______ _______ _____ _____    ______ ____
ROOT
ATOM      1  C   UNL     1     112.948 127.723 137.526  0.00  0.00    +0.000 A 
ATOM      2  C   UNL     1     112.384 127.121 137.466  0.00  0.00    +0.000 A 
ATOM      3  C   UNL     1     112.149 126.709 138.141  0.00  0.00    +0.000 A 
ATOM      4  N   UNL     1     111.587 126.108 138.082  0.00  0.00    +0.000 NA
ATOM      5  C   UNL     1     112.476 126.896 138.875  0.00  0.00    +0.000 A 
ATOM      6  C   UNL     1     113.039 127.497 138.935  0.00  0.00    +0.000 A 
ATOM      7  O   UNL     1     113.275 127.910 138.260  0.00  0.00    +0.000 OA
ATOM      8  C   UNL     1     113.366 127.685 139.668  0.00  0.00    +0.000 A 
ATOM      9  C   UNL     1     113.131 127.272 140.342  0.00  0.00    +0.000 A 
ATOM     10  C   UNL     1     112.568 126.671 140.283  0.00  0.00    +0.000 A 
ATOM     11  C   UNL     1     112.241 126.484 139.549  0.00  0.00    +0.000 A 
ATOM     12  O   UNL     1     112.333 126.259 140.957  0.00  0.00    +0.000 OA
ENDROOT
BRANCH   1  16
ATOM     13  C   UNL     1     113.654 128.960 135.503  0.00  0.00    +0.000 A 
ATOM     14  C   UNL     1     114.056 128.275 135.729  0.00  0.00    +0.000 A 
ATOM     15  C   UNL     1     113.820 127.863 136.404  0.00  0.00    +0.000 A 
ATOM     16  C   UNL     1     113.183 128.135 136.852  0.00  0.00    +0.000 A 
ATOM     17  C   UNL     1     112.782 128.819 136.625  0.00  0.00    +0.000 A 
ATOM     18  C   UNL     1     113.017 129.232 135.951  0.00  0.00    +0.000 A 
BRANCH  13  20
ATOM     19  C   UNL     1     114.634 129.729 134.803  0.00  0.00    +0.000 C 
ATOM     20  O   UNL     1     113.890 129.372 134.828  0.00  0.00    +0.000 OA
ENDBRANCH  13  20
ENDBRANCH   1  16
BRANCH   4  21
ATOM     21  C   UNL     1     111.259 125.921 137.347  0.00  0.00    +0.000 A 
ATOM     22  C   UNL     1     111.615 125.349 136.872  0.00  0.00    +0.000 A 
ATOM     23  C   UNL     1     111.288 125.161 136.138  0.00  0.00    +0.000 A 
ATOM     24  C   UNL     1     110.605 125.546 135.881  0.00  0.00    +0.000 A 
ATOM     25  C   UNL     1     110.249 126.117 136.357  0.00  0.00    +0.000 A 
ATOM     26  C   UNL     1     110.576 126.305 137.091  0.00  0.00    +0.000 A 
BRANCH  24  27
ATOM     27  O   UNL     1     110.277 125.358 135.147  0.00  0.00    +0.000 OA
ATOM     28  C   UNL     1     110.087 125.958 134.614  0.00  0.00    +0.000 C 
ENDBRANCH  24  27
ENDBRANCH   4  21
TORSDOF 4
ENDMDL
