MODEL 1
REMARK VINA RESULT:      -9.2      0.000      0.000
REMARK  Name = 42607841
REMARK  5 active torsions:
REMARK  status: ('A' for Active; 'I' for Inactive)
REMARK    1  A    between atoms: O_2  and  C_15
REMARK    2  A    between atoms: O_2  and  C_18
REMARK    3  A    between atoms: O_10  and  C_30
REMARK    4  A    between atoms: C_14  and  C_16
REMARK    5  A    between atoms: C_17  and  C_19
REMARK                            x       y       z     vdW  Elec       q    Type
REMARK                         _______ _______ _______ _____ _____    ______ ____
ROOT
ATOM      1  C   UNL     1     113.140 125.831 137.752  0.00  0.00    +0.000 A 
ATOM      2  C   UNL     1     113.159 125.661 136.945  0.00  0.00    +0.000 A 
ATOM      3  C   UNL     1     113.818 125.734 138.211  0.00  0.00    +0.000 A 
ATOM      4  C   UNL     1     113.858 125.394 136.597  0.00  0.00    +0.000 A 
ATOM      5  C   UNL     1     114.516 125.467 137.863  0.00  0.00    +0.000 A 
ATOM      6  C   UNL     1     114.537 125.297 137.056  0.00  0.00    +0.000 A 
ENDROOT
BRANCH   2  10
ATOM      7  O   UNL     1     112.290 126.500 136.182  0.00  0.00    +0.000 OA
ATOM      8  O   UNL     1     110.826 124.560 135.715  0.00  0.00    +0.000 OA
ATOM      9  O   UNL     1     109.932 125.386 134.940  0.00  0.00    +0.000 OA
ATOM     10  C   UNL     1     112.481 125.757 136.486  0.00  0.00    +0.000 C 
ATOM     11  C   UNL     1     111.993 125.111 136.330  0.00  0.00    +0.000 C 
ATOM     12  C   UNL     1     111.314 125.207 135.871  0.00  0.00    +0.000 C 
ATOM     13  C   UNL     1     111.124 125.950 135.568  0.00  0.00    +0.000 A 
ATOM     14  C   UNL     1     111.612 126.597 135.723  0.00  0.00    +0.000 A 
ATOM     15  C   UNL     1     110.414 126.038 135.090  0.00  0.00    +0.000 A 
ATOM     16  C   UNL     1     111.424 127.376 135.413  0.00  0.00    +0.000 A 
ATOM     17  C   UNL     1     110.719 127.483 134.934  0.00  0.00    +0.000 A 
ATOM     18  C   UNL     1     110.210 126.810 134.772  0.00  0.00    +0.000 A 
BRANCH  17  19
ATOM     19  O   UNL     1     110.531 128.227 134.632  0.00  0.00    +0.000 OA
ATOM     20  C   UNL     1     110.048 128.738 135.064  0.00  0.00    +0.000 C 
ENDBRANCH  17  19
ENDBRANCH   2  10
BRANCH   1  21
ATOM     21  O   UNL     1     112.441 126.098 138.100  0.00  0.00    +0.000 OA
BRANCH  21  30
ATOM     22  O   UNL     1     112.859 127.275 138.794  0.00  0.00    +0.000 OA
ATOM     23  O   UNL     1     111.777 126.441 140.858  0.00  0.00    +0.000 OA
ATOM     24  O   UNL     1     112.555 127.896 140.865  0.00  0.00    +0.000 OA
ATOM     25  O   UNL     1     111.720 125.542 139.476  0.00  0.00    +0.000 OA
ATOM     26  C   UNL     1     112.138 126.719 140.170  0.00  0.00    +0.000 C 
ATOM     27  C   UNL     1     112.526 127.446 140.174  0.00  0.00    +0.000 C 
ATOM     28  C   UNL     1     112.109 126.269 139.479  0.00  0.00    +0.000 C 
ATOM     29  C   UNL     1     112.887 127.724 139.486  0.00  0.00    +0.000 C 
ATOM     30  C   UNL     1     112.469 126.547 138.791  0.00  0.00    +0.000 C 
BRANCH  29  32
ATOM     31  O   UNL     1     113.181 128.973 138.856  0.00  0.00    +0.000 OA
ATOM     32  C   UNL     1     113.276 128.452 139.488  0.00  0.00    +0.000 C 
ENDBRANCH  29  32
ENDBRANCH  21  30
ENDBRANCH   1  21
TORSDOF 5
ENDMDL
MODEL 2
REMARK VINA RESULT:      -9.0      9.947     11.585
REMARK  Name = 42607841
REMARK  5 active torsions:
REMARK  status: ('A' for Active; 'I' for Inactive)
REMARK    1  A    between atoms: O_2  and  C_15
REMARK    2  A    between atoms: O_2  and  C_18
REMARK    3  A    between atoms: O_10  and  C_30
REMARK    4  A    between atoms: C_14  and  C_16
REMARK    5  A    between atoms: C_17  and  C_19
REMARK                            x       y       z     vdW  Elec       q    Type
REMARK                         _______ _______ _______ _____ _____    ______ ____
ROOT
ATOM      1  C   UNL     1     102.327 132.221 141.526  0.00  0.00    +0.000 A 
ATOM      2  C   UNL     1     102.008 131.481 141.706  0.00  0.00    +0.000 A 
ATOM      3  C   UNL     1     101.880 132.903 141.645  0.00  0.00    +0.000 A 
ATOM      4  C   UNL     1     101.241 131.425 142.006  0.00  0.00    +0.000 A 
ATOM      5  C   UNL     1     101.113 132.847 141.944  0.00  0.00    +0.000 A 
ATOM      6  C   UNL     1     100.793 132.108 142.125  0.00  0.00    +0.000 A 
ENDROOT
BRANCH   2  10
ATOM      7  O   UNL     1     102.940 130.512 142.190  0.00  0.00    +0.000 OA
ATOM      8  O   UNL     1     102.829 129.322 140.023  0.00  0.00    +0.000 OA
ATOM      9  O   UNL     1     103.768 128.331 140.487  0.00  0.00    +0.000 OA
ATOM     10  C   UNL     1     102.455 130.799 141.587  0.00  0.00    +0.000 C 
ATOM     11  C   UNL     1     102.418 130.402 140.865  0.00  0.00    +0.000 C 
ATOM     12  C   UNL     1     102.866 129.719 140.746  0.00  0.00    +0.000 C 
ATOM     13  C   UNL     1     103.350 129.433 141.349  0.00  0.00    +0.000 A 
ATOM     14  C   UNL     1     103.387 129.830 142.072  0.00  0.00    +0.000 A 
ATOM     15  C   UNL     1     103.812 128.721 141.213  0.00  0.00    +0.000 A 
ATOM     16  C   UNL     1     103.888 129.542 142.708  0.00  0.00    +0.000 A 
ATOM     17  C   UNL     1     104.357 128.831 142.590  0.00  0.00    +0.000 A 
ATOM     18  C   UNL     1     104.318 128.418 141.837  0.00  0.00    +0.000 A 
BRANCH  17  19
ATOM     19  O   UNL     1     104.840 128.547 143.195  0.00  0.00    +0.000 OA
ATOM     20  C   UNL     1     105.629 128.786 143.239  0.00  0.00    +0.000 C 
ENDBRANCH  17  19
ENDBRANCH   2  10
BRANCH   1  21
ATOM     21  O   UNL     1     103.093 132.277 141.227  0.00  0.00    +0.000 OA
BRANCH  21  30
ATOM     22  O   UNL     1     103.691 133.211 142.129  0.00  0.00    +0.000 OA
ATOM     23  O   UNL     1     104.571 134.503 140.211  0.00  0.00    +0.000 OA
ATOM     24  O   UNL     1     104.875 135.005 141.753  0.00  0.00    +0.000 OA
ATOM     25  O   UNL     1     103.680 133.139 139.948  0.00  0.00    +0.000 OA
ATOM     26  C   UNL     1     104.277 134.072 140.850  0.00  0.00    +0.000 C 
ATOM     27  C   UNL     1     104.429 134.323 141.621  0.00  0.00    +0.000 C 
ATOM     28  C   UNL     1     103.832 133.390 140.718  0.00  0.00    +0.000 C 
ATOM     29  C   UNL     1     104.136 133.892 142.260  0.00  0.00    +0.000 C 
ATOM     30  C   UNL     1     103.539 132.959 141.358  0.00  0.00    +0.000 C 
BRANCH  29  32
ATOM     31  O   UNL     1     104.534 133.600 143.601  0.00  0.00    +0.000 OA
ATOM     32  C   UNL     1     104.288 134.144 143.032  0.00  0.00    +0.000 C 
ENDBRANCH  29  32
ENDBRANCH  21  30
ENDBRANCH   1  21
TORSDOF 5
ENDMDL
MODEL 3
REMARK VINA RESULT:      -9.0      2.162      3.592
REMARK  Name = 42607841
REMARK  5 active torsions:
REMARK  status: ('A' for Active; 'I' for Inactive)
REMARK    1  A    between atoms: O_2  and  C_15
REMARK    2  A    between atoms: O_2  and  C_18
REMARK    3  A    between atoms: O_10  and  C_30
REMARK    4  A    between atoms: C_14  and  C_16
REMARK    5  A    between atoms: C_17  and  C_19
REMARK                            x       y       z     vdW  Elec       q    Type
REMARK                         _______ _______ _______ _____ _____    ______ ____
ROOT
ATOM      1  C   UNL     1     110.228 126.221 136.208  0.00  0.00    +0.000 A 
ATOM      2  C   UNL     1     110.658 125.698 135.737  0.00  0.00    +0.000 A 
ATOM      3  C   UNL     1     109.578 126.620 135.895  0.00  0.00    +0.000 A 
ATOM      4  C   UNL     1     110.436 125.572 134.952  0.00  0.00    +0.000 A 
ATOM      5  C   UNL     1     109.356 126.494 135.110  0.00  0.00    +0.000 A 
ATOM      6  C   UNL     1     109.785 125.971 134.638  0.00  0.00    +0.000 A 
ENDROOT
BRANCH   2  10
ATOM      7  O   UNL     1     112.058 125.642 136.017  0.00  0.00    +0.000 OA
ATOM      8  O   UNL     1     111.762 123.416 137.057  0.00  0.00    +0.000 OA
ATOM      9  O   UNL     1     113.172 123.335 137.351  0.00  0.00    +0.000 OA
ATOM     10  C   UNL     1     111.308 125.299 136.050  0.00  0.00    +0.000 C 
ATOM     11  C   UNL     1     111.210 124.557 136.397  0.00  0.00    +0.000 C 
ATOM     12  C   UNL     1     111.861 124.158 136.710  0.00  0.00    +0.000 C 
ATOM     13  C   UNL     1     112.610 124.502 136.676  0.00  0.00    +0.000 A 
ATOM     14  C   UNL     1     112.708 125.244 136.330  0.00  0.00    +0.000 A 
ATOM     15  C   UNL     1     113.280 124.077 137.006  0.00  0.00    +0.000 A 
ATOM     16  C   UNL     1     113.484 125.612 136.289  0.00  0.00    +0.000 A 
ATOM     17  C   UNL     1     114.166 125.202 136.613  0.00  0.00    +0.000 A 
ATOM     18  C   UNL     1     114.063 124.429 136.974  0.00  0.00    +0.000 A 
BRANCH  17  19
ATOM     19  O   UNL     1     114.914 125.548 136.578  0.00  0.00    +0.000 OA
ATOM     20  C   UNL     1     115.370 125.475 135.895  0.00  0.00    +0.000 C 
ENDBRANCH  17  19
ENDBRANCH   2  10
BRANCH   1  21
ATOM     21  O   UNL     1     110.450 126.347 136.993  0.00  0.00    +0.000 OA
BRANCH  21  30
ATOM     22  O   UNL     1     110.675 127.757 137.032  0.00  0.00    +0.000 OA
ATOM     23  O   UNL     1     109.229 127.932 139.033  0.00  0.00    +0.000 OA
ATOM     24  O   UNL     1     109.936 129.285 138.405  0.00  0.00    +0.000 OA
ATOM     25  O   UNL     1     109.486 126.463 138.327  0.00  0.00    +0.000 OA
ATOM     26  C   UNL     1     109.711 127.874 138.366  0.00  0.00    +0.000 C 
ATOM     27  C   UNL     1     110.064 128.550 138.052  0.00  0.00    +0.000 C 
ATOM     28  C   UNL     1     109.839 127.139 138.013  0.00  0.00    +0.000 C 
ATOM     29  C   UNL     1     110.546 128.491 137.385  0.00  0.00    +0.000 C 
ATOM     30  C   UNL     1     110.321 127.081 137.346  0.00  0.00    +0.000 C 
BRANCH  29  32
ATOM     31  O   UNL     1     111.692 129.149 136.842  0.00  0.00    +0.000 OA
ATOM     32  C   UNL     1     110.900 129.168 137.071  0.00  0.00    +0.000 C 
ENDBRANCH  29  32
ENDBRANCH  21  30
ENDBRANCH   1  21
TORSDOF 5
ENDMDL
MODEL 4
REMARK VINA RESULT:      -8.9      1.488      4.484
REMARK  Name = 42607841
REMARK  5 active torsions:
REMARK  status: ('A' for Active; 'I' for Inactive)
REMARK    1  A    between atoms: O_2  and  C_15
REMARK    2  A    between atoms: O_2  and  C_18
REMARK    3  A    between atoms: O_10  and  C_30
REMARK    4  A    between atoms: C_14  and  C_16
REMARK    5  A    between atoms: C_17  and  C_19
REMARK                            x       y       z     vdW  Elec       q    Type
REMARK                         _______ _______ _______ _____ _____    ______ ____
ROOT
ATOM      1  C   UNL     1     110.331 126.355 136.182  0.00  0.00    +0.000 A 
ATOM      2  C   UNL     1     110.861 125.845 136.555  0.00  0.00    +0.000 A 
ATOM      3  C   UNL     1     110.098 126.213 135.404  0.00  0.00    +0.000 A 
ATOM      4  C   UNL     1     111.159 125.192 136.148  0.00  0.00    +0.000 A 
ATOM      5  C   UNL     1     110.395 125.559 134.998  0.00  0.00    +0.000 A 
ATOM      6  C   UNL     1     110.926 125.048 135.369  0.00  0.00    +0.000 A 
ENDROOT
BRANCH   2  10
ATOM      7  O   UNL     1     111.736 126.483 137.487  0.00  0.00    +0.000 OA
ATOM      8  O   UNL     1     110.509 125.427 139.360  0.00  0.00    +0.000 OA
ATOM      9  O   UNL     1     111.378 126.059 140.322  0.00  0.00    +0.000 OA
ATOM     10  C   UNL     1     111.094 125.988 137.332  0.00  0.00    +0.000 C 
ATOM     11  C   UNL     1     110.685 125.636 137.956  0.00  0.00    +0.000 C 
ATOM     12  C   UNL     1     110.918 125.779 138.736  0.00  0.00    +0.000 C 
ATOM     13  C   UNL     1     111.560 126.274 138.889  0.00  0.00    +0.000 A 
ATOM     14  C   UNL     1     111.969 126.626 138.265  0.00  0.00    +0.000 A 
ATOM     15  C   UNL     1     111.793 126.415 139.705  0.00  0.00    +0.000 A 
ATOM     16  C   UNL     1     112.639 127.143 138.413  0.00  0.00    +0.000 A 
ATOM     17  C   UNL     1     112.886 127.296 139.222  0.00  0.00    +0.000 A 
ATOM     18  C   UNL     1     112.461 126.929 139.871  0.00  0.00    +0.000 A 
BRANCH  17  19
ATOM     19  O   UNL     1     113.529 127.791 139.373  0.00  0.00    +0.000 OA
ATOM     20  C   UNL     1     113.404 128.592 139.527  0.00  0.00    +0.000 C 
ENDBRANCH  17  19
ENDBRANCH   2  10
BRANCH   1  21
ATOM     21  O   UNL     1     110.033 127.009 136.588  0.00  0.00    +0.000 OA
BRANCH  21  30
ATOM     22  O   UNL     1     110.349 128.101 135.721  0.00  0.00    +0.000 OA
ATOM     23  O   UNL     1     107.997 128.864 135.825  0.00  0.00    +0.000 OA
ATOM     24  O   UNL     1     109.098 129.701 134.924  0.00  0.00    +0.000 OA
ATOM     25  O   UNL     1     108.465 127.518 136.657  0.00  0.00    +0.000 OA
ATOM     26  C   UNL     1     108.781 128.610 135.790  0.00  0.00    +0.000 C 
ATOM     27  C   UNL     1     109.331 129.028 135.340  0.00  0.00    +0.000 C 
ATOM     28  C   UNL     1     109.015 127.936 136.207  0.00  0.00    +0.000 C 
ATOM     29  C   UNL     1     110.115 128.773 135.306  0.00  0.00    +0.000 C 
ATOM     30  C   UNL     1     109.799 127.682 136.172  0.00  0.00    +0.000 C 
BRANCH  29  32
ATOM     31  O   UNL     1     111.419 129.338 135.157  0.00  0.00    +0.000 OA
ATOM     32  C   UNL     1     110.666 129.192 134.855  0.00  0.00    +0.000 C 
ENDBRANCH  29  32
ENDBRANCH  21  30
ENDBRANCH   1  21
TORSDOF 5
ENDMDL
MODEL 5
REMARK VINA RESULT:      -8.9      1.370      2.079
REMARK  Name = 42607841
REMARK  5 active torsions:
REMARK  status: ('A' for Active; 'I' for Inactive)
REMARK    1  A    between atoms: O_2  and  C_15
REMARK    2  A    between atoms: O_2  and  C_18
REMARK    3  A    between atoms: O_10  and  C_30
REMARK    4  A    between atoms: C_14  and  C_16
REMARK    5  A    between atoms: C_17  and  C_19
REMARK                            x       y       z     vdW  Elec       q    Type
REMARK                         _______ _______ _______ _____ _____    ______ ____
ROOT
ATOM      1  C   UNL     1     113.491 126.277 137.657  0.00  0.00    +0.000 A 
ATOM      2  C   UNL     1     113.709 126.462 136.883  0.00  0.00    +0.000 A 
ATOM      3  C   UNL     1     113.819 125.622 138.034  0.00  0.00    +0.000 A 
ATOM      4  C   UNL     1     114.257 125.990 136.486  0.00  0.00    +0.000 A 
ATOM      5  C   UNL     1     114.367 125.150 137.637  0.00  0.00    +0.000 A 
ATOM      6  C   UNL     1     114.587 125.333 136.863  0.00  0.00    +0.000 A 
ENDROOT
BRANCH   2  10
ATOM      7  O   UNL     1     112.645 127.055 136.136  0.00  0.00    +0.000 OA
ATOM      8  O   UNL     1     113.863 129.210 136.114  0.00  0.00    +0.000 OA
ATOM      9  O   UNL     1     112.804 129.833 135.360  0.00  0.00    +0.000 OA
ATOM     10  C   UNL     1     113.380 127.117 136.506  0.00  0.00    +0.000 C 
ATOM     11  C   UNL     1     113.786 127.835 136.499  0.00  0.00    +0.000 C 
ATOM     12  C   UNL     1     113.457 128.492 136.121  0.00  0.00    +0.000 C 
ATOM     13  C   UNL     1     112.722 128.429 135.752  0.00  0.00    +0.000 A 
ATOM     14  C   UNL     1     112.316 127.711 135.759  0.00  0.00    +0.000 A 
ATOM     15  C   UNL     1     112.390 129.119 135.362  0.00  0.00    +0.000 A 
ATOM     16  C   UNL     1     111.550 127.633 135.378  0.00  0.00    +0.000 A 
ATOM     17  C   UNL     1     111.202 128.313 134.983  0.00  0.00    +0.000 A 
ATOM     18  C   UNL     1     111.625 129.061 134.976  0.00  0.00    +0.000 A 
BRANCH  17  19
ATOM     19  O   UNL     1     110.467 128.248 134.615  0.00  0.00    +0.000 OA
ATOM     20  C   UNL     1     109.777 128.400 135.041  0.00  0.00    +0.000 C 
ENDBRANCH  17  19
ENDBRANCH   2  10
BRANCH   1  21
ATOM     21  O   UNL     1     112.943 126.749 138.054  0.00  0.00    +0.000 OA
BRANCH  21  30
ATOM     22  O   UNL     1     113.570 126.999 139.313  0.00  0.00    +0.000 OA
ATOM     23  O   UNL     1     111.528 126.234 140.483  0.00  0.00    +0.000 OA
ATOM     24  O   UNL     1     112.836 126.739 141.352  0.00  0.00    +0.000 OA
ATOM     25  O   UNL     1     111.581 126.239 138.834  0.00  0.00    +0.000 OA
ATOM     26  C   UNL     1     112.209 126.489 140.093  0.00  0.00    +0.000 C 
ATOM     27  C   UNL     1     112.862 126.741 140.528  0.00  0.00    +0.000 C 
ATOM     28  C   UNL     1     112.235 126.491 139.268  0.00  0.00    +0.000 C 
ATOM     29  C   UNL     1     113.543 126.997 140.138  0.00  0.00    +0.000 C 
ATOM     30  C   UNL     1     112.915 126.747 138.878  0.00  0.00    +0.000 C 
BRANCH  29  32
ATOM     31  O   UNL     1     114.497 128.010 140.461  0.00  0.00    +0.000 OA
ATOM     32  C   UNL     1     114.198 127.250 140.572  0.00  0.00    +0.000 C 
ENDBRANCH  29  32
ENDBRANCH  21  30
ENDBRANCH   1  21
TORSDOF 5
ENDMDL
MODEL 6
REMARK VINA RESULT:      -8.8      1.782      3.442
REMARK  Name = 42607841
REMARK  5 active torsions:
REMARK  status: ('A' for Active; 'I' for Inactive)
REMARK    1  A    between atoms: O_2  and  C_15
REMARK    2  A    between atoms: O_2  and  C_18
REMARK    3  A    between atoms: O_10  and  C_30
REMARK    4  A    between atoms: C_14  and  C_16
REMARK    5  A    between atoms: C_17  and  C_19
REMARK                            x       y       z     vdW  Elec       q    Type
REMARK                         _______ _______ _______ _____ _____    ______ ____
ROOT
ATOM      1  C   UNL     1     110.228 126.487 136.166  0.00  0.00    +0.000 A 
ATOM      2  C   UNL     1     110.045 126.955 135.511  0.00  0.00    +0.000 A 
ATOM      3  C   UNL     1     110.506 125.719 136.059  0.00  0.00    +0.000 A 
ATOM      4  C   UNL     1     110.140 126.653 134.750  0.00  0.00    +0.000 A 
ATOM      5  C   UNL     1     110.601 125.417 135.297  0.00  0.00    +0.000 A 
ATOM      6  C   UNL     1     110.418 125.883 134.642  0.00  0.00    +0.000 A 
ENDROOT
BRANCH   2  10
ATOM      7  O   UNL     1     110.300 128.347 135.712  0.00  0.00    +0.000 OA
ATOM      8  O   UNL     1     107.865 128.788 135.752  0.00  0.00    +0.000 OA
ATOM      9  O   UNL     1     108.095 130.197 135.954  0.00  0.00    +0.000 OA
ATOM     10  C   UNL     1     109.767 127.724 135.618  0.00  0.00    +0.000 C 
ATOM     11  C   UNL     1     108.955 127.871 135.631  0.00  0.00    +0.000 C 
ATOM     12  C   UNL     1     108.677 128.641 135.738  0.00  0.00    +0.000 C 
ATOM     13  C   UNL     1     109.211 129.263 135.832  0.00  0.00    +0.000 A 
ATOM     14  C   UNL     1     110.022 129.116 135.818  0.00  0.00    +0.000 A 
ATOM     15  C   UNL     1     108.909 130.060 135.942  0.00  0.00    +0.000 A 
ATOM     16  C   UNL     1     110.588 129.756 135.915  0.00  0.00    +0.000 A 
ATOM     17  C   UNL     1     110.304 130.559 136.026  0.00  0.00    +0.000 A 
ATOM     18  C   UNL     1     109.459 130.712 136.040  0.00  0.00    +0.000 A 
BRANCH  17  19
ATOM     19  O   UNL     1     110.840 131.179 136.120  0.00  0.00    +0.000 OA
ATOM     20  C   UNL     1     111.096 131.393 136.874  0.00  0.00    +0.000 C 
ENDBRANCH  17  19
ENDBRANCH   2  10
BRANCH   1  21
ATOM     21  O   UNL     1     110.133 126.790 136.928  0.00  0.00    +0.000 OA
BRANCH  21  30
ATOM     22  O   UNL     1     111.437 126.612 137.485  0.00  0.00    +0.000 OA
ATOM     23  O   UNL     1     110.437 125.556 139.488  0.00  0.00    +0.000 OA
ATOM     24  O   UNL     1     112.074 125.731 139.378  0.00  0.00    +0.000 OA
ATOM     25  O   UNL     1     109.467 126.086 138.263  0.00  0.00    +0.000 OA
ATOM     26  C   UNL     1     110.770 125.908 138.820  0.00  0.00    +0.000 C 
ATOM     27  C   UNL     1     111.588 125.995 138.765  0.00  0.00    +0.000 C 
ATOM     28  C   UNL     1     110.285 126.173 138.208  0.00  0.00    +0.000 C 
ATOM     29  C   UNL     1     111.922 126.347 138.098  0.00  0.00    +0.000 C 
ATOM     30  C   UNL     1     110.618 126.525 137.540  0.00  0.00    +0.000 C 
BRANCH  29  32
ATOM     31  O   UNL     1     113.061 127.131 137.738  0.00  0.00    +0.000 OA
ATOM     32  C   UNL     1     112.741 126.435 138.042  0.00  0.00    +0.000 C 
ENDBRANCH  29  32
ENDBRANCH  21  30
ENDBRANCH   1  21
TORSDOF 5
ENDMDL
MODEL 7
REMARK VINA RESULT:      -8.7      2.208      3.305
REMARK  Name = 42607841
REMARK  5 active torsions:
REMARK  status: ('A' for Active; 'I' for Inactive)
REMARK    1  A    between atoms: O_2  and  C_15
REMARK    2  A    between atoms: O_2  and  C_18
REMARK    3  A    between atoms: O_10  and  C_30
REMARK    4  A    between atoms: C_14  and  C_16
REMARK    5  A    between atoms: C_17  and  C_19
REMARK                            x       y       z     vdW  Elec       q    Type
REMARK                         _______ _______ _______ _____ _____    ______ ____
ROOT
ATOM      1  C   UNL     1     113.474 129.036 136.611  0.00  0.00    +0.000 A 
ATOM      2  C   UNL     1     113.600 128.406 136.093  0.00  0.00    +0.000 A 
ATOM      3  C   UNL     1     113.865 129.752 136.494  0.00  0.00    +0.000 A 
ATOM      4  C   UNL     1     114.118 128.493 135.457  0.00  0.00    +0.000 A 
ATOM      5  C   UNL     1     114.383 129.839 135.858  0.00  0.00    +0.000 A 
ATOM      6  C   UNL     1     114.510 129.211 135.339  0.00  0.00    +0.000 A 
ENDROOT
BRANCH   2  10
ATOM      7  O   UNL     1     112.463 127.567 135.880  0.00  0.00    +0.000 OA
ATOM      8  O   UNL     1     113.527 125.784 137.227  0.00  0.00    +0.000 OA
ATOM      9  O   UNL     1     112.391 124.917 137.027  0.00  0.00    +0.000 OA
ATOM     10  C   UNL     1     113.209 127.690 136.211  0.00  0.00    +0.000 C 
ATOM     11  C   UNL     1     113.564 127.095 136.660  0.00  0.00    +0.000 C 
ATOM     12  C   UNL     1     113.172 126.378 136.778  0.00  0.00    +0.000 C 
ATOM     13  C   UNL     1     112.427 126.256 136.447  0.00  0.00    +0.000 A 
ATOM     14  C   UNL     1     112.072 126.851 135.997  0.00  0.00    +0.000 A 
ATOM     15  C   UNL     1     112.029 125.505 136.576  0.00  0.00    +0.000 A 
ATOM     16  C   UNL     1     111.296 126.735 135.647  0.00  0.00    +0.000 A 
ATOM     17  C   UNL     1     110.884 125.991 135.766  0.00  0.00    +0.000 A 
ATOM     18  C   UNL     1     111.253 125.372 136.234  0.00  0.00    +0.000 A 
BRANCH  17  19
ATOM     19  O   UNL     1     110.138 125.872 135.434  0.00  0.00    +0.000 OA
ATOM     20  C   UNL     1     110.054 125.827 134.615  0.00  0.00    +0.000 C 
ENDBRANCH  17  19
ENDBRANCH   2  10
BRANCH   1  21
ATOM     21  O   UNL     1     112.956 128.948 137.248  0.00  0.00    +0.000 OA
BRANCH  21  30
ATOM     22  O   UNL     1     112.058 130.044 137.060  0.00  0.00    +0.000 OA
ATOM     23  O   UNL     1     112.360 130.698 139.428  0.00  0.00    +0.000 OA
ATOM     24  O   UNL     1     111.361 131.575 138.450  0.00  0.00    +0.000 OA
ATOM     25  O   UNL     1     113.158 129.384 138.826  0.00  0.00    +0.000 OA
ATOM     26  C   UNL     1     112.259 130.480 138.638  0.00  0.00    +0.000 C 
ATOM     27  C   UNL     1     111.760 130.918 138.150  0.00  0.00    +0.000 C 
ATOM     28  C   UNL     1     112.658 129.823 138.338  0.00  0.00    +0.000 C 
ATOM     29  C   UNL     1     111.659 130.700 137.361  0.00  0.00    +0.000 C 
ATOM     30  C   UNL     1     112.558 129.605 137.549  0.00  0.00    +0.000 C 
BRANCH  29  32
ATOM     31  O   UNL     1     110.661 130.753 136.340  0.00  0.00    +0.000 OA
ATOM     32  C   UNL     1     111.159 131.139 136.872  0.00  0.00    +0.000 C 
ENDBRANCH  29  32
ENDBRANCH  21  30
ENDBRANCH   1  21
TORSDOF 5
ENDMDL
MODEL 8
REMARK VINA RESULT:      -8.7      1.461      4.457
REMARK  Name = 42607841
REMARK  5 active torsions:
REMARK  status: ('A' for Active; 'I' for Inactive)
REMARK    1  A    between atoms: O_2  and  C_15
REMARK    2  A    between atoms: O_2  and  C_18
REMARK    3  A    between atoms: O_10  and  C_30
REMARK    4  A    between atoms: C_14  and  C_16
REMARK    5  A    between atoms: C_17  and  C_19
REMARK                            x       y       z     vdW  Elec       q    Type
REMARK                         _______ _______ _______ _____ _____    ______ ____
ROOT
ATOM      1  C   UNL     1     113.388 126.447 137.241  0.00  0.00    +0.000 A 
ATOM      2  C   UNL     1     113.652 126.153 137.965  0.00  0.00    +0.000 A 
ATOM      3  C   UNL     1     113.684 126.136 136.537  0.00  0.00    +0.000 A 
ATOM      4  C   UNL     1     114.212 125.548 137.985  0.00  0.00    +0.000 A 
ATOM      5  C   UNL     1     114.244 125.530 136.557  0.00  0.00    +0.000 A 
ATOM      6  C   UNL     1     114.508 125.236 137.281  0.00  0.00    +0.000 A 
ENDROOT
BRANCH   2  10
ATOM      7  O   UNL     1     113.731 127.106 139.027  0.00  0.00    +0.000 OA
ATOM      8  O   UNL     1     111.716 126.114 140.068  0.00  0.00    +0.000 OA
ATOM      9  O   UNL     1     111.773 127.065 141.151  0.00  0.00    +0.000 OA
ATOM     10  C   UNL     1     113.356 126.464 138.669  0.00  0.00    +0.000 C 
ATOM     11  C   UNL     1     112.684 126.133 139.016  0.00  0.00    +0.000 C 
ATOM     12  C   UNL     1     112.388 126.445 139.721  0.00  0.00    +0.000 C 
ATOM     13  C   UNL     1     112.763 127.087 140.078  0.00  0.00    +0.000 A 
ATOM     14  C   UNL     1     113.435 127.417 139.731  0.00  0.00    +0.000 A 
ATOM     15  C   UNL     1     112.445 127.402 140.812  0.00  0.00    +0.000 A 
ATOM     16  C   UNL     1     113.835 128.086 140.094  0.00  0.00    +0.000 A 
ATOM     17  C   UNL     1     113.531 128.414 140.827  0.00  0.00    +0.000 A 
ATOM     18  C   UNL     1     112.832 128.070 141.188  0.00  0.00    +0.000 A 
BRANCH  17  19
ATOM     19  O   UNL     1     113.908 129.056 141.182  0.00  0.00    +0.000 OA
ATOM     20  C   UNL     1     113.689 129.826 140.982  0.00  0.00    +0.000 C 
ENDBRANCH  17  19
ENDBRANCH   2  10
BRANCH   1  21
ATOM     21  O   UNL     1     112.828 127.052 137.221  0.00  0.00    +0.000 OA
BRANCH  21  30
ATOM     22  O   UNL     1     113.461 128.021 136.383  0.00  0.00    +0.000 OA
ATOM     23  O   UNL     1     111.394 128.206 135.034  0.00  0.00    +0.000 OA
ATOM     24  O   UNL     1     112.716 129.114 134.646  0.00  0.00    +0.000 OA
ATOM     25  O   UNL     1     111.450 127.176 136.322  0.00  0.00    +0.000 OA
ATOM     26  C   UNL     1     112.083 128.145 135.484  0.00  0.00    +0.000 C 
ATOM     27  C   UNL     1     112.744 128.598 135.290  0.00  0.00    +0.000 C 
ATOM     28  C   UNL     1     112.110 127.629 136.127  0.00  0.00    +0.000 C 
ATOM     29  C   UNL     1     113.433 128.536 135.739  0.00  0.00    +0.000 C 
ATOM     30  C   UNL     1     112.799 127.567 136.577  0.00  0.00    +0.000 C 
BRANCH  29  32
ATOM     31  O   UNL     1     114.465 129.447 136.124  0.00  0.00    +0.000 OA
ATOM     32  C   UNL     1     114.095 128.990 135.545  0.00  0.00    +0.000 C 
ENDBRANCH  29  32
ENDBRANCH  21  30
ENDBRANCH   1  21
TORSDOF 5
ENDMDL
MODEL 9
REMARK VINA RESULT:      -8.7      0.992      4.600
REMARK  Name = 42607841
REMARK  5 active torsions:
REMARK  status: ('A' for Active; 'I' for Inactive)
REMARK    1  A    between atoms: O_2  and  C_15
REMARK    2  A    between atoms: O_2  and  C_18
REMARK    3  A    between atoms: O_10  and  C_30
REMARK    4  A    between atoms: C_14  and  C_16
REMARK    5  A    between atoms: C_17  and  C_19
REMARK                            x       y       z     vdW  Elec       q    Type
REMARK                         _______ _______ _______ _____ _____    ______ ____
ROOT
ATOM      1  C   UNL     1     113.391 126.404 137.290  0.00  0.00    +0.000 A 
ATOM      2  C   UNL     1     113.649 126.113 138.018  0.00  0.00    +0.000 A 
ATOM      3  C   UNL     1     113.691 126.088 136.590  0.00  0.00    +0.000 A 
ATOM      4  C   UNL     1     114.206 125.505 138.045  0.00  0.00    +0.000 A 
ATOM      5  C   UNL     1     114.249 125.481 136.617  0.00  0.00    +0.000 A 
ATOM      6  C   UNL     1     114.507 125.189 137.344  0.00  0.00    +0.000 A 
ENDROOT
BRANCH   2  10
ATOM      7  O   UNL     1     113.711 127.084 139.064  0.00  0.00    +0.000 OA
ATOM      8  O   UNL     1     111.722 126.066 140.128  0.00  0.00    +0.000 OA
ATOM      9  O   UNL     1     111.763 127.034 141.196  0.00  0.00    +0.000 OA
ATOM     10  C   UNL     1     113.349 126.429 138.718  0.00  0.00    +0.000 C 
ATOM     11  C   UNL     1     112.686 126.089 139.073  0.00  0.00    +0.000 C 
ATOM     12  C   UNL     1     112.385 126.405 139.774  0.00  0.00    +0.000 C 
ATOM     13  C   UNL     1     112.748 127.060 140.119  0.00  0.00    +0.000 A 
ATOM     14  C   UNL     1     113.411 127.400 139.764  0.00  0.00    +0.000 A 
ATOM     15  C   UNL     1     112.426 127.381 140.849  0.00  0.00    +0.000 A 
ATOM     16  C   UNL     1     113.798 128.083 140.115  0.00  0.00    +0.000 A 
ATOM     17  C   UNL     1     113.490 128.416 140.845  0.00  0.00    +0.000 A 
ATOM     18  C   UNL     1     112.800 128.063 141.214  0.00  0.00    +0.000 A 
BRANCH  17  19
ATOM     19  O   UNL     1     113.855 129.071 141.188  0.00  0.00    +0.000 OA
ATOM     20  C   UNL     1     113.619 129.833 140.977  0.00  0.00    +0.000 C 
ENDBRANCH  17  19
ENDBRANCH   2  10
BRANCH   1  21
ATOM     21  O   UNL     1     112.834 127.011 137.263  0.00  0.00    +0.000 OA
BRANCH  21  30
ATOM     22  O   UNL     1     111.843 126.461 136.392  0.00  0.00    +0.000 OA
ATOM     23  O   UNL     1     111.832 128.560 135.079  0.00  0.00    +0.000 OA
ATOM     24  O   UNL     1     110.845 127.311 134.646  0.00  0.00    +0.000 OA
ATOM     25  O   UNL     1     112.827 128.410 136.387  0.00  0.00    +0.000 OA
ATOM     26  C   UNL     1     111.836 127.860 135.517  0.00  0.00    +0.000 C 
ATOM     27  C   UNL     1     111.342 127.236 135.300  0.00  0.00    +0.000 C 
ATOM     28  C   UNL     1     112.333 127.786 136.171  0.00  0.00    +0.000 C 
ATOM     29  C   UNL     1     111.346 126.537 135.738  0.00  0.00    +0.000 C 
ATOM     30  C   UNL     1     112.337 127.087 136.609  0.00  0.00    +0.000 C 
BRANCH  29  32
ATOM     31  O   UNL     1     110.455 125.481 136.102  0.00  0.00    +0.000 OA
ATOM     32  C   UNL     1     110.852 125.912 135.522  0.00  0.00    +0.000 C 
ENDBRANCH  29  32
ENDBRANCH  21  30
ENDBRANCH   1  21
TORSDOF 5
ENDMDL
MODEL 10
REMARK VINA RESULT:      -8.6     10.699     13.337
REMARK  Name = 42607841
REMARK  5 active torsions:
REMARK  status: ('A' for Active; 'I' for Inactive)
REMARK    1  A    between atoms: O_2  and  C_15
REMARK    2  A    between atoms: O_2  and  C_18
REMARK    3  A    between atoms: O_10  and  C_30
REMARK    4  A    between atoms: C_14  and  C_16
REMARK    5  A    between atoms: C_17  and  C_19
REMARK                            x       y       z     vdW  Elec       q    Type
REMARK                         _______ _______ _______ _____ _____    ______ ____
ROOT
ATOM      1  C   UNL     1     106.195 124.977 148.153  0.00  0.00    +0.000 A 
ATOM      2  C   UNL     1     105.886 124.980 148.918  0.00  0.00    +0.000 A 
ATOM      3  C   UNL     1     106.993 124.810 148.030  0.00  0.00    +0.000 A 
ATOM      4  C   UNL     1     106.376 124.815 149.560  0.00  0.00    +0.000 A 
ATOM      5  C   UNL     1     107.483 124.646 148.673  0.00  0.00    +0.000 A 
ATOM      6  C   UNL     1     107.176 124.648 149.438  0.00  0.00    +0.000 A 
ENDROOT
BRANCH   2  10
ATOM      7  O   UNL     1     104.525 124.548 148.966  0.00  0.00    +0.000 OA
ATOM      8  O   UNL     1     103.818 126.846 149.556  0.00  0.00    +0.000 OA
ATOM      9  O   UNL     1     102.436 126.436 149.612  0.00  0.00    +0.000 OA
ATOM     10  C   UNL     1     105.088 125.146 149.040  0.00  0.00    +0.000 C 
ATOM     11  C   UNL     1     104.853 125.912 149.237  0.00  0.00    +0.000 C 
ATOM     12  C   UNL     1     104.053 126.080 149.360  0.00  0.00    +0.000 C 
ATOM     13  C   UNL     1     103.491 125.481 149.286  0.00  0.00    +0.000 A 
ATOM     14  C   UNL     1     103.727 124.715 149.089  0.00  0.00    +0.000 A 
ATOM     15  C   UNL     1     102.662 125.667 149.416  0.00  0.00    +0.000 A 
ATOM     16  C   UNL     1     103.150 124.083 149.009  0.00  0.00    +0.000 A 
ATOM     17  C   UNL     1     102.317 124.251 149.136  0.00  0.00    +0.000 A 
ATOM     18  C   UNL     1     102.072 125.048 149.340  0.00  0.00    +0.000 A 
BRANCH  17  19
ATOM     19  O   UNL     1     101.756 123.650 149.061  0.00  0.00    +0.000 OA
ATOM     20  C   UNL     1     101.411 123.497 148.328  0.00  0.00    +0.000 C 
ENDBRANCH  17  19
ENDBRANCH   2  10
BRANCH   1  21
ATOM     21  O   UNL     1     105.705 125.142 147.510  0.00  0.00    +0.000 OA
BRANCH  21  30
ATOM     22  O   UNL     1     106.346 126.244 146.865  0.00  0.00    +0.000 OA
ATOM     23  O   UNL     1     106.305 125.012 144.719  0.00  0.00    +0.000 OA
ATOM     24  O   UNL     1     106.959 126.525 144.789  0.00  0.00    +0.000 OA
ATOM     25  O   UNL     1     105.678 124.320 146.079  0.00  0.00    +0.000 OA
ATOM     26  C   UNL     1     106.318 125.423 145.434  0.00  0.00    +0.000 C 
ATOM     27  C   UNL     1     106.645 126.179 145.469  0.00  0.00    +0.000 C 
ATOM     28  C   UNL     1     106.005 125.076 146.114  0.00  0.00    +0.000 C 
ATOM     29  C   UNL     1     106.659 126.590 146.184  0.00  0.00    +0.000 C 
ATOM     30  C   UNL     1     106.018 125.487 146.829  0.00  0.00    +0.000 C 
BRANCH  29  32
ATOM     31  O   UNL     1     106.583 127.952 146.609  0.00  0.00    +0.000 OA
ATOM     32  C   UNL     1     106.986 127.347 146.219  0.00  0.00    +0.000 C 
ENDBRANCH  29  32
ENDBRANCH  21  30
ENDBRANCH   1  21
TORSDOF 5
ENDMDL
