MODEL 1
REMARK VINA RESULT:     -10.0      0.000      0.000
REMARK  Name = 131750799
REMARK  5 active torsions:
REMARK  status: ('A' for Active; 'I' for Inactive)
REMARK    1  A    between atoms: O_2  and  C_15
REMARK    2  A    between atoms: O_2  and  C_21
REMARK    3  A    between atoms: C_16  and  C_24
REMARK    4  A    between atoms: C_18  and  C_23
REMARK    5  A    between atoms: C_31  and  C_33
REMARK                            x       y       z     vdW  Elec       q    Type
REMARK                         _______ _______ _______ _____ _____    ______ ____
ROOT
ATOM      1  O   UNL     1     105.350 123.869 139.642  0.00  0.00    +0.000 OA
ATOM      2  O   UNL     1     104.137 125.633 139.217  0.00  0.00    +0.000 OA
ATOM      3  O   UNL     1     107.645 123.491 141.393  0.00  0.00    +0.000 OA
ATOM      4  C   UNL     1     104.721 125.149 139.539  0.00  0.00    +0.000 C 
ATOM      5  C   UNL     1     104.765 124.355 139.321  0.00  0.00    +0.000 C 
ATOM      6  C   UNL     1     105.263 125.458 140.079  0.00  0.00    +0.000 C 
ATOM      7  C   UNL     1     105.847 124.973 140.401  0.00  0.00    +0.000 A 
ATOM      8  C   UNL     1     106.406 125.307 140.963  0.00  0.00    +0.000 A 
ATOM      9  C   UNL     1     105.891 124.178 140.182  0.00  0.00    +0.000 A 
ATOM     10  C   UNL     1     107.017 124.806 141.301  0.00  0.00    +0.000 A 
ATOM     11  C   UNL     1     106.495 123.663 140.510  0.00  0.00    +0.000 A 
ATOM     12  C   UNL     1     107.062 123.979 141.073  0.00  0.00    +0.000 A 
ENDROOT
BRANCH   5  14
ATOM     13  O   UNL     1     102.122 123.458 138.704  0.00  0.00    +0.000 OA
ATOM     14  C   UNL     1     104.224 124.045 138.780  0.00  0.00    +0.000 A 
ATOM     15  C   UNL     1     103.443 123.906 139.012  0.00  0.00    +0.000 A 
ATOM     16  C   UNL     1     104.461 123.873 138.009  0.00  0.00    +0.000 A 
ATOM     17  C   UNL     1     102.902 123.596 138.473  0.00  0.00    +0.000 A 
ATOM     18  C   UNL     1     103.140 123.425 137.701  0.00  0.00    +0.000 A 
ATOM     19  C   UNL     1     103.920 123.563 137.470  0.00  0.00    +0.000 A 
BRANCH  18  20
ATOM     20  C   UNL     1     102.598 123.115 137.162  0.00  0.00    +0.000 C 
ATOM     21  C   UNL     1     102.826 122.979 136.381  0.00  0.00    +0.000 C 
ENDBRANCH  18  20
ENDBRANCH   5  14
BRANCH   8  22
ATOM     22  O   UNL     1     106.355 126.101 141.175  0.00  0.00    +0.000 OA
BRANCH  22  30
ATOM     23  O   UNL     1     106.137 125.992 142.583  0.00  0.00    +0.000 OA
ATOM     24  O   UNL     1     107.862 127.721 142.986  0.00  0.00    +0.000 OA
ATOM     25  O   UNL     1     107.505 127.254 141.444  0.00  0.00    +0.000 OA
ATOM     26  O   UNL     1     107.068 127.034 144.260  0.00  0.00    +0.000 OA
ATOM     27  C   UNL     1     107.287 127.144 142.852  0.00  0.00    +0.000 C 
ATOM     28  C   UNL     1     107.109 126.911 142.080  0.00  0.00    +0.000 C 
ATOM     29  C   UNL     1     106.890 126.801 143.488  0.00  0.00    +0.000 C 
ATOM     30  C   UNL     1     106.534 126.335 141.946  0.00  0.00    +0.000 C 
ATOM     31  C   UNL     1     106.315 126.225 143.354  0.00  0.00    +0.000 C 
BRANCH  31  34
ATOM     32  O   UNL     1     105.177 126.166 144.216  0.00  0.00    +0.000 OA
ATOM     33  O   UNL     1     106.262 125.256 144.402  0.00  0.00    +0.000 OA
ATOM     34  C   UNL     1     105.918 125.882 143.991  0.00  0.00    +0.000 C 
ENDBRANCH  31  34
ENDBRANCH  22  30
ENDBRANCH   8  22
TORSDOF 5
ENDMDL
MODEL 2
REMARK VINA RESULT:      -9.7      3.930      6.780
REMARK  Name = 131750799
REMARK  5 active torsions:
REMARK  status: ('A' for Active; 'I' for Inactive)
REMARK    1  A    between atoms: O_2  and  C_15
REMARK    2  A    between atoms: O_2  and  C_21
REMARK    3  A    between atoms: C_16  and  C_24
REMARK    4  A    between atoms: C_18  and  C_23
REMARK    5  A    between atoms: C_31  and  C_33
REMARK                            x       y       z     vdW  Elec       q    Type
REMARK                         _______ _______ _______ _____ _____    ______ ____
ROOT
ATOM      1  O   UNL     1     106.340 125.071 145.727  0.00  0.00    +0.000 OA
ATOM      2  O   UNL     1     106.844 126.916 146.778  0.00  0.00    +0.000 OA
ATOM      3  O   UNL     1     105.571 124.583 142.962  0.00  0.00    +0.000 OA
ATOM      4  C   UNL     1     106.624 126.398 146.176  0.00  0.00    +0.000 C 
ATOM      5  C   UNL     1     106.560 125.590 146.330  0.00  0.00    +0.000 C 
ATOM      6  C   UNL     1     106.467 126.687 145.419  0.00  0.00    +0.000 C 
ATOM      7  C   UNL     1     106.247 126.168 144.817  0.00  0.00    +0.000 A 
ATOM      8  C   UNL     1     106.086 126.482 144.033  0.00  0.00    +0.000 A 
ATOM      9  C   UNL     1     106.184 125.360 144.971  0.00  0.00    +0.000 A 
ATOM     10  C   UNL     1     105.857 125.946 143.402  0.00  0.00    +0.000 A 
ATOM     11  C   UNL     1     105.955 124.810 144.352  0.00  0.00    +0.000 A 
ATOM     12  C   UNL     1     105.791 125.105 143.562  0.00  0.00    +0.000 A 
ENDROOT
BRANCH   5  14
ATOM     13  O   UNL     1     105.626 124.564 148.828  0.00  0.00    +0.000 OA
ATOM     14  C   UNL     1     106.717 125.300 147.087  0.00  0.00    +0.000 A 
ATOM     15  C   UNL     1     106.094 125.077 147.579  0.00  0.00    +0.000 A 
ATOM     16  C   UNL     1     107.496 125.234 147.351  0.00  0.00    +0.000 A 
ATOM     17  C   UNL     1     106.249 124.787 148.336  0.00  0.00    +0.000 A 
ATOM     18  C   UNL     1     107.028 124.720 148.600  0.00  0.00    +0.000 A 
ATOM     19  C   UNL     1     107.651 124.944 148.107  0.00  0.00    +0.000 A 
BRANCH  18  20
ATOM     20  C   UNL     1     107.184 124.431 149.356  0.00  0.00    +0.000 C 
ATOM     21  C   UNL     1     107.963 124.344 149.612  0.00  0.00    +0.000 C 
ENDBRANCH  18  20
ENDBRANCH   5  14
BRANCH   8  22
ATOM     22  O   UNL     1     106.152 127.290 143.888  0.00  0.00    +0.000 OA
BRANCH  22  30
ATOM     23  O   UNL     1     107.302 127.317 143.040  0.00  0.00    +0.000 OA
ATOM     24  O   UNL     1     106.121 128.841 141.486  0.00  0.00    +0.000 OA
ATOM     25  O   UNL     1     105.365 128.305 142.852  0.00  0.00    +0.000 OA
ATOM     26  O   UNL     1     107.665 128.360 141.157  0.00  0.00    +0.000 OA
ATOM     27  C   UNL     1     106.515 128.333 142.005  0.00  0.00    +0.000 C 
ATOM     28  C   UNL     1     106.136 128.066 142.687  0.00  0.00    +0.000 C 
ATOM     29  C   UNL     1     107.286 128.093 141.840  0.00  0.00    +0.000 C 
ATOM     30  C   UNL     1     106.530 127.558 143.205  0.00  0.00    +0.000 C 
ATOM     31  C   UNL     1     107.680 127.585 142.357  0.00  0.00    +0.000 C 
BRANCH  31  34
ATOM     32  O   UNL     1     108.586 126.713 141.679  0.00  0.00    +0.000 OA
ATOM     33  O   UNL     1     109.089 127.735 142.541  0.00  0.00    +0.000 OA
ATOM     34  C   UNL     1     108.452 127.345 142.192  0.00  0.00    +0.000 C 
ENDBRANCH  31  34
ENDBRANCH  22  30
ENDBRANCH   8  22
TORSDOF 5
ENDMDL
MODEL 3
REMARK VINA RESULT:      -9.6      6.972      8.579
REMARK  Name = 131750799
REMARK  5 active torsions:
REMARK  status: ('A' for Active; 'I' for Inactive)
REMARK    1  A    between atoms: O_2  and  C_15
REMARK    2  A    between atoms: O_2  and  C_21
REMARK    3  A    between atoms: C_16  and  C_24
REMARK    4  A    between atoms: C_18  and  C_23
REMARK    5  A    between atoms: C_31  and  C_33
REMARK                            x       y       z     vdW  Elec       q    Type
REMARK                         _______ _______ _______ _____ _____    ______ ____
ROOT
ATOM      1  O   UNL     1     112.427 127.759 138.029  0.00  0.00    +0.000 OA
ATOM      2  O   UNL     1     113.574 126.432 139.329  0.00  0.00    +0.000 OA
ATOM      3  O   UNL     1     112.295 130.664 137.885  0.00  0.00    +0.000 OA
ATOM      4  C   UNL     1     113.273 127.119 138.988  0.00  0.00    +0.000 C 
ATOM      5  C   UNL     1     112.729 127.070 138.370  0.00  0.00    +0.000 C 
ATOM      6  C   UNL     1     113.516 127.858 139.265  0.00  0.00    +0.000 C 
ATOM      7  C   UNL     1     113.214 128.546 138.925  0.00  0.00    +0.000 A 
ATOM      8  C   UNL     1     113.475 129.309 139.223  0.00  0.00    +0.000 A 
ATOM      9  C   UNL     1     112.670 128.497 138.306  0.00  0.00    +0.000 A 
ATOM     10  C   UNL     1     113.165 130.029 138.871  0.00  0.00    +0.000 A 
ATOM     11  C   UNL     1     112.349 129.206 137.944  0.00  0.00    +0.000 A 
ATOM     12  C   UNL     1     112.598 129.977 138.228  0.00  0.00    +0.000 A 
ENDROOT
BRANCH   5  14
ATOM     13  O   UNL     1     110.902 124.874 138.456  0.00  0.00    +0.000 OA
ATOM     14  C   UNL     1     112.485 126.332 138.092  0.00  0.00    +0.000 A 
ATOM     15  C   UNL     1     111.816 125.972 138.413  0.00  0.00    +0.000 A 
ATOM     16  C   UNL     1     112.911 125.954 137.495  0.00  0.00    +0.000 A 
ATOM     17  C   UNL     1     111.572 125.234 138.136  0.00  0.00    +0.000 A 
ATOM     18  C   UNL     1     111.997 124.857 137.538  0.00  0.00    +0.000 A 
ATOM     19  C   UNL     1     112.667 125.217 137.218  0.00  0.00    +0.000 A 
BRANCH  18  20
ATOM     20  C   UNL     1     111.753 124.119 137.261  0.00  0.00    +0.000 C 
ATOM     21  C   UNL     1     112.161 123.756 136.642  0.00  0.00    +0.000 C 
ENDBRANCH  18  20
ENDBRANCH   5  14
BRANCH   8  22
ATOM     22  O   UNL     1     114.019 129.349 139.840  0.00  0.00    +0.000 OA
BRANCH  22  30
ATOM     23  O   UNL     1     113.218 129.922 140.876  0.00  0.00    +0.000 OA
ATOM     24  O   UNL     1     115.025 131.538 141.380  0.00  0.00    +0.000 OA
ATOM     25  O   UNL     1     115.223 130.426 140.176  0.00  0.00    +0.000 OA
ATOM     26  O   UNL     1     113.622 131.571 142.248  0.00  0.00    +0.000 OA
ATOM     27  C   UNL     1     114.423 130.999 141.212  0.00  0.00    +0.000 C 
ATOM     28  C   UNL     1     114.523 130.443 140.610  0.00  0.00    +0.000 C 
ATOM     29  C   UNL     1     113.722 131.016 141.646  0.00  0.00    +0.000 C 
ATOM     30  C   UNL     1     113.921 129.905 140.442  0.00  0.00    +0.000 C 
ATOM     31  C   UNL     1     113.120 130.477 141.478  0.00  0.00    +0.000 C 
BRANCH  31  34
ATOM     32  O   UNL     1     112.305 129.963 142.533  0.00  0.00    +0.000 OA
ATOM     33  O   UNL     1     111.830 131.041 141.725  0.00  0.00    +0.000 OA
ATOM     34  C   UNL     1     112.418 130.494 141.912  0.00  0.00    +0.000 C 
ENDBRANCH  31  34
ENDBRANCH  22  30
ENDBRANCH   8  22
TORSDOF 5
ENDMDL
MODEL 4
REMARK VINA RESULT:      -9.5      7.500      9.233
REMARK  Name = 131750799
REMARK  5 active torsions:
REMARK  status: ('A' for Active; 'I' for Inactive)
REMARK    1  A    between atoms: O_2  and  C_15
REMARK    2  A    between atoms: O_2  and  C_21
REMARK    3  A    between atoms: C_16  and  C_24
REMARK    4  A    between atoms: C_18  and  C_23
REMARK    5  A    between atoms: C_31  and  C_33
REMARK                            x       y       z     vdW  Elec       q    Type
REMARK                         _______ _______ _______ _____ _____    ______ ____
ROOT
ATOM      1  O   UNL     1     113.003 128.435 136.924  0.00  0.00    +0.000 OA
ATOM      2  O   UNL     1     111.713 126.793 136.289  0.00  0.00    +0.000 OA
ATOM      3  O   UNL     1     112.666 131.321 136.750  0.00  0.00    +0.000 OA
ATOM      4  C   UNL     1     111.991 127.556 136.425  0.00  0.00    +0.000 C 
ATOM      5  C   UNL     1     112.723 127.670 136.788  0.00  0.00    +0.000 C 
ATOM      6  C   UNL     1     111.538 128.208 136.199  0.00  0.00    +0.000 C 
ATOM      7  C   UNL     1     111.817 128.972 136.335  0.00  0.00    +0.000 A 
ATOM      8  C   UNL     1     111.335 129.642 136.095  0.00  0.00    +0.000 A 
ATOM      9  C   UNL     1     112.550 129.086 136.698  0.00  0.00    +0.000 A 
ATOM     10  C   UNL     1     111.621 130.441 136.234  0.00  0.00    +0.000 A 
ATOM     11  C   UNL     1     112.851 129.876 136.845  0.00  0.00    +0.000 A 
ATOM     12  C   UNL     1     112.384 130.558 136.612  0.00  0.00    +0.000 A 
ENDROOT
BRANCH   5  14
ATOM     13  O   UNL     1     113.585 125.836 138.803  0.00  0.00    +0.000 OA
ATOM     14  C   UNL     1     113.177 127.019 137.014  0.00  0.00    +0.000 A 
ATOM     15  C   UNL     1     113.155 126.753 137.795  0.00  0.00    +0.000 A 
ATOM     16  C   UNL     1     113.654 126.635 136.461  0.00  0.00    +0.000 A 
ATOM     17  C   UNL     1     113.608 126.102 138.022  0.00  0.00    +0.000 A 
ATOM     18  C   UNL     1     114.084 125.718 137.469  0.00  0.00    +0.000 A 
ATOM     19  C   UNL     1     114.107 125.984 136.688  0.00  0.00    +0.000 A 
BRANCH  18  20
ATOM     20  C   UNL     1     114.538 125.067 137.697  0.00  0.00    +0.000 C 
ATOM     21  C   UNL     1     114.950 124.634 137.129  0.00  0.00    +0.000 C 
ENDBRANCH  18  20
ENDBRANCH   5  14
BRANCH   8  22
ATOM     22  O   UNL     1     110.605 129.520 135.733  0.00  0.00    +0.000 OA
BRANCH  22  30
ATOM     23  O   UNL     1     109.793 130.041 136.787  0.00  0.00    +0.000 OA
ATOM     24  O   UNL     1     108.266 131.044 135.116  0.00  0.00    +0.000 OA
ATOM     25  O   UNL     1     109.588 130.188 134.619  0.00  0.00    +0.000 OA
ATOM     26  O   UNL     1     107.964 131.230 136.727  0.00  0.00    +0.000 OA
ATOM     27  C   UNL     1     108.776 130.709 135.673  0.00  0.00    +0.000 C 
ATOM     28  C   UNL     1     109.436 130.282 135.424  0.00  0.00    +0.000 C 
ATOM     29  C   UNL     1     108.624 130.803 136.478  0.00  0.00    +0.000 C 
ATOM     30  C   UNL     1     109.945 129.948 135.981  0.00  0.00    +0.000 C 
ATOM     31  C   UNL     1     109.133 130.469 137.035  0.00  0.00    +0.000 C 
BRANCH  31  34
ATOM     32  O   UNL     1     108.656 129.940 138.274  0.00  0.00    +0.000 OA
ATOM     33  O   UNL     1     109.154 131.277 138.213  0.00  0.00    +0.000 OA
ATOM     34  C   UNL     1     108.981 130.562 137.841  0.00  0.00    +0.000 C 
ENDBRANCH  31  34
ENDBRANCH  22  30
ENDBRANCH   8  22
TORSDOF 5
ENDMDL
MODEL 5
REMARK VINA RESULT:      -9.5      7.561      8.991
REMARK  Name = 131750799
REMARK  5 active torsions:
REMARK  status: ('A' for Active; 'I' for Inactive)
REMARK    1  A    between atoms: O_2  and  C_15
REMARK    2  A    between atoms: O_2  and  C_21
REMARK    3  A    between atoms: C_16  and  C_24
REMARK    4  A    between atoms: C_18  and  C_23
REMARK    5  A    between atoms: C_31  and  C_33
REMARK                            x       y       z     vdW  Elec       q    Type
REMARK                         _______ _______ _______ _____ _____    ______ ____
ROOT
ATOM      1  O   UNL     1     112.062 127.976 136.173  0.00  0.00    +0.000 OA
ATOM      2  O   UNL     1     113.058 128.187 138.104  0.00  0.00    +0.000 OA
ATOM      3  O   UNL     1     110.446 129.842 134.630  0.00  0.00    +0.000 OA
ATOM      4  C   UNL     1     112.611 128.365 137.434  0.00  0.00    +0.000 C 
ATOM      5  C   UNL     1     112.509 127.798 136.844  0.00  0.00    +0.000 C 
ATOM      6  C   UNL     1     112.266 129.111 137.354  0.00  0.00    +0.000 C 
ATOM      7  C   UNL     1     111.819 129.288 136.683  0.00  0.00    +0.000 A 
ATOM      8  C   UNL     1     111.465 130.068 136.612  0.00  0.00    +0.000 A 
ATOM      9  C   UNL     1     111.717 128.721 136.093  0.00  0.00    +0.000 A 
ATOM     10  C   UNL     1     110.999 130.258 135.916  0.00  0.00    +0.000 A 
ATOM     11  C   UNL     1     111.254 128.893 135.391  0.00  0.00    +0.000 A 
ATOM     12  C   UNL     1     110.892 129.667 135.301  0.00  0.00    +0.000 A 
ENDROOT
BRANCH   5  14
ATOM     13  O   UNL     1     112.316 125.053 137.617  0.00  0.00    +0.000 OA
ATOM     14  C   UNL     1     112.853 127.052 136.924  0.00  0.00    +0.000 A 
ATOM     15  C   UNL     1     112.413 126.425 137.230  0.00  0.00    +0.000 A 
ATOM     16  C   UNL     1     113.638 126.933 136.697  0.00  0.00    +0.000 A 
ATOM     17  C   UNL     1     112.756 125.680 137.310  0.00  0.00    +0.000 A 
ATOM     18  C   UNL     1     113.541 125.561 137.084  0.00  0.00    +0.000 A 
ATOM     19  C   UNL     1     113.981 126.187 136.777  0.00  0.00    +0.000 A 
BRANCH  18  20
ATOM     20  C   UNL     1     113.884 124.815 137.164  0.00  0.00    +0.000 C 
ATOM     21  C   UNL     1     114.704 124.733 137.122  0.00  0.00    +0.000 C 
ENDBRANCH  18  20
ENDBRANCH   5  14
BRANCH   8  22
ATOM     22  O   UNL     1     111.572 130.629 137.206  0.00  0.00    +0.000 OA
BRANCH  22  30
ATOM     23  O   UNL     1     110.218 130.751 137.645  0.00  0.00    +0.000 OA
ATOM     24  O   UNL     1     110.485 133.209 137.783  0.00  0.00    +0.000 OA
ATOM     25  O   UNL     1     111.750 132.267 137.298  0.00  0.00    +0.000 OA
ATOM     26  O   UNL     1     109.041 132.511 138.176  0.00  0.00    +0.000 OA
ATOM     27  C   UNL     1     110.396 132.389 137.737  0.00  0.00    +0.000 C 
ATOM     28  C   UNL     1     111.029 131.919 137.494  0.00  0.00    +0.000 C 
ATOM     29  C   UNL     1     109.675 132.041 137.933  0.00  0.00    +0.000 C 
ATOM     30  C   UNL     1     110.940 131.100 137.448  0.00  0.00    +0.000 C 
ATOM     31  C   UNL     1     109.586 131.222 137.887  0.00  0.00    +0.000 C 
BRANCH  31  34
ATOM     32  O   UNL     1     108.249 130.862 137.534  0.00  0.00    +0.000 OA
ATOM     33  O   UNL     1     108.757 130.538 138.829  0.00  0.00    +0.000 OA
ATOM     34  C   UNL     1     108.864 130.873 138.084  0.00  0.00    +0.000 C 
ENDBRANCH  31  34
ENDBRANCH  22  30
ENDBRANCH   8  22
TORSDOF 5
ENDMDL
MODEL 6
REMARK VINA RESULT:      -9.5      8.062      9.368
REMARK  Name = 131750799
REMARK  5 active torsions:
REMARK  status: ('A' for Active; 'I' for Inactive)
REMARK    1  A    between atoms: O_2  and  C_15
REMARK    2  A    between atoms: O_2  and  C_21
REMARK    3  A    between atoms: C_16  and  C_24
REMARK    4  A    between atoms: C_18  and  C_23
REMARK    5  A    between atoms: C_31  and  C_33
REMARK                            x       y       z     vdW  Elec       q    Type
REMARK                         _______ _______ _______ _____ _____    ______ ____
ROOT
ATOM      1  O   UNL     1     113.246 127.378 136.189  0.00  0.00    +0.000 OA
ATOM      2  O   UNL     1     112.070 126.976 137.983  0.00  0.00    +0.000 OA
ATOM      3  O   UNL     1     113.962 129.879 134.881  0.00  0.00    +0.000 OA
ATOM      4  C   UNL     1     112.450 127.384 137.377  0.00  0.00    +0.000 C 
ATOM      5  C   UNL     1     112.865 126.969 136.797  0.00  0.00    +0.000 C 
ATOM      6  C   UNL     1     112.416 128.209 137.349  0.00  0.00    +0.000 C 
ATOM      7  C   UNL     1     112.797 128.616 136.742  0.00  0.00    +0.000 A 
ATOM      8  C   UNL     1     112.754 129.475 136.724  0.00  0.00    +0.000 A 
ATOM      9  C   UNL     1     113.212 128.202 136.162  0.00  0.00    +0.000 A 
ATOM     10  C   UNL     1     113.148 129.906 136.094  0.00  0.00    +0.000 A 
ATOM     11  C   UNL     1     113.612 128.615 135.524  0.00  0.00    +0.000 A 
ATOM     12  C   UNL     1     113.580 129.473 135.490  0.00  0.00    +0.000 A 
ENDROOT
BRANCH   5  14
ATOM     13  O   UNL     1     114.265 124.573 137.480  0.00  0.00    +0.000 OA
ATOM     14  C   UNL     1     112.899 126.145 136.824  0.00  0.00    +0.000 A 
ATOM     15  C   UNL     1     113.564 125.771 137.138  0.00  0.00    +0.000 A 
ATOM     16  C   UNL     1     112.270 125.695 136.537  0.00  0.00    +0.000 A 
ATOM     17  C   UNL     1     113.600 124.947 137.166  0.00  0.00    +0.000 A 
ATOM     18  C   UNL     1     112.970 124.497 136.879  0.00  0.00    +0.000 A 
ATOM     19  C   UNL     1     112.305 124.872 136.565  0.00  0.00    +0.000 A 
BRANCH  18  20
ATOM     20  C   UNL     1     113.006 123.674 136.906  0.00  0.00    +0.000 C 
ATOM     21  C   UNL     1     112.309 123.232 136.912  0.00  0.00    +0.000 C 
ENDBRANCH  18  20
ENDBRANCH   5  14
BRANCH   8  22
ATOM     22  O   UNL     1     112.337 129.882 137.307  0.00  0.00    +0.000 OA
BRANCH  22  30
ATOM     23  O   UNL     1     111.165 130.227 136.566  0.00  0.00    +0.000 OA
ATOM     24  O   UNL     1     111.238 132.513 137.514  0.00  0.00    +0.000 OA
ATOM     25  O   UNL     1     112.386 131.405 137.939  0.00  0.00    +0.000 OA
ATOM     26  O   UNL     1     110.042 132.095 136.457  0.00  0.00    +0.000 OA
ATOM     27  C   UNL     1     111.214 131.750 137.198  0.00  0.00    +0.000 C 
ATOM     28  C   UNL     1     111.788 131.197 137.411  0.00  0.00    +0.000 C 
ATOM     29  C   UNL     1     110.616 131.542 136.670  0.00  0.00    +0.000 C 
ATOM     30  C   UNL     1     111.764 130.435 137.095  0.00  0.00    +0.000 C 
ATOM     31  C   UNL     1     110.592 130.781 136.354  0.00  0.00    +0.000 C 
BRANCH  31  34
ATOM     32  O   UNL     1     110.090 130.710 135.018  0.00  0.00    +0.000 OA
ATOM     33  O   UNL     1     109.299 130.226 136.104  0.00  0.00    +0.000 OA
ATOM     34  C   UNL     1     109.993 130.572 135.825  0.00  0.00    +0.000 C 
ENDBRANCH  31  34
ENDBRANCH  22  30
ENDBRANCH   8  22
TORSDOF 5
ENDMDL
MODEL 7
REMARK VINA RESULT:      -9.4      6.410      7.812
REMARK  Name = 131750799
REMARK  5 active torsions:
REMARK  status: ('A' for Active; 'I' for Inactive)
REMARK    1  A    between atoms: O_2  and  C_15
REMARK    2  A    between atoms: O_2  and  C_21
REMARK    3  A    between atoms: C_16  and  C_24
REMARK    4  A    between atoms: C_18  and  C_23
REMARK    5  A    between atoms: C_31  and  C_33
REMARK                            x       y       z     vdW  Elec       q    Type
REMARK                         _______ _______ _______ _____ _____    ______ ____
ROOT
ATOM      1  O   UNL     1     112.319 126.633 139.661  0.00  0.00    +0.000 OA
ATOM      2  O   UNL     1     113.012 127.853 137.989  0.00  0.00    +0.000 OA
ATOM      3  O   UNL     1     110.977 127.356 142.141  0.00  0.00    +0.000 OA
ATOM      4  C   UNL     1     112.674 127.640 138.710  0.00  0.00    +0.000 C 
ATOM      5  C   UNL     1     112.657 126.847 138.939  0.00  0.00    +0.000 C 
ATOM      6  C   UNL     1     112.353 128.218 139.204  0.00  0.00    +0.000 C 
ATOM      7  C   UNL     1     112.016 128.004 139.925  0.00  0.00    +0.000 A 
ATOM      8  C   UNL     1     111.685 128.616 140.430  0.00  0.00    +0.000 A 
ATOM      9  C   UNL     1     111.998 127.211 140.154  0.00  0.00    +0.000 A 
ATOM     10  C   UNL     1     111.332 128.399 141.182  0.00  0.00    +0.000 A 
ATOM     11  C   UNL     1     111.649 126.976 140.902  0.00  0.00    +0.000 A 
ATOM     12  C   UNL     1     111.314 127.574 141.420  0.00  0.00    +0.000 A 
ENDROOT
BRANCH   5  14
ATOM     13  O   UNL     1     114.893 125.284 138.088  0.00  0.00    +0.000 OA
ATOM     14  C   UNL     1     112.977 126.268 138.446  0.00  0.00    +0.000 A 
ATOM     15  C   UNL     1     113.774 126.065 138.513  0.00  0.00    +0.000 A 
ATOM     16  C   UNL     1     112.502 125.891 137.887  0.00  0.00    +0.000 A 
ATOM     17  C   UNL     1     114.096 125.486 138.021  0.00  0.00    +0.000 A 
ATOM     18  C   UNL     1     113.620 125.110 137.462  0.00  0.00    +0.000 A 
ATOM     19  C   UNL     1     112.823 125.312 137.395  0.00  0.00    +0.000 A 
BRANCH  18  20
ATOM     20  C   UNL     1     113.941 124.531 136.970  0.00  0.00    +0.000 C 
ATOM     21  C   UNL     1     113.461 124.144 136.421  0.00  0.00    +0.000 C 
ENDBRANCH  18  20
ENDBRANCH   5  14
BRANCH   8  22
ATOM     22  O   UNL     1     111.707 129.405 140.194  0.00  0.00    +0.000 OA
BRANCH  22  30
ATOM     23  O   UNL     1     110.316 129.644 139.970  0.00  0.00    +0.000 OA
ATOM     24  O   UNL     1     110.488 131.789 141.195  0.00  0.00    +0.000 OA
ATOM     25  O   UNL     1     111.821 130.835 141.010  0.00  0.00    +0.000 OA
ATOM     26  O   UNL     1     109.039 131.313 140.563  0.00  0.00    +0.000 OA
ATOM     27  C   UNL     1     110.430 131.074 140.786  0.00  0.00    +0.000 C 
ATOM     28  C   UNL     1     111.098 130.597 140.694  0.00  0.00    +0.000 C 
ATOM     29  C   UNL     1     109.707 130.836 140.471  0.00  0.00    +0.000 C 
ATOM     30  C   UNL     1     111.040 129.882 140.286  0.00  0.00    +0.000 C 
ATOM     31  C   UNL     1     109.649 130.122 140.063  0.00  0.00    +0.000 C 
BRANCH  31  34
ATOM     32  O   UNL     1     108.762 130.011 138.948  0.00  0.00    +0.000 OA
ATOM     33  O   UNL     1     108.365 129.519 140.228  0.00  0.00    +0.000 OA
ATOM     34  C   UNL     1     108.925 129.884 139.746  0.00  0.00    +0.000 C 
ENDBRANCH  31  34
ENDBRANCH  22  30
ENDBRANCH   8  22
TORSDOF 5
ENDMDL
MODEL 8
REMARK VINA RESULT:      -9.4      2.611      6.739
REMARK  Name = 131750799
REMARK  5 active torsions:
REMARK  status: ('A' for Active; 'I' for Inactive)
REMARK    1  A    between atoms: O_2  and  C_15
REMARK    2  A    between atoms: O_2  and  C_21
REMARK    3  A    between atoms: C_16  and  C_24
REMARK    4  A    between atoms: C_18  and  C_23
REMARK    5  A    between atoms: C_31  and  C_33
REMARK                            x       y       z     vdW  Elec       q    Type
REMARK                         _______ _______ _______ _____ _____    ______ ____
ROOT
ATOM      1  O   UNL     1     106.666 126.415 145.725  0.00  0.00    +0.000 OA
ATOM      2  O   UNL     1     105.908 124.369 145.739  0.00  0.00    +0.000 OA
ATOM      3  O   UNL     1     106.880 128.370 143.578  0.00  0.00    +0.000 OA
ATOM      4  C   UNL     1     106.122 125.118 145.471  0.00  0.00    +0.000 C 
ATOM      5  C   UNL     1     106.451 125.665 145.993  0.00  0.00    +0.000 C 
ATOM      6  C   UNL     1     106.008 125.321 144.679  0.00  0.00    +0.000 C 
ATOM      7  C   UNL     1     106.223 126.071 144.411  0.00  0.00    +0.000 A 
ATOM      8  C   UNL     1     106.099 126.270 143.584  0.00  0.00    +0.000 A 
ATOM      9  C   UNL     1     106.552 126.618 144.933  0.00  0.00    +0.000 A 
ATOM     10  C   UNL     1     106.321 127.050 143.298  0.00  0.00    +0.000 A 
ATOM     11  C   UNL     1     106.780 127.402 144.666  0.00  0.00    +0.000 A 
ATOM     12  C   UNL     1     106.664 127.619 143.843  0.00  0.00    +0.000 A 
ENDROOT
BRANCH   5  14
ATOM     13  O   UNL     1     105.443 125.435 148.658  0.00  0.00    +0.000 OA
ATOM     14  C   UNL     1     106.565 125.463 146.785  0.00  0.00    +0.000 A 
ATOM     15  C   UNL     1     105.948 125.550 147.326  0.00  0.00    +0.000 A 
ATOM     16  C   UNL     1     107.296 125.173 147.037  0.00  0.00    +0.000 A 
ATOM     17  C   UNL     1     106.061 125.348 148.117  0.00  0.00    +0.000 A 
ATOM     18  C   UNL     1     106.792 125.059 148.369  0.00  0.00    +0.000 A 
ATOM     19  C   UNL     1     107.409 124.971 147.828  0.00  0.00    +0.000 A 
BRANCH  18  20
ATOM     20  C   UNL     1     106.905 124.857 149.161  0.00  0.00    +0.000 C 
ATOM     21  C   UNL     1     107.597 124.471 149.393  0.00  0.00    +0.000 C 
ENDBRANCH  18  20
ENDBRANCH   5  14
BRANCH   8  22
ATOM     22  O   UNL     1     105.770 125.718 143.068  0.00  0.00    +0.000 OA
BRANCH  22  30
ATOM     23  O   UNL     1     106.888 125.378 142.245  0.00  0.00    +0.000 OA
ATOM     24  O   UNL     1     105.501 125.722 140.222  0.00  0.00    +0.000 OA
ATOM     25  O   UNL     1     104.847 125.947 141.721  0.00  0.00    +0.000 OA
ATOM     26  O   UNL     1     107.081 125.267 140.074  0.00  0.00    +0.000 OA
ATOM     27  C   UNL     1     105.964 125.607 140.897  0.00  0.00    +0.000 C 
ATOM     28  C   UNL     1     105.636 125.720 141.646  0.00  0.00    +0.000 C 
ATOM     29  C   UNL     1     106.753 125.380 140.822  0.00  0.00    +0.000 C 
ATOM     30  C   UNL     1     106.097 125.605 142.320  0.00  0.00    +0.000 C 
ATOM     31  C   UNL     1     107.215 125.265 141.496  0.00  0.00    +0.000 C 
BRANCH  31  34
ATOM     32  O   UNL     1     108.204 124.237 141.415  0.00  0.00    +0.000 OA
ATOM     33  O   UNL     1     108.594 125.610 141.353  0.00  0.00    +0.000 OA
ATOM     34  C   UNL     1     108.005 125.038 141.421  0.00  0.00    +0.000 C 
ENDBRANCH  31  34
ENDBRANCH  22  30
ENDBRANCH   8  22
TORSDOF 5
ENDMDL
MODEL 9
REMARK VINA RESULT:      -9.4      6.419      7.395
REMARK  Name = 131750799
REMARK  5 active torsions:
REMARK  status: ('A' for Active; 'I' for Inactive)
REMARK    1  A    between atoms: O_2  and  C_15
REMARK    2  A    between atoms: O_2  and  C_21
REMARK    3  A    between atoms: C_16  and  C_24
REMARK    4  A    between atoms: C_18  and  C_23
REMARK    5  A    between atoms: C_31  and  C_33
REMARK                            x       y       z     vdW  Elec       q    Type
REMARK                         _______ _______ _______ _____ _____    ______ ____
ROOT
ATOM      1  O   UNL     1     112.759 126.375 139.029  0.00  0.00    +0.000 OA
ATOM      2  O   UNL     1     110.587 126.585 139.069  0.00  0.00    +0.000 OA
ATOM      3  O   UNL     1     114.802 127.169 140.945  0.00  0.00    +0.000 OA
ATOM      4  C   UNL     1     111.378 126.631 139.295  0.00  0.00    +0.000 C 
ATOM      5  C   UNL     1     111.967 126.329 138.803  0.00  0.00    +0.000 C 
ATOM      6  C   UNL     1     111.582 126.979 140.016  0.00  0.00    +0.000 C 
ATOM      7  C   UNL     1     112.374 127.025 140.242  0.00  0.00    +0.000 A 
ATOM      8  C   UNL     1     112.573 127.390 140.994  0.00  0.00    +0.000 A 
ATOM      9  C   UNL     1     112.963 126.722 139.749  0.00  0.00    +0.000 A 
ATOM     10  C   UNL     1     113.397 127.440 141.235  0.00  0.00    +0.000 A 
ATOM     11  C   UNL     1     113.791 126.764 139.974  0.00  0.00    +0.000 A 
ATOM     12  C   UNL     1     114.009 127.125 140.722  0.00  0.00    +0.000 A 
ENDROOT
BRANCH   5  14
ATOM     13  O   UNL     1     111.514 123.987 137.227  0.00  0.00    +0.000 OA
ATOM     14  C   UNL     1     111.764 125.981 138.082  0.00  0.00    +0.000 A 
ATOM     15  C   UNL     1     111.740 125.158 138.015  0.00  0.00    +0.000 A 
ATOM     16  C   UNL     1     111.584 126.453 137.431  0.00  0.00    +0.000 A 
ATOM     17  C   UNL     1     111.538 124.810 137.295  0.00  0.00    +0.000 A 
ATOM     18  C   UNL     1     111.358 125.282 136.643  0.00  0.00    +0.000 A 
ATOM     19  C   UNL     1     111.381 126.105 136.711  0.00  0.00    +0.000 A 
BRANCH  18  20
ATOM     20  C   UNL     1     111.155 124.934 135.924  0.00  0.00    +0.000 C 
ATOM     21  C   UNL     1     110.732 125.364 135.362  0.00  0.00    +0.000 C 
ENDBRANCH  18  20
ENDBRANCH   5  14
BRANCH   8  22
ATOM     22  O   UNL     1     111.979 127.689 141.480  0.00  0.00    +0.000 OA
BRANCH  22  30
ATOM     23  O   UNL     1     112.289 129.077 141.340  0.00  0.00    +0.000 OA
ATOM     24  O   UNL     1     111.823 129.424 143.747  0.00  0.00    +0.000 OA
ATOM     25  O   UNL     1     111.669 127.920 143.084  0.00  0.00    +0.000 OA
ATOM     26  O   UNL     1     112.288 130.696 142.804  0.00  0.00    +0.000 OA
ATOM     27  C   UNL     1     111.978 129.308 142.944  0.00  0.00    +0.000 C 
ATOM     28  C   UNL     1     111.901 128.556 142.614  0.00  0.00    +0.000 C 
ATOM     29  C   UNL     1     112.210 129.944 142.473  0.00  0.00    +0.000 C 
ATOM     30  C   UNL     1     112.056 128.440 141.812  0.00  0.00    +0.000 C 
ATOM     31  C   UNL     1     112.366 129.828 141.671  0.00  0.00    +0.000 C 
BRANCH  31  34
ATOM     32  O   UNL     1     112.046 130.845 140.719  0.00  0.00    +0.000 OA
ATOM     33  O   UNL     1     113.381 130.720 141.209  0.00  0.00    +0.000 OA
ATOM     34  C   UNL     1     112.598 130.465 141.200  0.00  0.00    +0.000 C 
ENDBRANCH  31  34
ENDBRANCH  22  30
ENDBRANCH   8  22
TORSDOF 5
ENDMDL
MODEL 10
REMARK VINA RESULT:      -9.4      6.982      8.284
REMARK  Name = 131750799
REMARK  5 active torsions:
REMARK  status: ('A' for Active; 'I' for Inactive)
REMARK    1  A    between atoms: O_2  and  C_15
REMARK    2  A    between atoms: O_2  and  C_21
REMARK    3  A    between atoms: C_16  and  C_24
REMARK    4  A    between atoms: C_18  and  C_23
REMARK    5  A    between atoms: C_31  and  C_33
REMARK                            x       y       z     vdW  Elec       q    Type
REMARK                         _______ _______ _______ _____ _____    ______ ____
ROOT
ATOM      1  O   UNL     1     110.704 129.328 135.838  0.00  0.00    +0.000 OA
ATOM      2  O   UNL     1     108.723 128.488 135.470  0.00  0.00    +0.000 OA
ATOM      3  O   UNL     1     113.276 128.050 136.312  0.00  0.00    +0.000 OA
ATOM      4  C   UNL     1     109.532 128.539 135.620  0.00  0.00    +0.000 C 
ATOM      5  C   UNL     1     109.894 129.277 135.688  0.00  0.00    +0.000 C 
ATOM      6  C   UNL     1     109.981 127.851 135.702  0.00  0.00    +0.000 C 
ATOM      7  C   UNL     1     110.790 127.903 135.852  0.00  0.00    +0.000 A 
ATOM      8  C   UNL     1     111.247 127.179 135.936  0.00  0.00    +0.000 A 
ATOM      9  C   UNL     1     111.152 128.641 135.920  0.00  0.00    +0.000 A 
ATOM     10  C   UNL     1     112.090 127.226 136.092  0.00  0.00    +0.000 A 
ATOM     11  C   UNL     1     111.994 128.707 136.076  0.00  0.00    +0.000 A 
ATOM     12  C   UNL     1     112.466 127.995 136.162  0.00  0.00    +0.000 A 
ENDROOT
BRANCH   5  14
ATOM     13  O   UNL     1     108.174 131.260 136.820  0.00  0.00    +0.000 OA
ATOM     14  C   UNL     1     109.446 129.965 135.606  0.00  0.00    +0.000 A 
ATOM     15  C   UNL     1     109.034 130.269 136.253  0.00  0.00    +0.000 A 
ATOM     16  C   UNL     1     109.409 130.351 134.877  0.00  0.00    +0.000 A 
ATOM     17  C   UNL     1     108.586 130.956 136.172  0.00  0.00    +0.000 A 
ATOM     18  C   UNL     1     108.549 131.342 135.444  0.00  0.00    +0.000 A 
ATOM     19  C   UNL     1     108.961 131.038 134.796  0.00  0.00    +0.000 A 
BRANCH  18  20
ATOM     20  C   UNL     1     108.101 132.029 135.362  0.00  0.00    +0.000 C 
ATOM     21  C   UNL     1     107.968 132.348 134.613  0.00  0.00    +0.000 C 
ENDBRANCH  18  20
ENDBRANCH   5  14
BRANCH   8  22
ATOM     22  O   UNL     1     110.878 126.445 135.866  0.00  0.00    +0.000 OA
BRANCH  22  30
ATOM     23  O   UNL     1     111.017 125.972 137.208  0.00  0.00    +0.000 OA
ATOM     24  O   UNL     1     111.705 123.752 136.353  0.00  0.00    +0.000 OA
ATOM     25  O   UNL     1     111.337 124.966 135.297  0.00  0.00    +0.000 OA
ATOM     26  O   UNL     1     111.615 124.020 137.979  0.00  0.00    +0.000 OA
ATOM     27  C   UNL     1     111.476 124.493 136.638  0.00  0.00    +0.000 C 
ATOM     28  C   UNL     1     111.291 125.099 136.109  0.00  0.00    +0.000 C 
ATOM     29  C   UNL     1     111.430 124.626 137.451  0.00  0.00    +0.000 C 
ATOM     30  C   UNL     1     111.062 125.839 136.394  0.00  0.00    +0.000 C 
ATOM     31  C   UNL     1     111.201 125.365 137.735  0.00  0.00    +0.000 C 
BRANCH  31  34
ATOM     32  O   UNL     1     110.434 125.418 138.940  0.00  0.00    +0.000 OA
ATOM     33  O   UNL     1     111.831 125.713 138.969  0.00  0.00    +0.000 OA
ATOM     34  C   UNL     1     111.156 125.499 138.549  0.00  0.00    +0.000 C 
ENDBRANCH  31  34
ENDBRANCH  22  30
ENDBRANCH   8  22
TORSDOF 5
ENDMDL
