MODEL 1
REMARK VINA RESULT:     -11.4      0.000      0.000
REMARK  Name = 131832480
REMARK  4 active torsions:
REMARK  status: ('A' for Active; 'I' for Inactive)
REMARK    1  A    between atoms: O_3  and  C_19
REMARK    2  A    between atoms: O_3  and  C_28
REMARK    3  A    between atoms: C_20  and  C_29
REMARK    4  A    between atoms: C_27  and  C_31
REMARK                            x       y       z     vdW  Elec       q    Type
REMARK                         _______ _______ _______ _____ _____    ______ ____
ROOT
ATOM      1  O   UNL     1     105.816 124.322 147.687  0.00  0.00    +0.000 OA
ATOM      2  O   UNL     1     107.159 125.792 146.215  0.00  0.00    +0.000 OA
ATOM      3  O   UNL     1     108.261 125.765 147.145  0.00  0.00    +0.000 OA
ATOM      4  O   UNL     1     107.999 124.221 149.612  0.00  0.00    +0.000 OA
ATOM      5  C   UNL     1     105.949 125.079 146.481  0.00  0.00    +0.000 A 
ATOM      6  C   UNL     1     105.501 124.589 146.972  0.00  0.00    +0.000 A 
ATOM      7  C   UNL     1     106.711 125.302 146.706  0.00  0.00    +0.000 A 
ATOM      8  C   UNL     1     107.025 125.035 147.420  0.00  0.00    +0.000 A 
ATOM      9  C   UNL     1     106.578 124.546 147.910  0.00  0.00    +0.000 A 
ATOM     10  C   UNL     1     107.821 125.274 147.642  0.00  0.00    +0.000 A 
ATOM     11  C   UNL     1     106.894 124.261 148.657  0.00  0.00    +0.000 A 
ATOM     12  C   UNL     1     108.154 125.000 148.385  0.00  0.00    +0.000 A 
ATOM     13  C   UNL     1     107.687 124.490 148.896  0.00  0.00    +0.000 A 
ENDROOT
BRANCH   6  24
ATOM     14  O   UNL     1     102.392 123.698 146.077  0.00  0.00    +0.000 OA
ATOM     15  O   UNL     1     101.202 124.819 147.524  0.00  0.00    +0.000 OA
ATOM     16  C   UNL     1     101.740 123.998 146.485  0.00  0.00    +0.000 C 
ATOM     17  C   UNL     1     101.853 124.519 147.115  0.00  0.00    +0.000 C 
ATOM     18  C   UNL     1     102.616 124.739 147.337  0.00  0.00    +0.000 C 
ATOM     19  C   UNL     1     103.267 124.439 146.929  0.00  0.00    +0.000 A 
ATOM     20  C   UNL     1     103.155 123.918 146.299  0.00  0.00    +0.000 A 
ATOM     21  C   UNL     1     100.924 124.045 146.593  0.00  0.00    +0.000 C 
ATOM     22  C   UNL     1     101.235 123.570 145.993  0.00  0.00    +0.000 C 
ATOM     23  C   UNL     1     104.057 124.676 147.169  0.00  0.00    +0.000 A 
ATOM     24  C   UNL     1     104.739 124.367 146.748  0.00  0.00    +0.000 A 
ATOM     25  C   UNL     1     103.824 123.599 145.866  0.00  0.00    +0.000 A 
ATOM     26  C   UNL     1     104.623 123.824 146.092  0.00  0.00    +0.000 A 
ENDBRANCH   6  24
BRANCH   5  27
ATOM     27  O   UNL     1     105.635 125.346 145.767  0.00  0.00    +0.000 OA
BRANCH  27  35
ATOM     28  O   UNL     1     105.386 126.666 146.256  0.00  0.00    +0.000 OA
ATOM     29  O   UNL     1     105.636 127.562 143.962  0.00  0.00    +0.000 OA
ATOM     30  O   UNL     1     105.801 125.944 144.238  0.00  0.00    +0.000 OA
ATOM     31  O   UNL     1     105.304 128.583 145.216  0.00  0.00    +0.000 OA
ATOM     32  C   UNL     1     105.553 127.263 144.727  0.00  0.00    +0.000 C 
ATOM     33  C   UNL     1     105.635 126.453 144.865  0.00  0.00    +0.000 C 
ATOM     34  C   UNL     1     105.387 127.773 145.354  0.00  0.00    +0.000 C 
ATOM     35  C   UNL     1     105.552 126.155 145.629  0.00  0.00    +0.000 C 
ATOM     36  C   UNL     1     105.304 127.474 146.118  0.00  0.00    +0.000 C 
BRANCH  36  39
ATOM     37  O   UNL     1     104.374 128.029 147.051  0.00  0.00    +0.000 OA
ATOM     38  O   UNL     1     105.737 128.453 147.064  0.00  0.00    +0.000 OA
ATOM     39  C   UNL     1     105.138 127.985 146.745  0.00  0.00    +0.000 C 
ENDBRANCH  36  39
ENDBRANCH  27  35
ENDBRANCH   5  27
TORSDOF 4
ENDMDL
MODEL 2
REMARK VINA RESULT:     -10.7     10.673     13.052
REMARK  Name = 131832480
REMARK  4 active torsions:
REMARK  status: ('A' for Active; 'I' for Inactive)
REMARK    1  A    between atoms: O_3  and  C_19
REMARK    2  A    between atoms: O_3  and  C_28
REMARK    3  A    between atoms: C_20  and  C_29
REMARK    4  A    between atoms: C_27  and  C_31
REMARK                            x       y       z     vdW  Elec       q    Type
REMARK                         _______ _______ _______ _____ _____    ______ ____
ROOT
ATOM      1  O   UNL     1     113.857 128.632 135.999  0.00  0.00    +0.000 OA
ATOM      2  O   UNL     1     112.627 130.232 137.433  0.00  0.00    +0.000 OA
ATOM      3  O   UNL     1     113.485 131.313 137.013  0.00  0.00    +0.000 OA
ATOM      4  O   UNL     1     115.628 130.764 135.105  0.00  0.00    +0.000 OA
ATOM      5  C   UNL     1     112.810 128.906 136.933  0.00  0.00    +0.000 A 
ATOM      6  C   UNL     1     113.220 128.372 136.455  0.00  0.00    +0.000 A 
ATOM      7  C   UNL     1     113.037 129.698 136.955  0.00  0.00    +0.000 A 
ATOM      8  C   UNL     1     113.674 129.958 136.500  0.00  0.00    +0.000 A 
ATOM      9  C   UNL     1     114.084 129.425 136.022  0.00  0.00    +0.000 A 
ATOM     10  C   UNL     1     113.901 130.786 136.532  0.00  0.00    +0.000 A 
ATOM     11  C   UNL     1     114.749 129.682 135.543  0.00  0.00    +0.000 A 
ATOM     12  C   UNL     1     114.563 131.063 136.060  0.00  0.00    +0.000 A 
ATOM     13  C   UNL     1     114.991 130.507 135.562  0.00  0.00    +0.000 A 
ENDROOT
BRANCH   6  24
ATOM     14  O   UNL     1     112.316 125.141 136.377  0.00  0.00    +0.000 OA
ATOM     15  O   UNL     1     114.031 124.202 137.350  0.00  0.00    +0.000 OA
ATOM     16  C   UNL     1     112.812 124.563 136.694  0.00  0.00    +0.000 C 
ATOM     17  C   UNL     1     113.533 124.780 137.032  0.00  0.00    +0.000 C 
ATOM     18  C   UNL     1     113.758 125.573 137.052  0.00  0.00    +0.000 C 
ATOM     19  C   UNL     1     113.261 126.151 136.735  0.00  0.00    +0.000 A 
ATOM     20  C   UNL     1     112.540 125.934 136.397  0.00  0.00    +0.000 A 
ATOM     21  C   UNL     1     112.970 123.772 136.866  0.00  0.00    +0.000 C 
ATOM     22  C   UNL     1     112.266 123.980 136.487  0.00  0.00    +0.000 C 
ATOM     23  C   UNL     1     113.506 126.974 136.762  0.00  0.00    +0.000 A 
ATOM     24  C   UNL     1     112.993 127.580 136.433  0.00  0.00    +0.000 A 
ATOM     25  C   UNL     1     112.014 126.525 136.063  0.00  0.00    +0.000 A 
ATOM     26  C   UNL     1     112.242 127.355 136.081  0.00  0.00    +0.000 A 
ENDBRANCH   6  24
BRANCH   5  27
ATOM     27  O   UNL     1     112.173 128.646 137.389  0.00  0.00    +0.000 OA
BRANCH  27  35
ATOM     28  O   UNL     1     112.899 128.625 138.619  0.00  0.00    +0.000 OA
ATOM     29  O   UNL     1     110.829 129.192 139.851  0.00  0.00    +0.000 OA
ATOM     30  O   UNL     1     110.793 129.024 138.210  0.00  0.00    +0.000 OA
ATOM     31  O   UNL     1     112.246 128.981 140.671  0.00  0.00    +0.000 OA
ATOM     32  C   UNL     1     111.519 129.003 139.440  0.00  0.00    +0.000 C 
ATOM     33  C   UNL     1     111.501 128.919 138.619  0.00  0.00    +0.000 C 
ATOM     34  C   UNL     1     112.228 128.897 139.850  0.00  0.00    +0.000 C 
ATOM     35  C   UNL     1     112.191 128.730 138.208  0.00  0.00    +0.000 C 
ATOM     36  C   UNL     1     112.918 128.708 139.439  0.00  0.00    +0.000 C 
BRANCH  36  39
ATOM     37  O   UNL     1     114.088 129.256 140.049  0.00  0.00    +0.000 OA
ATOM     38  O   UNL     1     113.871 127.844 140.060  0.00  0.00    +0.000 OA
ATOM     39  C   UNL     1     113.626 128.603 139.849  0.00  0.00    +0.000 C 
ENDBRANCH  36  39
ENDBRANCH  27  35
ENDBRANCH   5  27
TORSDOF 4
ENDMDL
MODEL 3
REMARK VINA RESULT:     -10.7     10.808     13.432
REMARK  Name = 131832480
REMARK  4 active torsions:
REMARK  status: ('A' for Active; 'I' for Inactive)
REMARK    1  A    between atoms: O_3  and  C_19
REMARK    2  A    between atoms: O_3  and  C_28
REMARK    3  A    between atoms: C_20  and  C_29
REMARK    4  A    between atoms: C_27  and  C_31
REMARK                            x       y       z     vdW  Elec       q    Type
REMARK                         _______ _______ _______ _____ _____    ______ ____
ROOT
ATOM      1  O   UNL     1     113.054 126.336 136.671  0.00  0.00    +0.000 OA
ATOM      2  O   UNL     1     110.871 126.156 135.518  0.00  0.00    +0.000 OA
ATOM      3  O   UNL     1     110.831 124.733 135.753  0.00  0.00    +0.000 OA
ATOM      4  O   UNL     1     113.042 123.469 137.183  0.00  0.00    +0.000 OA
ATOM      5  C   UNL     1     111.969 126.949 135.971  0.00  0.00    +0.000 A 
ATOM      6  C   UNL     1     112.697 127.009 136.356  0.00  0.00    +0.000 A 
ATOM      7  C   UNL     1     111.599 126.216 135.902  0.00  0.00    +0.000 A 
ATOM      8  C   UNL     1     111.956 125.542 136.218  0.00  0.00    +0.000 A 
ATOM      9  C   UNL     1     112.682 125.602 136.602  0.00  0.00    +0.000 A 
ATOM     10  C   UNL     1     111.559 124.783 136.139  0.00  0.00    +0.000 A 
ATOM     11  C   UNL     1     113.065 124.908 136.935  0.00  0.00    +0.000 A 
ATOM     12  C   UNL     1     111.925 124.078 136.466  0.00  0.00    +0.000 A 
ATOM     13  C   UNL     1     112.684 124.141 136.866  0.00  0.00    +0.000 A 
ENDROOT
BRANCH   6  24
ATOM     14  O   UNL     1     114.211 129.994 136.612  0.00  0.00    +0.000 OA
ATOM     15  O   UNL     1     115.062 130.205 134.612  0.00  0.00    +0.000 OA
ATOM     16  C   UNL     1     114.619 130.309 135.967  0.00  0.00    +0.000 C 
ATOM     17  C   UNL     1     114.655 129.890 135.257  0.00  0.00    +0.000 C 
ATOM     18  C   UNL     1     114.283 129.156 135.192  0.00  0.00    +0.000 C 
ATOM     19  C   UNL     1     113.876 128.841 135.837  0.00  0.00    +0.000 A 
ATOM     20  C   UNL     1     113.840 129.260 136.547  0.00  0.00    +0.000 A 
ATOM     21  C   UNL     1     115.068 130.914 135.632  0.00  0.00    +0.000 C 
ATOM     22  C   UNL     1     114.812 130.974 136.415  0.00  0.00    +0.000 C 
ATOM     23  C   UNL     1     113.493 128.076 135.756  0.00  0.00    +0.000 A 
ATOM     24  C   UNL     1     113.067 127.743 136.425  0.00  0.00    +0.000 A 
ATOM     25  C   UNL     1     113.419 128.944 137.225  0.00  0.00    +0.000 A 
ATOM     26  C   UNL     1     113.030 128.179 137.164  0.00  0.00    +0.000 A 
ENDBRANCH   6  24
BRANCH   5  27
ATOM     27  O   UNL     1     111.612 127.623 135.656  0.00  0.00    +0.000 OA
BRANCH  27  35
ATOM     28  O   UNL     1     110.651 127.734 136.707  0.00  0.00    +0.000 OA
ATOM     29  O   UNL     1     109.063 128.808 135.142  0.00  0.00    +0.000 OA
ATOM     30  O   UNL     1     110.554 128.339 134.612  0.00  0.00    +0.000 OA
ATOM     31  O   UNL     1     108.631 128.561 136.715  0.00  0.00    +0.000 OA
ATOM     32  C   UNL     1     109.592 128.450 135.664  0.00  0.00    +0.000 C 
ATOM     33  C   UNL     1     110.338 128.215 135.399  0.00  0.00    +0.000 C 
ATOM     34  C   UNL     1     109.377 128.326 136.450  0.00  0.00    +0.000 C 
ATOM     35  C   UNL     1     110.868 127.857 135.920  0.00  0.00    +0.000 C 
ATOM     36  C   UNL     1     109.906 127.968 136.972  0.00  0.00    +0.000 C 
BRANCH  36  39
ATOM     37  O   UNL     1     109.266 127.170 137.969  0.00  0.00    +0.000 OA
ATOM     38  O   UNL     1     109.897 128.398 138.335  0.00  0.00    +0.000 OA
ATOM     39  C   UNL     1     109.690 127.845 137.759  0.00  0.00    +0.000 C 
ENDBRANCH  36  39
ENDBRANCH  27  35
ENDBRANCH   5  27
TORSDOF 4
ENDMDL
MODEL 4
REMARK VINA RESULT:     -10.6      9.414     11.629
REMARK  Name = 131832480
REMARK  4 active torsions:
REMARK  status: ('A' for Active; 'I' for Inactive)
REMARK    1  A    between atoms: O_3  and  C_19
REMARK    2  A    between atoms: O_3  and  C_28
REMARK    3  A    between atoms: C_20  and  C_29
REMARK    4  A    between atoms: C_27  and  C_31
REMARK                            x       y       z     vdW  Elec       q    Type
REMARK                         _______ _______ _______ _____ _____    ______ ____
ROOT
ATOM      1  O   UNL     1     113.758 126.255 138.289  0.00  0.00    +0.000 OA
ATOM      2  O   UNL     1     111.711 124.935 137.845  0.00  0.00    +0.000 OA
ATOM      3  O   UNL     1     112.374 124.209 136.789  0.00  0.00    +0.000 OA
ATOM      4  O   UNL     1     115.160 124.831 136.171  0.00  0.00    +0.000 OA
ATOM      5  C   UNL     1     112.394 125.947 138.587  0.00  0.00    +0.000 A 
ATOM      6  C   UNL     1     113.077 126.387 138.735  0.00  0.00    +0.000 A 
ATOM      7  C   UNL     1     112.394 125.375 137.993  0.00  0.00    +0.000 A 
ATOM      8  C   UNL     1     113.075 125.243 137.546  0.00  0.00    +0.000 A 
ATOM      9  C   UNL     1     113.756 125.683 137.694  0.00  0.00    +0.000 A 
ATOM     10  C   UNL     1     113.061 124.645 136.930  0.00  0.00    +0.000 A 
ATOM     11  C   UNL     1     114.472 125.556 137.237  0.00  0.00    +0.000 A 
ATOM     12  C   UNL     1     113.767 124.502 136.461  0.00  0.00    +0.000 A 
ATOM     13  C   UNL     1     114.478 124.961 136.616  0.00  0.00    +0.000 A 
ENDROOT
BRANCH   6  24
ATOM     14  O   UNL     1     113.078 128.732 141.137  0.00  0.00    +0.000 OA
ATOM     15  O   UNL     1     113.123 130.557 139.940  0.00  0.00    +0.000 OA
ATOM     16  C   UNL     1     113.093 129.532 140.936  0.00  0.00    +0.000 C 
ATOM     17  C   UNL     1     113.108 129.757 140.143  0.00  0.00    +0.000 C 
ATOM     18  C   UNL     1     113.108 129.183 139.551  0.00  0.00    +0.000 C 
ATOM     19  C   UNL     1     113.093 128.383 139.752  0.00  0.00    +0.000 A 
ATOM     20  C   UNL     1     113.078 128.157 140.545  0.00  0.00    +0.000 A 
ATOM     21  C   UNL     1     113.102 130.326 141.161  0.00  0.00    +0.000 C 
ATOM     22  C   UNL     1     113.085 129.733 141.736  0.00  0.00    +0.000 C 
ATOM     23  C   UNL     1     113.093 127.794 139.126  0.00  0.00    +0.000 A 
ATOM     24  C   UNL     1     113.077 126.959 139.330  0.00  0.00    +0.000 A 
ATOM     25  C   UNL     1     113.062 127.328 140.768  0.00  0.00    +0.000 A 
ATOM     26  C   UNL     1     113.061 126.724 140.156  0.00  0.00    +0.000 A 
ENDBRANCH   6  24
BRANCH   5  27
ATOM     27  O   UNL     1     111.713 126.079 139.034  0.00  0.00    +0.000 OA
BRANCH  27  35
ATOM     28  O   UNL     1     111.050 126.817 138.005  0.00  0.00    +0.000 OA
ATOM     29  O   UNL     1     108.860 126.047 138.863  0.00  0.00    +0.000 OA
ATOM     30  O   UNL     1     110.253 125.566 139.606  0.00  0.00    +0.000 OA
ATOM     31  O   UNL     1     108.928 127.042 137.549  0.00  0.00    +0.000 OA
ATOM     32  C   UNL     1     109.590 126.304 138.577  0.00  0.00    +0.000 C 
ATOM     33  C   UNL     1     110.287 126.063 138.949  0.00  0.00    +0.000 C 
ATOM     34  C   UNL     1     109.625 126.801 137.920  0.00  0.00    +0.000 C 
ATOM     35  C   UNL     1     111.017 126.320 138.663  0.00  0.00    +0.000 C 
ATOM     36  C   UNL     1     110.355 127.058 137.634  0.00  0.00    +0.000 C 
BRANCH  36  39
ATOM     37  O   UNL     1     110.359 127.238 136.217  0.00  0.00    +0.000 OA
ATOM     38  O   UNL     1     110.449 128.372 137.081  0.00  0.00    +0.000 OA
ATOM     39  C   UNL     1     110.388 127.556 136.977  0.00  0.00    +0.000 C 
ENDBRANCH  36  39
ENDBRANCH  27  35
ENDBRANCH   5  27
TORSDOF 4
ENDMDL
MODEL 5
REMARK VINA RESULT:     -10.5     10.289     12.780
REMARK  Name = 131832480
REMARK  4 active torsions:
REMARK  status: ('A' for Active; 'I' for Inactive)
REMARK    1  A    between atoms: O_3  and  C_19
REMARK    2  A    between atoms: O_3  and  C_28
REMARK    3  A    between atoms: C_20  and  C_29
REMARK    4  A    between atoms: C_27  and  C_31
REMARK                            x       y       z     vdW  Elec       q    Type
REMARK                         _______ _______ _______ _____ _____    ______ ____
ROOT
ATOM      1  O   UNL     1     113.511 126.707 136.809  0.00  0.00    +0.000 OA
ATOM      2  O   UNL     1     111.582 125.387 135.991  0.00  0.00    +0.000 OA
ATOM      3  O   UNL     1     112.246 124.152 136.332  0.00  0.00    +0.000 OA
ATOM      4  O   UNL     1     114.911 124.255 137.523  0.00  0.00    +0.000 OA
ATOM      5  C   UNL     1     112.206 126.651 136.226  0.00  0.00    +0.000 A 
ATOM      6  C   UNL     1     112.850 127.091 136.499  0.00  0.00    +0.000 A 
ATOM      7  C   UNL     1     112.225 125.827 136.264  0.00  0.00    +0.000 A 
ATOM      8  C   UNL     1     112.886 125.443 136.574  0.00  0.00    +0.000 A 
ATOM      9  C   UNL     1     113.528 125.883 136.846  0.00  0.00    +0.000 A 
ATOM     10  C   UNL     1     112.893 124.584 136.607  0.00  0.00    +0.000 A 
ATOM     11  C   UNL     1     114.223 125.495 137.171  0.00  0.00    +0.000 A 
ATOM     12  C   UNL     1     113.578 124.178 136.929  0.00  0.00    +0.000 A 
ATOM     13  C   UNL     1     114.248 124.636 137.213  0.00  0.00    +0.000 A 
ENDROOT
BRANCH   6  24
ATOM     14  O   UNL     1     112.770 130.444 136.371  0.00  0.00    +0.000 OA
ATOM     15  O   UNL     1     112.540 130.939 138.485  0.00  0.00    +0.000 OA
ATOM     16  C   UNL     1     112.687 130.884 137.064  0.00  0.00    +0.000 C 
ATOM     17  C   UNL     1     112.623 130.499 137.791  0.00  0.00    +0.000 C 
ATOM     18  C   UNL     1     112.642 129.675 137.825  0.00  0.00    +0.000 C 
ATOM     19  C   UNL     1     112.726 129.236 137.132  0.00  0.00    +0.000 A 
ATOM     20  C   UNL     1     112.789 129.620 136.405  0.00  0.00    +0.000 A 
ATOM     21  C   UNL     1     112.628 131.613 137.446  0.00  0.00    +0.000 C 
ATOM     22  C   UNL     1     112.713 131.582 136.625  0.00  0.00    +0.000 C 
ATOM     23  C   UNL     1     112.744 128.378 137.180  0.00  0.00    +0.000 A 
ATOM     24  C   UNL     1     112.831 127.915 136.462  0.00  0.00    +0.000 A 
ATOM     25  C   UNL     1     112.876 129.174 135.676  0.00  0.00    +0.000 A 
ATOM     26  C   UNL     1     112.897 128.315 135.704  0.00  0.00    +0.000 A 
ENDBRANCH   6  24
BRANCH   5  27
ATOM     27  O   UNL     1     111.545 127.035 135.917  0.00  0.00    +0.000 OA
BRANCH  27  35
ATOM     28  O   UNL     1     110.752 126.854 137.091  0.00  0.00    +0.000 OA
ATOM     29  O   UNL     1     108.704 126.815 135.701  0.00  0.00    +0.000 OA
ATOM     30  O   UNL     1     110.180 127.009 134.990  0.00  0.00    +0.000 OA
ATOM     31  O   UNL     1     108.593 126.646 137.339  0.00  0.00    +0.000 OA
ATOM     32  C   UNL     1     109.387 126.828 136.165  0.00  0.00    +0.000 C 
ATOM     33  C   UNL     1     110.125 126.925 135.809  0.00  0.00    +0.000 C 
ATOM     34  C   UNL     1     109.332 126.743 136.983  0.00  0.00    +0.000 C 
ATOM     35  C   UNL     1     110.808 126.938 136.272  0.00  0.00    +0.000 C 
ATOM     36  C   UNL     1     110.014 126.757 137.446  0.00  0.00    +0.000 C 
BRANCH  36  39
ATOM     37  O   UNL     1     109.928 125.920 138.602  0.00  0.00    +0.000 OA
ATOM     38  O   UNL     1     109.932 127.341 138.748  0.00  0.00    +0.000 OA
ATOM     39  C   UNL     1     109.958 126.672 138.265  0.00  0.00    +0.000 C 
ENDBRANCH  36  39
ENDBRANCH  27  35
ENDBRANCH   5  27
TORSDOF 4
ENDMDL
MODEL 6
REMARK VINA RESULT:     -10.4     11.296     12.995
REMARK  Name = 131832480
REMARK  4 active torsions:
REMARK  status: ('A' for Active; 'I' for Inactive)
REMARK    1  A    between atoms: O_3  and  C_19
REMARK    2  A    between atoms: O_3  and  C_28
REMARK    3  A    between atoms: C_20  and  C_29
REMARK    4  A    between atoms: C_27  and  C_31
REMARK                            x       y       z     vdW  Elec       q    Type
REMARK                         _______ _______ _______ _____ _____    ______ ____
ROOT
ATOM      1  O   UNL     1     109.643 128.260 135.824  0.00  0.00    +0.000 OA
ATOM      2  O   UNL     1     111.249 130.036 135.197  0.00  0.00    +0.000 OA
ATOM      3  O   UNL     1     110.211 131.037 135.261  0.00  0.00    +0.000 OA
ATOM      4  O   UNL     1     107.498 130.223 135.973  0.00  0.00    +0.000 OA
ATOM      5  C   UNL     1     110.970 128.663 135.475  0.00  0.00    +0.000 A 
ATOM      6  C   UNL     1     110.434 128.070 135.684  0.00  0.00    +0.000 A 
ATOM      7  C   UNL     1     110.713 129.444 135.406  0.00  0.00    +0.000 A 
ATOM      8  C   UNL     1     109.923 129.633 135.546  0.00  0.00    +0.000 A 
ATOM      9  C   UNL     1     109.388 129.041 135.755  0.00  0.00    +0.000 A 
ATOM     10  C   UNL     1     109.669 130.451 135.470  0.00  0.00    +0.000 A 
ATOM     11  C   UNL     1     108.562 129.225 135.903  0.00  0.00    +0.000 A 
ATOM     12  C   UNL     1     108.847 130.654 135.615  0.00  0.00    +0.000 A 
ATOM     13  C   UNL     1     108.289 130.037 135.833  0.00  0.00    +0.000 A 
ENDROOT
BRANCH   6  24
ATOM     14  O   UNL     1     111.475 124.894 135.989  0.00  0.00    +0.000 OA
ATOM     15  O   UNL     1     111.464 124.657 138.160  0.00  0.00    +0.000 OA
ATOM     16  C   UNL     1     111.557 124.554 136.737  0.00  0.00    +0.000 C 
ATOM     17  C   UNL     1     111.383 124.996 137.412  0.00  0.00    +0.000 C 
ATOM     18  C   UNL     1     111.127 125.777 137.339  0.00  0.00    +0.000 C 
ATOM     19  C   UNL     1     111.045 126.116 136.592  0.00  0.00    +0.000 A 
ATOM     20  C   UNL     1     111.219 125.675 135.917  0.00  0.00    +0.000 A 
ATOM     21  C   UNL     1     111.752 123.908 137.211  0.00  0.00    +0.000 C 
ATOM     22  C   UNL     1     111.806 123.849 136.389  0.00  0.00    +0.000 C 
ATOM     23  C   UNL     1     110.777 126.930 136.529  0.00  0.00    +0.000 A 
ATOM     24  C   UNL     1     110.690 127.289 135.753  0.00  0.00    +0.000 A 
ATOM     25  C   UNL     1     111.138 126.016 135.133  0.00  0.00    +0.000 A 
ATOM     26  C   UNL     1     110.872 126.830 135.050  0.00  0.00    +0.000 A 
ENDBRANCH   6  24
BRANCH   5  27
ATOM     27  O   UNL     1     111.760 128.474 135.335  0.00  0.00    +0.000 OA
BRANCH  27  35
ATOM     28  O   UNL     1     112.243 128.972 136.584  0.00  0.00    +0.000 OA
ATOM     29  O   UNL     1     114.366 129.636 135.500  0.00  0.00    +0.000 OA
ATOM     30  O   UNL     1     113.176 128.916 134.612  0.00  0.00    +0.000 OA
ATOM     31  O   UNL     1     114.140 129.913 137.111  0.00  0.00    +0.000 OA
ATOM     32  C   UNL     1     113.658 129.415 135.862  0.00  0.00    +0.000 C 
ATOM     33  C   UNL     1     113.063 129.055 135.417  0.00  0.00    +0.000 C 
ATOM     34  C   UNL     1     113.545 129.553 136.667  0.00  0.00    +0.000 C 
ATOM     35  C   UNL     1     112.355 128.833 135.779  0.00  0.00    +0.000 C 
ATOM     36  C   UNL     1     112.837 129.332 137.028  0.00  0.00    +0.000 C 
BRANCH  36  39
ATOM     37  O   UNL     1     112.469 130.210 138.094  0.00  0.00    +0.000 OA
ATOM     38  O   UNL     1     112.868 128.869 138.379  0.00  0.00    +0.000 OA
ATOM     39  C   UNL     1     112.725 129.471 137.834  0.00  0.00    +0.000 C 
ENDBRANCH  36  39
ENDBRANCH  27  35
ENDBRANCH   5  27
TORSDOF 4
ENDMDL
MODEL 7
REMARK VINA RESULT:     -10.4     10.821     13.167
REMARK  Name = 131832480
REMARK  4 active torsions:
REMARK  status: ('A' for Active; 'I' for Inactive)
REMARK    1  A    between atoms: O_3  and  C_19
REMARK    2  A    between atoms: O_3  and  C_28
REMARK    3  A    between atoms: C_20  and  C_29
REMARK    4  A    between atoms: C_27  and  C_31
REMARK                            x       y       z     vdW  Elec       q    Type
REMARK                         _______ _______ _______ _____ _____    ______ ____
ROOT
ATOM      1  O   UNL     1     111.479 128.849 135.934  0.00  0.00    +0.000 OA
ATOM      2  O   UNL     1     112.097 130.982 137.029  0.00  0.00    +0.000 OA
ATOM      3  O   UNL     1     110.851 131.585 136.622  0.00  0.00    +0.000 OA
ATOM      4  O   UNL     1     108.945 130.000 135.078  0.00  0.00    +0.000 OA
ATOM      5  C   UNL     1     112.409 129.629 136.690  0.00  0.00    +0.000 A 
ATOM      6  C   UNL     1     112.203 128.918 136.325  0.00  0.00    +0.000 A 
ATOM      7  C   UNL     1     111.891 130.271 136.664  0.00  0.00    +0.000 A 
ATOM      8  C   UNL     1     111.167 130.202 136.274  0.00  0.00    +0.000 A 
ATOM      9  C   UNL     1     110.962 129.491 135.909  0.00  0.00    +0.000 A 
ATOM     10  C   UNL     1     110.637 130.878 136.254  0.00  0.00    +0.000 A 
ATOM     11  C   UNL     1     110.211 129.406 135.500  0.00  0.00    +0.000 A 
ATOM     12  C   UNL     1     109.882 130.813 135.849  0.00  0.00    +0.000 A 
ATOM     13  C   UNL     1     109.667 130.071 135.469  0.00  0.00    +0.000 A 
ENDROOT
BRANCH   6  24
ATOM     14  O   UNL     1     114.295 126.296 136.446  0.00  0.00    +0.000 OA
ATOM     15  O   UNL     1     113.214 124.959 137.791  0.00  0.00    +0.000 OA
ATOM     16  C   UNL     1     114.107 125.636 136.903  0.00  0.00    +0.000 C 
ATOM     17  C   UNL     1     113.403 125.619 137.333  0.00  0.00    +0.000 C 
ATOM     18  C   UNL     1     112.887 126.262 137.305  0.00  0.00    +0.000 C 
ATOM     19  C   UNL     1     113.075 126.922 136.847  0.00  0.00    +0.000 A 
ATOM     20  C   UNL     1     113.779 126.939 136.418  0.00  0.00    +0.000 A 
ATOM     21  C   UNL     1     114.295 124.883 137.185  0.00  0.00    +0.000 C 
ATOM     22  C   UNL     1     114.811 125.274 136.672  0.00  0.00    +0.000 C 
ATOM     23  C   UNL     1     112.530 127.586 136.826  0.00  0.00    +0.000 A 
ATOM     24  C   UNL     1     112.721 128.276 136.351  0.00  0.00    +0.000 A 
ATOM     25  C   UNL     1     113.987 127.620 135.937  0.00  0.00    +0.000 A 
ATOM     26  C   UNL     1     113.454 128.294 135.903  0.00  0.00    +0.000 A 
ENDBRANCH   6  24
BRANCH   5  27
ATOM     27  O   UNL     1     113.132 129.698 137.080  0.00  0.00    +0.000 OA
BRANCH  27  35
ATOM     28  O   UNL     1     112.565 129.590 138.387  0.00  0.00    +0.000 OA
ATOM     29  O   UNL     1     114.381 131.008 139.292  0.00  0.00    +0.000 OA
ATOM     30  O   UNL     1     114.343 130.644 137.683  0.00  0.00    +0.000 OA
ATOM     31  O   UNL     1     113.209 130.427 140.298  0.00  0.00    +0.000 OA
ATOM     32  C   UNL     1     113.776 130.535 138.991  0.00  0.00    +0.000 C 
ATOM     33  C   UNL     1     113.756 130.353 138.186  0.00  0.00    +0.000 C 
ATOM     34  C   UNL     1     113.189 130.245 139.493  0.00  0.00    +0.000 C 
ATOM     35  C   UNL     1     113.151 129.880 137.884  0.00  0.00    +0.000 C 
ATOM     36  C   UNL     1     112.584 129.772 139.191  0.00  0.00    +0.000 C 
BRANCH  36  39
ATOM     37  O   UNL     1     111.352 129.954 139.892  0.00  0.00    +0.000 OA
ATOM     38  O   UNL     1     112.059 128.718 140.001  0.00  0.00    +0.000 OA
ATOM     39  C   UNL     1     111.998 129.482 139.695  0.00  0.00    +0.000 C 
ENDBRANCH  36  39
ENDBRANCH  27  35
ENDBRANCH   5  27
TORSDOF 4
ENDMDL
MODEL 8
REMARK VINA RESULT:     -10.4      1.137      4.096
REMARK  Name = 131832480
REMARK  4 active torsions:
REMARK  status: ('A' for Active; 'I' for Inactive)
REMARK    1  A    between atoms: O_3  and  C_19
REMARK    2  A    between atoms: O_3  and  C_28
REMARK    3  A    between atoms: C_20  and  C_29
REMARK    4  A    between atoms: C_27  and  C_31
REMARK                            x       y       z     vdW  Elec       q    Type
REMARK                         _______ _______ _______ _____ _____    ______ ____
ROOT
ATOM      1  O   UNL     1     106.775 125.974 147.007  0.00  0.00    +0.000 OA
ATOM      2  O   UNL     1     105.017 124.880 148.365  0.00  0.00    +0.000 OA
ATOM      3  O   UNL     1     106.013 124.190 149.148  0.00  0.00    +0.000 OA
ATOM      4  O   UNL     1     108.839 124.614 148.546  0.00  0.00    +0.000 OA
ATOM      5  C   UNL     1     105.393 125.763 147.306  0.00  0.00    +0.000 A 
ATOM      6  C   UNL     1     105.979 126.128 146.853  0.00  0.00    +0.000 A 
ATOM      7  C   UNL     1     105.604 125.245 147.912  0.00  0.00    +0.000 A 
ATOM      8  C   UNL     1     106.399 125.092 148.066  0.00  0.00    +0.000 A 
ATOM      9  C   UNL     1     106.984 125.456 147.614  0.00  0.00    +0.000 A 
ATOM     10  C   UNL     1     106.605 124.550 148.701  0.00  0.00    +0.000 A 
ATOM     11  C   UNL     1     107.817 125.305 147.764  0.00  0.00    +0.000 A 
ATOM     12  C   UNL     1     107.432 124.386 148.866  0.00  0.00    +0.000 A 
ATOM     13  C   UNL     1     108.043 124.766 148.394  0.00  0.00    +0.000 A 
ENDROOT
BRANCH   6  24
ATOM     14  O   UNL     1     105.128 128.219 144.369  0.00  0.00    +0.000 OA
ATOM     15  O   UNL     1     105.662 127.029 142.618  0.00  0.00    +0.000 OA
ATOM     16  C   UNL     1     105.236 127.994 143.582  0.00  0.00    +0.000 C 
ATOM     17  C   UNL     1     105.554 127.254 143.405  0.00  0.00    +0.000 C 
ATOM     18  C   UNL     1     105.764 126.738 144.014  0.00  0.00    +0.000 C 
ATOM     19  C   UNL     1     105.656 126.963 144.800  0.00  0.00    +0.000 A 
ATOM     20  C   UNL     1     105.338 127.703 144.978  0.00  0.00    +0.000 A 
ATOM     21  C   UNL     1     105.178 128.161 142.777  0.00  0.00    +0.000 C 
ATOM     22  C   UNL     1     104.931 128.719 143.333  0.00  0.00    +0.000 C 
ATOM     23  C   UNL     1     105.878 126.417 145.425  0.00  0.00    +0.000 A 
ATOM     24  C   UNL     1     105.768 126.646 146.247  0.00  0.00    +0.000 A 
ATOM     25  C   UNL     1     105.220 127.949 145.792  0.00  0.00    +0.000 A 
ATOM     26  C   UNL     1     105.437 127.417 146.432  0.00  0.00    +0.000 A 
ENDBRANCH   6  24
BRANCH   5  27
ATOM     27  O   UNL     1     104.597 125.917 147.152  0.00  0.00    +0.000 OA
BRANCH  27  35
ATOM     28  O   UNL     1     104.337 124.711 146.429  0.00  0.00    +0.000 OA
ATOM     29  O   UNL     1     102.065 124.615 147.405  0.00  0.00    +0.000 OA
ATOM     30  O   UNL     1     103.082 125.853 147.802  0.00  0.00    +0.000 OA
ATOM     31  O   UNL     1     102.563 123.442 146.357  0.00  0.00    +0.000 OA
ATOM     32  C   UNL     1     102.822 124.647 147.080  0.00  0.00    +0.000 C 
ATOM     33  C   UNL     1     103.331 125.266 147.278  0.00  0.00    +0.000 C 
ATOM     34  C   UNL     1     103.072 124.061 146.556  0.00  0.00    +0.000 C 
ATOM     35  C   UNL     1     104.089 125.298 146.953  0.00  0.00    +0.000 C 
ATOM     36  C   UNL     1     103.830 124.093 146.230  0.00  0.00    +0.000 C 
BRANCH  36  39
ATOM     37  O   UNL     1     104.015 123.625 144.893  0.00  0.00    +0.000 OA
ATOM     38  O   UNL     1     104.389 122.800 145.997  0.00  0.00    +0.000 OA
ATOM     39  C   UNL     1     104.078 123.506 145.706  0.00  0.00    +0.000 C 
ENDBRANCH  36  39
ENDBRANCH  27  35
ENDBRANCH   5  27
TORSDOF 4
ENDMDL
MODEL 9
REMARK VINA RESULT:     -10.4     11.060     12.479
REMARK  Name = 131832480
REMARK  4 active torsions:
REMARK  status: ('A' for Active; 'I' for Inactive)
REMARK    1  A    between atoms: O_3  and  C_19
REMARK    2  A    between atoms: O_3  and  C_28
REMARK    3  A    between atoms: C_20  and  C_29
REMARK    4  A    between atoms: C_27  and  C_31
REMARK                            x       y       z     vdW  Elec       q    Type
REMARK                         _______ _______ _______ _____ _____    ______ ____
ROOT
ATOM      1  O   UNL     1     113.147 127.934 139.288  0.00  0.00    +0.000 OA
ATOM      2  O   UNL     1     112.354 129.918 138.038  0.00  0.00    +0.000 OA
ATOM      3  O   UNL     1     113.009 130.803 138.971  0.00  0.00    +0.000 OA
ATOM      4  O   UNL     1     114.494 129.658 141.210  0.00  0.00    +0.000 OA
ATOM      5  C   UNL     1     112.422 128.499 138.194  0.00  0.00    +0.000 A 
ATOM      6  C   UNL     1     112.686 127.838 138.611  0.00  0.00    +0.000 A 
ATOM      7  C   UNL     1     112.619 129.257 138.455  0.00  0.00    +0.000 A 
ATOM      8  C   UNL     1     113.080 129.353 139.133  0.00  0.00    +0.000 A 
ATOM      9  C   UNL     1     113.344 128.692 139.549  0.00  0.00    +0.000 A 
ATOM     10  C   UNL     1     113.278 130.147 139.394  0.00  0.00    +0.000 A 
ATOM     11  C   UNL     1     113.824 128.778 140.255  0.00  0.00    +0.000 A 
ATOM     12  C   UNL     1     113.758 130.254 140.099  0.00  0.00    +0.000 A 
ATOM     13  C   UNL     1     114.033 129.564 140.533  0.00  0.00    +0.000 A 
ENDROOT
BRANCH   6  24
ATOM     14  O   UNL     1     111.907 124.754 137.539  0.00  0.00    +0.000 OA
ATOM     15  O   UNL     1     113.821 124.101 136.714  0.00  0.00    +0.000 OA
ATOM     16  C   UNL     1     112.480 124.283 137.176  0.00  0.00    +0.000 C 
ATOM     17  C   UNL     1     113.247 124.571 137.077  0.00  0.00    +0.000 C 
ATOM     18  C   UNL     1     113.441 125.329 137.339  0.00  0.00    +0.000 C 
ATOM     19  C   UNL     1     112.868 125.799 137.702  0.00  0.00    +0.000 A 
ATOM     20  C   UNL     1     112.101 125.511 137.801  0.00  0.00    +0.000 A 
ATOM     21  C   UNL     1     112.700 123.575 136.815  0.00  0.00    +0.000 C 
ATOM     22  C   UNL     1     111.926 123.680 137.082  0.00  0.00    +0.000 C 
ATOM     23  C   UNL     1     113.082 126.586 137.971  0.00  0.00    +0.000 A 
ATOM     24  C   UNL     1     112.489 127.081 138.349  0.00  0.00    +0.000 A 
ATOM     25  C   UNL     1     111.495 125.990 138.177  0.00  0.00    +0.000 A 
ATOM     26  C   UNL     1     111.691 126.781 138.453  0.00  0.00    +0.000 A 
ENDBRANCH   6  24
BRANCH   5  27
ATOM     27  O   UNL     1     111.961 128.403 137.516  0.00  0.00    +0.000 OA
BRANCH  27  35
ATOM     28  O   UNL     1     113.037 128.693 136.623  0.00  0.00    +0.000 OA
ATOM     29  O   UNL     1     111.421 129.535 134.948  0.00  0.00    +0.000 OA
ATOM     30  O   UNL     1     110.883 128.965 136.400  0.00  0.00    +0.000 OA
ATOM     31  O   UNL     1     113.037 129.543 134.613  0.00  0.00    +0.000 OA
ATOM     32  C   UNL     1     111.960 129.254 135.506  0.00  0.00    +0.000 C 
ATOM     33  C   UNL     1     111.691 128.969 136.233  0.00  0.00    +0.000 C 
ATOM     34  C   UNL     1     112.768 129.258 135.339  0.00  0.00    +0.000 C 
ATOM     35  C   UNL     1     112.230 128.688 136.791  0.00  0.00    +0.000 C 
ATOM     36  C   UNL     1     113.307 128.977 135.897  0.00  0.00    +0.000 C 
BRANCH  36  39
ATOM     37  O   UNL     1     114.556 129.669 135.843  0.00  0.00    +0.000 OA
ATOM     38  O   UNL     1     114.480 128.299 135.447  0.00  0.00    +0.000 OA
ATOM     39  C   UNL     1     114.114 128.982 135.729  0.00  0.00    +0.000 C 
ENDBRANCH  36  39
ENDBRANCH  27  35
ENDBRANCH   5  27
TORSDOF 4
ENDMDL
MODEL 10
REMARK VINA RESULT:     -10.4     10.184     12.581
REMARK  Name = 131832480
REMARK  4 active torsions:
REMARK  status: ('A' for Active; 'I' for Inactive)
REMARK    1  A    between atoms: O_3  and  C_19
REMARK    2  A    between atoms: O_3  and  C_28
REMARK    3  A    between atoms: C_20  and  C_29
REMARK    4  A    between atoms: C_27  and  C_31
REMARK                            x       y       z     vdW  Elec       q    Type
REMARK                         _______ _______ _______ _____ _____    ______ ____
ROOT
ATOM      1  O   UNL     1     113.678 128.344 136.430  0.00  0.00    +0.000 OA
ATOM      2  O   UNL     1     112.731 129.879 138.126  0.00  0.00    +0.000 OA
ATOM      3  O   UNL     1     113.330 131.017 137.471  0.00  0.00    +0.000 OA
ATOM      4  O   UNL     1     114.915 130.593 135.055  0.00  0.00    +0.000 OA
ATOM      5  C   UNL     1     112.903 128.557 137.612  0.00  0.00    +0.000 A 
ATOM      6  C   UNL     1     113.218 128.045 137.046  0.00  0.00    +0.000 A 
ATOM      7  C   UNL     1     113.047 129.367 137.560  0.00  0.00    +0.000 A 
ATOM      8  C   UNL     1     113.506 129.666 136.943  0.00  0.00    +0.000 A 
ATOM      9  C   UNL     1     113.821 129.155 136.379  0.00  0.00    +0.000 A 
ATOM     10  C   UNL     1     113.649 130.513 136.901  0.00  0.00    +0.000 A 
ATOM     11  C   UNL     1     114.302 129.453 135.732  0.00  0.00    +0.000 A 
ATOM     12  C   UNL     1     114.127 130.831 136.262  0.00  0.00    +0.000 A 
ATOM     13  C   UNL     1     114.455 130.297 135.672  0.00  0.00    +0.000 A 
ENDROOT
BRANCH   6  24
ATOM     14  O   UNL     1     112.615 124.748 137.238  0.00  0.00    +0.000 OA
ATOM     15  O   UNL     1     111.148 124.498 135.640  0.00  0.00    +0.000 OA
ATOM     16  C   UNL     1     112.077 124.394 136.722  0.00  0.00    +0.000 C 
ATOM     17  C   UNL     1     111.686 124.851 136.157  0.00  0.00    +0.000 C 
ATOM     18  C   UNL     1     111.833 125.661 136.108  0.00  0.00    +0.000 C 
ATOM     19  C   UNL     1     112.370 126.015 136.624  0.00  0.00    +0.000 A 
ATOM     20  C   UNL     1     112.761 125.559 137.189  0.00  0.00    +0.000 A 
ATOM     21  C   UNL     1     111.681 123.723 136.452  0.00  0.00    +0.000 C 
ATOM     22  C   UNL     1     112.218 123.663 137.077  0.00  0.00    +0.000 C 
ATOM     23  C   UNL     1     112.515 126.860 136.563  0.00  0.00    +0.000 A 
ATOM     24  C   UNL     1     113.074 127.234 137.098  0.00  0.00    +0.000 A 
ATOM     25  C   UNL     1     113.323 125.915 137.732  0.00  0.00    +0.000 A 
ATOM     26  C   UNL     1     113.481 126.759 137.687  0.00  0.00    +0.000 A 
ENDBRANCH   6  24
BRANCH   5  27
ATOM     27  O   UNL     1     112.443 128.258 138.228  0.00  0.00    +0.000 OA
BRANCH  27  35
ATOM     28  O   UNL     1     111.204 128.674 137.652  0.00  0.00    +0.000 OA
ATOM     29  O   UNL     1     110.228 128.904 139.914  0.00  0.00    +0.000 OA
ATOM     30  O   UNL     1     111.793 128.411 139.737  0.00  0.00    +0.000 OA
ATOM     31  O   UNL     1     109.314 129.245 138.583  0.00  0.00    +0.000 OA
ATOM     32  C   UNL     1     110.553 128.828 139.160  0.00  0.00    +0.000 C 
ATOM     33  C   UNL     1     111.336 128.581 139.071  0.00  0.00    +0.000 C 
ATOM     34  C   UNL     1     110.097 128.998 138.494  0.00  0.00    +0.000 C 
ATOM     35  C   UNL     1     111.662 128.504 138.317  0.00  0.00    +0.000 C 
ATOM     36  C   UNL     1     110.422 128.921 137.740  0.00  0.00    +0.000 C 
BRANCH  36  39
ATOM     37  O   UNL     1     109.916 129.865 136.794  0.00  0.00    +0.000 OA
ATOM     38  O   UNL     1     109.556 128.487 136.690  0.00  0.00    +0.000 OA
ATOM     39  C   UNL     1     109.965 129.091 137.075  0.00  0.00    +0.000 C 
ENDBRANCH  36  39
ENDBRANCH  27  35
ENDBRANCH   5  27
TORSDOF 4
ENDMDL
