MODEL 1
REMARK VINA RESULT:      -7.7      0.000      0.000
REMARK  Name = 15736236
REMARK  8 active torsions:
REMARK  status: ('A' for Active; 'I' for Inactive)
REMARK    1  A    between atoms: O_2  and  C_13
REMARK    2  A    between atoms: O_2  and  C_18
REMARK    3  A    between atoms: O_3  and  C_15
REMARK    4  A    between atoms: O_4  and  C_19
REMARK    5  A    between atoms: O_5  and  C_21
REMARK    6  A    between atoms: C_10  and  C_14
REMARK    7  A    between atoms: C_10  and  C_18
REMARK    8  A    between atoms: C_17  and  C_23
REMARK                            x       y       z     vdW  Elec       q    Type
REMARK                         _______ _______ _______ _____ _____    ______ ____
ROOT
ATOM      1  O   UNL     1     112.651 127.331 136.459  0.00  0.00    +0.000 OA
ATOM      2  O   UNL     1     109.906 127.414 135.543  0.00  0.00    +0.000 OA
ATOM      3  O   UNL     1     110.497 126.138 135.869  0.00  0.00    +0.000 OA
ATOM      4  C   UNL     1     111.963 127.767 136.187  0.00  0.00    +0.000 A 
ATOM      5  C   UNL     1     111.262 127.376 135.995  0.00  0.00    +0.000 A 
ATOM      6  C   UNL     1     112.008 128.588 136.118  0.00  0.00    +0.000 A 
ATOM      7  C   UNL     1     111.354 129.017 135.858  0.00  0.00    +0.000 A 
ATOM      8  C   UNL     1     110.607 127.805 135.735  0.00  0.00    +0.000 A 
ATOM      9  C   UNL     1     112.609 126.476 136.533  0.00  0.00    +0.000 A 
ATOM     10  C   UNL     1     110.654 128.626 135.666  0.00  0.00    +0.000 A 
ATOM     11  C   UNL     1     111.201 126.522 136.062  0.00  0.00    +0.000 A 
ATOM     12  C   UNL     1     111.880 126.068 136.333  0.00  0.00    +0.000 A 
ENDROOT
BRANCH   9  14
ATOM     13  O   UNL     1     115.233 124.768 137.576  0.00  0.00    +0.000 OA
ATOM     14  C   UNL     1     113.265 126.049 136.793  0.00  0.00    +0.000 A 
ATOM     15  C   UNL     1     113.803 125.744 136.247  0.00  0.00    +0.000 A 
ATOM     16  C   UNL     1     113.384 125.926 137.600  0.00  0.00    +0.000 A 
ATOM     17  C   UNL     1     114.459 125.317 136.508  0.00  0.00    +0.000 A 
ATOM     18  C   UNL     1     114.039 125.499 137.862  0.00  0.00    +0.000 A 
ATOM     19  C   UNL     1     114.578 125.194 137.315  0.00  0.00    +0.000 A 
ENDBRANCH   9  14
BRANCH   7  20
ATOM     20  O   UNL     1     111.400 129.839 135.789  0.00  0.00    +0.000 OA
ATOM     21  C   UNL     1     110.967 130.320 136.299  0.00  0.00    +0.000 C 
ENDBRANCH   7  20
BRANCH  10  22
ATOM     22  O   UNL     1     109.998 129.056 135.406  0.00  0.00    +0.000 OA
ATOM     23  C   UNL     1     109.775 129.027 134.612  0.00  0.00    +0.000 C 
ENDBRANCH  10  22
BRANCH  12  24
ATOM     24  O   UNL     1     111.830 125.247 136.401  0.00  0.00    +0.000 OA
ATOM     25  C   UNL     1     111.208 124.840 136.043  0.00  0.00    +0.000 C 
ENDBRANCH  12  24
BRANCH   6  26
ATOM     26  O   UNL     1     112.709 128.979 136.309  0.00  0.00    +0.000 OA
BRANCH  26  28
ATOM     27  O   UNL     1     113.084 128.985 134.931  0.00  0.00    +0.000 OA
ATOM     28  C   UNL     1     113.256 129.159 135.719  0.00  0.00    +0.000 C 
BRANCH  28  29
ATOM     29  C   UNL     1     113.975 129.513 135.916  0.00  0.00    +0.000 C 
ATOM     30  C   UNL     1     114.123 129.739 136.695  0.00  0.00    +0.000 C 
BRANCH  29  31
ATOM     31  C   UNL     1     114.545 129.640 135.333  0.00  0.00    +0.000 C 
ATOM     32  C   UNL     1     115.178 130.148 135.480  0.00  0.00    +0.000 C 
ENDBRANCH  29  31
ENDBRANCH  28  29
ENDBRANCH  26  28
ENDBRANCH   6  26
TORSDOF 8
ENDMDL
MODEL 2
REMARK VINA RESULT:      -7.6      0.953      3.703
REMARK  Name = 15736236
REMARK  8 active torsions:
REMARK  status: ('A' for Active; 'I' for Inactive)
REMARK    1  A    between atoms: O_2  and  C_13
REMARK    2  A    between atoms: O_2  and  C_18
REMARK    3  A    between atoms: O_3  and  C_15
REMARK    4  A    between atoms: O_4  and  C_19
REMARK    5  A    between atoms: O_5  and  C_21
REMARK    6  A    between atoms: C_10  and  C_14
REMARK    7  A    between atoms: C_10  and  C_18
REMARK    8  A    between atoms: C_17  and  C_23
REMARK                            x       y       z     vdW  Elec       q    Type
REMARK                         _______ _______ _______ _____ _____    ______ ____
ROOT
ATOM      1  O   UNL     1     112.834 127.846 136.097  0.00  0.00    +0.000 OA
ATOM      2  O   UNL     1     109.999 127.758 136.674  0.00  0.00    +0.000 OA
ATOM      3  O   UNL     1     110.601 129.020 136.317  0.00  0.00    +0.000 OA
ATOM      4  C   UNL     1     112.126 127.414 136.318  0.00  0.00    +0.000 A 
ATOM      5  C   UNL     1     111.400 127.799 136.389  0.00  0.00    +0.000 A 
ATOM      6  C   UNL     1     112.178 126.603 136.461  0.00  0.00    +0.000 A 
ATOM      7  C   UNL     1     111.505 126.177 136.674  0.00  0.00    +0.000 A 
ATOM      8  C   UNL     1     110.725 127.373 136.603  0.00  0.00    +0.000 A 
ATOM      9  C   UNL     1     112.786 128.691 135.947  0.00  0.00    +0.000 A 
ATOM     10  C   UNL     1     110.779 126.562 136.745  0.00  0.00    +0.000 A 
ATOM     11  C   UNL     1     111.332 128.643 136.244  0.00  0.00    +0.000 A 
ATOM     12  C   UNL     1     112.030 129.092 136.021  0.00  0.00    +0.000 A 
ENDROOT
BRANCH   9  14
ATOM     13  O   UNL     1     115.486 130.386 135.096  0.00  0.00    +0.000 OA
ATOM     14  C   UNL     1     113.461 129.115 135.734  0.00  0.00    +0.000 A 
ATOM     15  C   UNL     1     113.693 129.153 134.944  0.00  0.00    +0.000 A 
ATOM     16  C   UNL     1     113.905 129.501 136.312  0.00  0.00    +0.000 A 
ATOM     17  C   UNL     1     114.368 129.576 134.731  0.00  0.00    +0.000 A 
ATOM     18  C   UNL     1     114.580 129.925 136.101  0.00  0.00    +0.000 A 
ATOM     19  C   UNL     1     114.812 129.962 135.309  0.00  0.00    +0.000 A 
ENDBRANCH   9  14
BRANCH   7  20
ATOM     20  O   UNL     1     111.557 125.366 136.816  0.00  0.00    +0.000 OA
ATOM     21  C   UNL     1     111.214 124.831 136.291  0.00  0.00    +0.000 C 
ENDBRANCH   7  20
BRANCH  10  22
ATOM     22  O   UNL     1     110.104 126.136 136.958  0.00  0.00    +0.000 OA
ATOM     23  C   UNL     1     109.743 126.273 137.687  0.00  0.00    +0.000 C 
ENDBRANCH  10  22
BRANCH  12  24
ATOM     24  O   UNL     1     111.974 129.903 135.880  0.00  0.00    +0.000 OA
ATOM     25  C   UNL     1     111.281 130.309 136.070  0.00  0.00    +0.000 C 
ENDBRANCH  12  24
BRANCH   6  26
ATOM     26  O   UNL     1     112.904 126.218 136.390  0.00  0.00    +0.000 OA
BRANCH  26  28
ATOM     27  O   UNL     1     113.131 126.387 137.790  0.00  0.00    +0.000 OA
ATOM     28  C   UNL     1     113.376 126.101 137.056  0.00  0.00    +0.000 C 
BRANCH  28  29
ATOM     29  C   UNL     1     114.093 125.698 136.988  0.00  0.00    +0.000 C 
ATOM     30  C   UNL     1     114.444 125.366 137.656  0.00  0.00    +0.000 C 
BRANCH  29  31
ATOM     31  C   UNL     1     114.459 125.628 136.252  0.00  0.00    +0.000 C 
ATOM     32  C   UNL     1     115.195 125.260 136.190  0.00  0.00    +0.000 C 
ENDBRANCH  29  31
ENDBRANCH  28  29
ENDBRANCH  26  28
ENDBRANCH   6  26
TORSDOF 8
ENDMDL
MODEL 3
REMARK VINA RESULT:      -7.6      1.229      3.898
REMARK  Name = 15736236
REMARK  8 active torsions:
REMARK  status: ('A' for Active; 'I' for Inactive)
REMARK    1  A    between atoms: O_2  and  C_13
REMARK    2  A    between atoms: O_2  and  C_18
REMARK    3  A    between atoms: O_3  and  C_15
REMARK    4  A    between atoms: O_4  and  C_19
REMARK    5  A    between atoms: O_5  and  C_21
REMARK    6  A    between atoms: C_10  and  C_14
REMARK    7  A    between atoms: C_10  and  C_18
REMARK    8  A    between atoms: C_17  and  C_23
REMARK                            x       y       z     vdW  Elec       q    Type
REMARK                         _______ _______ _______ _____ _____    ______ ____
ROOT
ATOM      1  O   UNL     1     111.396 127.418 136.234  0.00  0.00    +0.000 OA
ATOM      2  O   UNL     1     111.797 124.551 136.206  0.00  0.00    +0.000 OA
ATOM      3  O   UNL     1     110.644 125.103 135.536  0.00  0.00    +0.000 OA
ATOM      4  C   UNL     1     111.849 126.720 136.450  0.00  0.00    +0.000 A 
ATOM      5  C   UNL     1     111.601 125.967 136.221  0.00  0.00    +0.000 A 
ATOM      6  C   UNL     1     112.539 126.810 136.892  0.00  0.00    +0.000 A 
ATOM      7  C   UNL     1     112.982 126.148 137.105  0.00  0.00    +0.000 A 
ATOM      8  C   UNL     1     112.044 125.304 136.435  0.00  0.00    +0.000 A 
ATOM      9  C   UNL     1     110.676 127.330 135.773  0.00  0.00    +0.000 A 
ATOM     10  C   UNL     1     112.735 125.395 136.877  0.00  0.00    +0.000 A 
ATOM     11  C   UNL     1     110.884 125.860 135.761  0.00  0.00    +0.000 A 
ATOM     12  C   UNL     1     110.418 126.546 135.535  0.00  0.00    +0.000 A 
ENDROOT
BRANCH   9  14
ATOM     13  O   UNL     1     108.912 129.986 134.924  0.00  0.00    +0.000 OA
ATOM     14  C   UNL     1     110.234 127.994 135.561  0.00  0.00    +0.000 A 
ATOM     15  C   UNL     1     109.635 128.267 136.057  0.00  0.00    +0.000 A 
ATOM     16  C   UNL     1     110.393 128.385 134.852  0.00  0.00    +0.000 A 
ATOM     17  C   UNL     1     109.194 128.931 135.845  0.00  0.00    +0.000 A 
ATOM     18  C   UNL     1     109.952 129.049 134.639  0.00  0.00    +0.000 A 
ATOM     19  C   UNL     1     109.352 129.323 135.136  0.00  0.00    +0.000 A 
ENDBRANCH   9  14
BRANCH   7  20
ATOM     20  O   UNL     1     113.673 126.238 137.548  0.00  0.00    +0.000 OA
ATOM     21  C   UNL     1     113.702 125.972 138.327  0.00  0.00    +0.000 C 
ENDBRANCH   7  20
BRANCH  10  22
ATOM     22  O   UNL     1     113.178 124.732 137.090  0.00  0.00    +0.000 OA
ATOM     23  C   UNL     1     113.578 124.299 136.513  0.00  0.00    +0.000 C 
ENDBRANCH  10  22
BRANCH  12  24
ATOM     24  O   UNL     1     109.727 126.451 135.093  0.00  0.00    +0.000 OA
ATOM     25  C   UNL     1     109.606 125.760 134.659  0.00  0.00    +0.000 C 
ENDBRANCH  12  24
BRANCH   6  26
ATOM     26  O   UNL     1     112.787 127.563 137.121  0.00  0.00    +0.000 OA
BRANCH  26  28
ATOM     27  O   UNL     1     113.722 127.598 136.041  0.00  0.00    +0.000 OA
ATOM     28  C   UNL     1     113.323 127.981 136.654  0.00  0.00    +0.000 C 
BRANCH  28  29
ATOM     29  C   UNL     1     113.461 128.781 136.799  0.00  0.00    +0.000 C 
ATOM     30  C   UNL     1     113.266 129.107 137.531  0.00  0.00    +0.000 C 
BRANCH  29  31
ATOM     31  C   UNL     1     113.795 129.255 136.212  0.00  0.00    +0.000 C 
ATOM     32  C   UNL     1     113.872 130.068 136.332  0.00  0.00    +0.000 C 
ENDBRANCH  29  31
ENDBRANCH  28  29
ENDBRANCH  26  28
ENDBRANCH   6  26
TORSDOF 8
ENDMDL
MODEL 4
REMARK VINA RESULT:      -7.4      2.401      6.004
REMARK  Name = 15736236
REMARK  8 active torsions:
REMARK  status: ('A' for Active; 'I' for Inactive)
REMARK    1  A    between atoms: O_2  and  C_13
REMARK    2  A    between atoms: O_2  and  C_18
REMARK    3  A    between atoms: O_3  and  C_15
REMARK    4  A    between atoms: O_4  and  C_19
REMARK    5  A    between atoms: O_5  and  C_21
REMARK    6  A    between atoms: C_10  and  C_14
REMARK    7  A    between atoms: C_10  and  C_18
REMARK    8  A    between atoms: C_17  and  C_23
REMARK                            x       y       z     vdW  Elec       q    Type
REMARK                         _______ _______ _______ _____ _____    ______ ____
ROOT
ATOM      1  O   UNL     1     110.142 130.670 136.036  0.00  0.00    +0.000 OA
ATOM      2  O   UNL     1     112.417 131.429 137.657  0.00  0.00    +0.000 OA
ATOM      3  O   UNL     1     111.389 132.407 137.392  0.00  0.00    +0.000 OA
ATOM      4  C   UNL     1     110.890 130.484 136.414  0.00  0.00    +0.000 A 
ATOM      5  C   UNL     1     111.294 131.052 136.856  0.00  0.00    +0.000 A 
ATOM      6  C   UNL     1     111.204 129.725 136.333  0.00  0.00    +0.000 A 
ATOM      7  C   UNL     1     111.921 129.535 136.692  0.00  0.00    +0.000 A 
ATOM      8  C   UNL     1     112.013 130.861 137.216  0.00  0.00    +0.000 A 
ATOM      9  C   UNL     1     109.810 131.459 136.117  0.00  0.00    +0.000 A 
ATOM     10  C   UNL     1     112.326 130.102 137.133  0.00  0.00    +0.000 A 
ATOM     11  C   UNL     1     110.979 131.845 136.949  0.00  0.00    +0.000 A 
ATOM     12  C   UNL     1     110.231 132.051 136.577  0.00  0.00    +0.000 A 
ENDROOT
BRANCH   9  14
ATOM     13  O   UNL     1     106.940 132.212 134.675  0.00  0.00    +0.000 OA
ATOM     14  C   UNL     1     109.092 131.648 135.757  0.00  0.00    +0.000 A 
ATOM     15  C   UNL     1     108.387 131.577 136.179  0.00  0.00    +0.000 A 
ATOM     16  C   UNL     1     109.080 131.906 134.974  0.00  0.00    +0.000 A 
ATOM     17  C   UNL     1     107.670 131.765 135.818  0.00  0.00    +0.000 A 
ATOM     18  C   UNL     1     108.363 132.095 134.612  0.00  0.00    +0.000 A 
ATOM     19  C   UNL     1     107.657 132.024 135.035  0.00  0.00    +0.000 A 
ENDBRANCH   9  14
BRANCH   7  20
ATOM     20  O   UNL     1     112.235 128.776 136.610  0.00  0.00    +0.000 OA
ATOM     21  C   UNL     1     112.921 128.658 136.168  0.00  0.00    +0.000 C 
ENDBRANCH   7  20
BRANCH  10  22
ATOM     22  O   UNL     1     113.044 129.911 137.493  0.00  0.00    +0.000 OA
ATOM     23  C   UNL     1     113.090 129.847 138.314  0.00  0.00    +0.000 C 
ENDBRANCH  10  22
BRANCH  12  24
ATOM     24  O   UNL     1     109.920 132.811 136.661  0.00  0.00    +0.000 OA
ATOM     25  C   UNL     1     110.422 133.447 136.815  0.00  0.00    +0.000 C 
ENDBRANCH  12  24
BRANCH   6  26
ATOM     26  O   UNL     1     110.800 129.158 135.891  0.00  0.00    +0.000 OA
BRANCH  26  28
ATOM     27  O   UNL     1     110.259 128.597 137.089  0.00  0.00    +0.000 OA
ATOM     28  C   UNL     1     110.280 128.637 136.265  0.00  0.00    +0.000 C 
BRANCH  28  29
ATOM     29  C   UNL     1     109.783 128.157 135.815  0.00  0.00    +0.000 C 
ATOM     30  C   UNL     1     109.942 128.031 135.016  0.00  0.00    +0.000 C 
BRANCH  29  31
ATOM     31  C   UNL     1     109.125 127.802 136.166  0.00  0.00    +0.000 C 
ATOM     32  C   UNL     1     108.627 127.323 135.716  0.00  0.00    +0.000 C 
ENDBRANCH  29  31
ENDBRANCH  28  29
ENDBRANCH  26  28
ENDBRANCH   6  26
TORSDOF 8
ENDMDL
MODEL 5
REMARK VINA RESULT:      -7.4      2.351      3.797
REMARK  Name = 15736236
REMARK  8 active torsions:
REMARK  status: ('A' for Active; 'I' for Inactive)
REMARK    1  A    between atoms: O_2  and  C_13
REMARK    2  A    between atoms: O_2  and  C_18
REMARK    3  A    between atoms: O_3  and  C_15
REMARK    4  A    between atoms: O_4  and  C_19
REMARK    5  A    between atoms: O_5  and  C_21
REMARK    6  A    between atoms: C_10  and  C_14
REMARK    7  A    between atoms: C_10  and  C_18
REMARK    8  A    between atoms: C_17  and  C_23
REMARK                            x       y       z     vdW  Elec       q    Type
REMARK                         _______ _______ _______ _____ _____    ______ ____
ROOT
ATOM      1  O   UNL     1     112.206 127.707 138.167  0.00  0.00    +0.000 OA
ATOM      2  O   UNL     1     111.291 124.988 138.546  0.00  0.00    +0.000 OA
ATOM      3  O   UNL     1     111.535 125.812 139.706  0.00  0.00    +0.000 OA
ATOM      4  C   UNL     1     111.961 126.947 137.853  0.00  0.00    +0.000 A 
ATOM      5  C   UNL     1     111.743 126.331 138.357  0.00  0.00    +0.000 A 
ATOM      6  C   UNL     1     111.946 126.835 137.035  0.00  0.00    +0.000 A 
ATOM      7  C   UNL     1     111.712 126.109 136.722  0.00  0.00    +0.000 A 
ATOM      8  C   UNL     1     111.509 125.604 138.043  0.00  0.00    +0.000 A 
ATOM      9  C   UNL     1     112.224 127.829 139.018  0.00  0.00    +0.000 A 
ATOM     10  C   UNL     1     111.494 125.494 137.225  0.00  0.00    +0.000 A 
ATOM     11  C   UNL     1     111.755 126.433 139.209  0.00  0.00    +0.000 A 
ATOM     12  C   UNL     1     111.997 127.188 139.542  0.00  0.00    +0.000 A 
ENDROOT
BRANCH   9  14
ATOM     13  O   UNL     1     113.161 130.738 140.262  0.00  0.00    +0.000 OA
ATOM     14  C   UNL     1     112.458 128.556 139.329  0.00  0.00    +0.000 A 
ATOM     15  C   UNL     1     111.910 129.168 139.407  0.00  0.00    +0.000 A 
ATOM     16  C   UNL     1     113.241 128.673 139.562  0.00  0.00    +0.000 A 
ATOM     17  C   UNL     1     112.144 129.895 139.718  0.00  0.00    +0.000 A 
ATOM     18  C   UNL     1     113.476 129.399 139.873  0.00  0.00    +0.000 A 
ATOM     19  C   UNL     1     112.927 130.011 139.951  0.00  0.00    +0.000 A 
ENDBRANCH   9  14
BRANCH   7  20
ATOM     20  O   UNL     1     111.697 125.998 135.904  0.00  0.00    +0.000 OA
ATOM     21  C   UNL     1     110.977 125.902 135.514  0.00  0.00    +0.000 C 
ENDBRANCH   7  20
BRANCH  10  22
ATOM     22  O   UNL     1     111.260 124.767 136.912  0.00  0.00    +0.000 OA
ATOM     23  C   UNL     1     111.743 124.104 137.001  0.00  0.00    +0.000 C 
ENDBRANCH  10  22
BRANCH  12  24
ATOM     24  O   UNL     1     112.011 127.295 140.361  0.00  0.00    +0.000 OA
ATOM     25  C   UNL     1     111.562 126.805 140.849  0.00  0.00    +0.000 C 
ENDBRANCH  12  24
BRANCH   6  26
ATOM     26  O   UNL     1     112.164 127.451 136.532  0.00  0.00    +0.000 OA
BRANCH  26  28
ATOM     27  O   UNL     1     113.475 126.897 136.404  0.00  0.00    +0.000 OA
ATOM     28  C   UNL     1     112.944 127.515 136.272  0.00  0.00    +0.000 C 
BRANCH  28  29
ATOM     29  C   UNL     1     113.194 128.197 135.881  0.00  0.00    +0.000 C 
ATOM     30  C   UNL     1     112.642 128.690 135.517  0.00  0.00    +0.000 C 
BRANCH  29  31
ATOM     31  C   UNL     1     113.997 128.386 135.854  0.00  0.00    +0.000 C 
ATOM     32  C   UNL     1     114.240 129.114 135.552  0.00  0.00    +0.000 C 
ENDBRANCH  29  31
ENDBRANCH  28  29
ENDBRANCH  26  28
ENDBRANCH   6  26
TORSDOF 8
ENDMDL
MODEL 6
REMARK VINA RESULT:      -7.4      1.641      2.850
REMARK  Name = 15736236
REMARK  8 active torsions:
REMARK  status: ('A' for Active; 'I' for Inactive)
REMARK    1  A    between atoms: O_2  and  C_13
REMARK    2  A    between atoms: O_2  and  C_18
REMARK    3  A    between atoms: O_3  and  C_15
REMARK    4  A    between atoms: O_4  and  C_19
REMARK    5  A    between atoms: O_5  and  C_21
REMARK    6  A    between atoms: C_10  and  C_14
REMARK    7  A    between atoms: C_10  and  C_18
REMARK    8  A    between atoms: C_17  and  C_23
REMARK                            x       y       z     vdW  Elec       q    Type
REMARK                         _______ _______ _______ _____ _____    ______ ____
ROOT
ATOM      1  O   UNL     1     112.342 126.706 137.156  0.00  0.00    +0.000 OA
ATOM      2  O   UNL     1     111.463 128.909 135.496  0.00  0.00    +0.000 OA
ATOM      3  O   UNL     1     111.176 127.558 135.075  0.00  0.00    +0.000 OA
ATOM      4  C   UNL     1     112.278 127.548 136.996  0.00  0.00    +0.000 A 
ATOM      5  C   UNL     1     111.898 127.822 136.317  0.00  0.00    +0.000 A 
ATOM      6  C   UNL     1     112.603 128.084 137.532  0.00  0.00    +0.000 A 
ATOM      7  C   UNL     1     112.549 128.894 137.389  0.00  0.00    +0.000 A 
ATOM      8  C   UNL     1     111.843 128.634 136.174  0.00  0.00    +0.000 A 
ATOM      9  C   UNL     1     112.004 126.142 136.601  0.00  0.00    +0.000 A 
ATOM     10  C   UNL     1     112.168 129.169 136.711  0.00  0.00    +0.000 A 
ATOM     11  C   UNL     1     111.555 127.275 135.751  0.00  0.00    +0.000 A 
ATOM     12  C   UNL     1     111.609 126.428 135.894  0.00  0.00    +0.000 A 
ENDROOT
BRANCH   9  14
ATOM     13  O   UNL     1     112.230 122.902 137.180  0.00  0.00    +0.000 OA
ATOM     14  C   UNL     1     112.061 125.332 136.746  0.00  0.00    +0.000 A 
ATOM     15  C   UNL     1     111.473 124.948 137.178  0.00  0.00    +0.000 A 
ATOM     16  C   UNL     1     112.706 124.906 136.459  0.00  0.00    +0.000 A 
ATOM     17  C   UNL     1     111.529 124.138 137.323  0.00  0.00    +0.000 A 
ATOM     18  C   UNL     1     112.763 124.096 136.603  0.00  0.00    +0.000 A 
ATOM     19  C   UNL     1     112.174 123.711 137.036  0.00  0.00    +0.000 A 
ENDBRANCH   9  14
BRANCH   7  20
ATOM     20  O   UNL     1     112.874 129.431 137.925  0.00  0.00    +0.000 OA
ATOM     21  C   UNL     1     113.533 129.878 137.713  0.00  0.00    +0.000 C 
ENDBRANCH   7  20
BRANCH  10  22
ATOM     22  O   UNL     1     112.114 129.981 136.568  0.00  0.00    +0.000 OA
ATOM     23  C   UNL     1     111.380 130.357 136.602  0.00  0.00    +0.000 C 
ENDBRANCH  10  22
BRANCH  12  24
ATOM     24  O   UNL     1     111.282 125.895 135.356  0.00  0.00    +0.000 OA
ATOM     25  C   UNL     1     110.657 126.129 134.870  0.00  0.00    +0.000 C 
ENDBRANCH  12  24
BRANCH   6  26
ATOM     26  O   UNL     1     112.983 127.810 138.210  0.00  0.00    +0.000 OA
BRANCH  26  28
ATOM     27  O   UNL     1     111.805 128.052 138.981  0.00  0.00    +0.000 OA
ATOM     28  C   UNL     1     112.565 127.736 138.917  0.00  0.00    +0.000 C 
BRANCH  28  29
ATOM     29  C   UNL     1     112.905 127.346 139.560  0.00  0.00    +0.000 C 
ATOM     30  C   UNL     1     113.715 127.198 139.570  0.00  0.00    +0.000 C 
BRANCH  29  31
ATOM     31  C   UNL     1     112.433 127.106 140.193  0.00  0.00    +0.000 C 
ATOM     32  C   UNL     1     112.770 126.702 140.828  0.00  0.00    +0.000 C 
ENDBRANCH  29  31
ENDBRANCH  28  29
ENDBRANCH  26  28
ENDBRANCH   6  26
TORSDOF 8
ENDMDL
MODEL 7
REMARK VINA RESULT:      -7.3     12.955     14.103
REMARK  Name = 15736236
REMARK  8 active torsions:
REMARK  status: ('A' for Active; 'I' for Inactive)
REMARK    1  A    between atoms: O_2  and  C_13
REMARK    2  A    between atoms: O_2  and  C_18
REMARK    3  A    between atoms: O_3  and  C_15
REMARK    4  A    between atoms: O_4  and  C_19
REMARK    5  A    between atoms: O_5  and  C_21
REMARK    6  A    between atoms: C_10  and  C_14
REMARK    7  A    between atoms: C_10  and  C_18
REMARK    8  A    between atoms: C_17  and  C_23
REMARK                            x       y       z     vdW  Elec       q    Type
REMARK                         _______ _______ _______ _____ _____    ______ ____
ROOT
ATOM      1  O   UNL     1     104.513 124.703 146.852  0.00  0.00    +0.000 OA
ATOM      2  O   UNL     1     103.142 122.899 145.051  0.00  0.00    +0.000 OA
ATOM      3  O   UNL     1     104.412 123.456 144.651  0.00  0.00    +0.000 OA
ATOM      4  C   UNL     1     103.847 124.195 146.660  0.00  0.00    +0.000 A 
ATOM      5  C   UNL     1     103.817 123.790 145.942  0.00  0.00    +0.000 A 
ATOM      6  C   UNL     1     103.233 124.115 147.205  0.00  0.00    +0.000 A 
ATOM      7  C   UNL     1     102.588 123.630 147.032  0.00  0.00    +0.000 A 
ATOM      8  C   UNL     1     103.172 123.305 145.769  0.00  0.00    +0.000 A 
ATOM      9  C   UNL     1     105.156 124.790 146.289  0.00  0.00    +0.000 A 
ATOM     10  C   UNL     1     102.558 123.225 146.314  0.00  0.00    +0.000 A 
ATOM     11  C   UNL     1     104.450 123.865 145.367  0.00  0.00    +0.000 A 
ATOM     12  C   UNL     1     105.125 124.369 145.541  0.00  0.00    +0.000 A 
ENDROOT
BRANCH   9  14
ATOM     13  O   UNL     1     107.730 126.732 146.992  0.00  0.00    +0.000 OA
ATOM     14  C   UNL     1     105.800 125.276 146.464  0.00  0.00    +0.000 A 
ATOM     15  C   UNL     1     105.805 126.061 146.213  0.00  0.00    +0.000 A 
ATOM     16  C   UNL     1     106.438 124.976 146.892  0.00  0.00    +0.000 A 
ATOM     17  C   UNL     1     106.449 126.547 146.388  0.00  0.00    +0.000 A 
ATOM     18  C   UNL     1     107.082 125.460 147.069  0.00  0.00    +0.000 A 
ATOM     19  C   UNL     1     107.087 126.247 146.816  0.00  0.00    +0.000 A 
ENDBRANCH   9  14
BRANCH   7  20
ATOM     20  O   UNL     1     101.974 123.550 147.577  0.00  0.00    +0.000 OA
ATOM     21  C   UNL     1     101.835 122.823 147.939  0.00  0.00    +0.000 C 
ENDBRANCH   7  20
BRANCH  10  22
ATOM     22  O   UNL     1     101.913 122.740 146.141  0.00  0.00    +0.000 OA
ATOM     23  C   UNL     1     101.378 122.959 145.552  0.00  0.00    +0.000 C 
ENDBRANCH  10  22
BRANCH  12  24
ATOM     24  O   UNL     1     105.737 124.446 144.994  0.00  0.00    +0.000 OA
ATOM     25  C   UNL     1     105.589 124.338 144.189  0.00  0.00    +0.000 C 
ENDBRANCH  12  24
BRANCH   6  26
ATOM     26  O   UNL     1     103.263 124.520 147.923  0.00  0.00    +0.000 OA
BRANCH  26  28
ATOM     27  O   UNL     1     102.358 125.507 147.426  0.00  0.00    +0.000 OA
ATOM     28  C   UNL     1     102.896 125.255 147.999  0.00  0.00    +0.000 C 
BRANCH  28  29
ATOM     29  C   UNL     1     103.066 125.737 148.646  0.00  0.00    +0.000 C 
ATOM     30  C   UNL     1     103.342 125.403 149.347  0.00  0.00    +0.000 C 
BRANCH  29  31
ATOM     31  C   UNL     1     102.960 126.554 148.590  0.00  0.00    +0.000 C 
ATOM     32  C   UNL     1     103.313 127.053 149.144  0.00  0.00    +0.000 C 
ENDBRANCH  29  31
ENDBRANCH  28  29
ENDBRANCH  26  28
ENDBRANCH   6  26
TORSDOF 8
ENDMDL
MODEL 8
REMARK VINA RESULT:      -7.3      2.824      3.545
REMARK  Name = 15736236
REMARK  8 active torsions:
REMARK  status: ('A' for Active; 'I' for Inactive)
REMARK    1  A    between atoms: O_2  and  C_13
REMARK    2  A    between atoms: O_2  and  C_18
REMARK    3  A    between atoms: O_3  and  C_15
REMARK    4  A    between atoms: O_4  and  C_19
REMARK    5  A    between atoms: O_5  and  C_21
REMARK    6  A    between atoms: C_10  and  C_14
REMARK    7  A    between atoms: C_10  and  C_18
REMARK    8  A    between atoms: C_17  and  C_23
REMARK                            x       y       z     vdW  Elec       q    Type
REMARK                         _______ _______ _______ _____ _____    ______ ____
ROOT
ATOM      1  O   UNL     1     112.527 126.357 138.275  0.00  0.00    +0.000 OA
ATOM      2  O   UNL     1     109.660 125.975 138.364  0.00  0.00    +0.000 OA
ATOM      3  O   UNL     1     110.426 125.288 137.352  0.00  0.00    +0.000 OA
ATOM      4  C   UNL     1     111.759 126.515 138.625  0.00  0.00    +0.000 A 
ATOM      5  C   UNL     1     111.076 126.165 138.322  0.00  0.00    +0.000 A 
ATOM      6  C   UNL     1     111.709 127.024 139.272  0.00  0.00    +0.000 A 
ATOM      7  C   UNL     1     110.977 127.183 139.617  0.00  0.00    +0.000 A 
ATOM      8  C   UNL     1     110.343 126.325 138.667  0.00  0.00    +0.000 A 
ATOM      9  C   UNL     1     112.586 125.827 137.600  0.00  0.00    +0.000 A 
ATOM     10  C   UNL     1     110.294 126.834 139.314  0.00  0.00    +0.000 A 
ATOM     11  C   UNL     1     111.114 125.634 137.649  0.00  0.00    +0.000 A 
ATOM     12  C   UNL     1     111.874 125.463 137.285  0.00  0.00    +0.000 A 
ENDROOT
BRANCH   9  14
ATOM     13  O   UNL     1     115.520 125.196 136.231  0.00  0.00    +0.000 OA
ATOM     14  C   UNL     1     113.319 125.670 137.258  0.00  0.00    +0.000 A 
ATOM     15  C   UNL     1     113.624 126.177 136.683  0.00  0.00    +0.000 A 
ATOM     16  C   UNL     1     113.748 125.005 137.490  0.00  0.00    +0.000 A 
ATOM     17  C   UNL     1     114.358 126.019 136.341  0.00  0.00    +0.000 A 
ATOM     18  C   UNL     1     114.482 124.846 137.148  0.00  0.00    +0.000 A 
ATOM     19  C   UNL     1     114.787 125.354 136.573  0.00  0.00    +0.000 A 
ENDBRANCH   9  14
BRANCH   7  20
ATOM     20  O   UNL     1     110.927 127.692 140.264  0.00  0.00    +0.000 OA
ATOM     21  C   UNL     1     110.562 128.427 140.185  0.00  0.00    +0.000 C 
ENDBRANCH   7  20
BRANCH  10  22
ATOM     22  O   UNL     1     109.561 126.993 139.659  0.00  0.00    +0.000 OA
ATOM     23  C   UNL     1     109.167 126.405 140.082  0.00  0.00    +0.000 C 
ENDBRANCH  10  22
BRANCH  12  24
ATOM     24  O   UNL     1     111.920 124.954 136.637  0.00  0.00    +0.000 OA
ATOM     25  C   UNL     1     111.259 124.833 136.159  0.00  0.00    +0.000 C 
ENDBRANCH  12  24
BRANCH   6  26
ATOM     26  O   UNL     1     112.392 127.374 139.575  0.00  0.00    +0.000 OA
BRANCH  26  28
ATOM     27  O   UNL     1     112.456 126.378 140.599  0.00  0.00    +0.000 OA
ATOM     28  C   UNL     1     112.793 127.020 140.203  0.00  0.00    +0.000 C 
BRANCH  28  29
ATOM     29  C   UNL     1     113.531 127.307 140.436  0.00  0.00    +0.000 C 
ATOM     30  C   UNL     1     113.748 128.081 140.253  0.00  0.00    +0.000 C 
BRANCH  29  31
ATOM     31  C   UNL     1     114.050 126.820 140.853  0.00  0.00    +0.000 C 
ATOM     32  C   UNL     1     114.837 127.046 140.952  0.00  0.00    +0.000 C 
ENDBRANCH  29  31
ENDBRANCH  28  29
ENDBRANCH  26  28
ENDBRANCH   6  26
TORSDOF 8
ENDMDL
MODEL 9
REMARK VINA RESULT:      -7.3      1.821      2.528
REMARK  Name = 15736236
REMARK  8 active torsions:
REMARK  status: ('A' for Active; 'I' for Inactive)
REMARK    1  A    between atoms: O_2  and  C_13
REMARK    2  A    between atoms: O_2  and  C_18
REMARK    3  A    between atoms: O_3  and  C_15
REMARK    4  A    between atoms: O_4  and  C_19
REMARK    5  A    between atoms: O_5  and  C_21
REMARK    6  A    between atoms: C_10  and  C_14
REMARK    7  A    between atoms: C_10  and  C_18
REMARK    8  A    between atoms: C_17  and  C_23
REMARK                            x       y       z     vdW  Elec       q    Type
REMARK                         _______ _______ _______ _____ _____    ______ ____
ROOT
ATOM      1  O   UNL     1     110.636 127.989 136.148  0.00  0.00    +0.000 OA
ATOM      2  O   UNL     1     108.311 129.670 135.767  0.00  0.00    +0.000 OA
ATOM      3  O   UNL     1     108.146 128.236 135.764  0.00  0.00    +0.000 OA
ATOM      4  C   UNL     1     110.273 128.764 136.081  0.00  0.00    +0.000 A 
ATOM      5  C   UNL     1     109.461 128.842 135.956  0.00  0.00    +0.000 A 
ATOM      6  C   UNL     1     110.746 129.438 136.143  0.00  0.00    +0.000 A 
ATOM      7  C   UNL     1     110.409 130.187 136.080  0.00  0.00    +0.000 A 
ATOM      8  C   UNL     1     109.123 129.593 135.892  0.00  0.00    +0.000 A 
ATOM      9  C   UNL     1     110.148 127.285 136.085  0.00  0.00    +0.000 A 
ATOM     10  C   UNL     1     109.597 130.265 135.954  0.00  0.00    +0.000 A 
ATOM     11  C   UNL     1     108.957 128.150 135.890  0.00  0.00    +0.000 A 
ATOM     12  C   UNL     1     109.303 127.365 135.955  0.00  0.00    +0.000 A 
ENDROOT
BRANCH   9  14
ATOM     13  O   UNL     1     111.510 124.290 136.338  0.00  0.00    +0.000 OA
ATOM     14  C   UNL     1     110.489 126.536 136.148  0.00  0.00    +0.000 A 
ATOM     15  C   UNL     1     110.581 126.186 136.889  0.00  0.00    +0.000 A 
ATOM     16  C   UNL     1     110.736 126.137 135.470  0.00  0.00    +0.000 A 
ATOM     17  C   UNL     1     110.922 125.437 136.953  0.00  0.00    +0.000 A 
ATOM     18  C   UNL     1     111.077 125.388 135.533  0.00  0.00    +0.000 A 
ATOM     19  C   UNL     1     111.170 125.038 136.275  0.00  0.00    +0.000 A 
ENDBRANCH   9  14
BRANCH   7  20
ATOM     20  O   UNL     1     110.882 130.860 136.141  0.00  0.00    +0.000 OA
ATOM     21  C   UNL     1     110.813 131.354 136.797  0.00  0.00    +0.000 C 
ENDBRANCH   7  20
BRANCH  10  22
ATOM     22  O   UNL     1     109.259 131.015 135.891  0.00  0.00    +0.000 OA
ATOM     23  C   UNL     1     108.956 131.272 135.168  0.00  0.00    +0.000 C 
ENDBRANCH  10  22
BRANCH  12  24
ATOM     24  O   UNL     1     108.826 126.695 135.892  0.00  0.00    +0.000 OA
ATOM     25  C   UNL     1     108.128 126.723 135.452  0.00  0.00    +0.000 C 
ENDBRANCH  12  24
BRANCH   6  26
ATOM     26  O   UNL     1     111.558 129.360 136.268  0.00  0.00    +0.000 OA
BRANCH  26  28
ATOM     27  O   UNL     1     111.790 129.493 134.864  0.00  0.00    +0.000 OA
ATOM     28  C   UNL     1     112.076 129.354 135.626  0.00  0.00    +0.000 C 
BRANCH  28  29
ATOM     29  C   UNL     1     112.879 129.208 135.745  0.00  0.00    +0.000 C 
ATOM     30  C   UNL     1     113.176 129.135 136.511  0.00  0.00    +0.000 C 
BRANCH  29  31
ATOM     31  C   UNL     1     113.385 129.136 135.097  0.00  0.00    +0.000 C 
ATOM     32  C   UNL     1     114.183 128.960 135.215  0.00  0.00    +0.000 C 
ENDBRANCH  29  31
ENDBRANCH  28  29
ENDBRANCH  26  28
ENDBRANCH   6  26
TORSDOF 8
ENDMDL
MODEL 10
REMARK VINA RESULT:      -7.3      2.050      3.522
REMARK  Name = 15736236
REMARK  8 active torsions:
REMARK  status: ('A' for Active; 'I' for Inactive)
REMARK    1  A    between atoms: O_2  and  C_13
REMARK    2  A    between atoms: O_2  and  C_18
REMARK    3  A    between atoms: O_3  and  C_15
REMARK    4  A    between atoms: O_4  and  C_19
REMARK    5  A    between atoms: O_5  and  C_21
REMARK    6  A    between atoms: C_10  and  C_14
REMARK    7  A    between atoms: C_10  and  C_18
REMARK    8  A    between atoms: C_17  and  C_23
REMARK                            x       y       z     vdW  Elec       q    Type
REMARK                         _______ _______ _______ _____ _____    ______ ____
ROOT
ATOM      1  O   UNL     1     112.145 126.795 138.063  0.00  0.00    +0.000 OA
ATOM      2  O   UNL     1     110.343 128.381 136.446  0.00  0.00    +0.000 OA
ATOM      3  O   UNL     1     110.745 128.880 137.739  0.00  0.00    +0.000 OA
ATOM      4  C   UNL     1     111.689 126.916 137.346  0.00  0.00    +0.000 A 
ATOM      5  C   UNL     1     111.233 127.596 137.243  0.00  0.00    +0.000 A 
ATOM      6  C   UNL     1     111.709 126.341 136.755  0.00  0.00    +0.000 A 
ATOM      7  C   UNL     1     111.275 126.445 136.062  0.00  0.00    +0.000 A 
ATOM      8  C   UNL     1     110.799 127.701 136.549  0.00  0.00    +0.000 A 
ATOM      9  C   UNL     1     112.128 127.392 138.683  0.00  0.00    +0.000 A 
ATOM     10  C   UNL     1     110.820 127.125 135.959  0.00  0.00    +0.000 A 
ATOM     11  C   UNL     1     111.203 128.203 137.850  0.00  0.00    +0.000 A 
ATOM     12  C   UNL     1     111.654 128.100 138.575  0.00  0.00    +0.000 A 
ENDROOT
BRANCH   9  14
ATOM     13  O   UNL     1     113.870 126.964 141.452  0.00  0.00    +0.000 OA
ATOM     14  C   UNL     1     112.563 127.284 139.375  0.00  0.00    +0.000 A 
ATOM     15  C   UNL     1     112.248 126.845 139.997  0.00  0.00    +0.000 A 
ATOM     16  C   UNL     1     113.315 127.617 139.445  0.00  0.00    +0.000 A 
ATOM     17  C   UNL     1     112.683 126.738 140.690  0.00  0.00    +0.000 A 
ATOM     18  C   UNL     1     113.751 127.511 140.137  0.00  0.00    +0.000 A 
ATOM     19  C   UNL     1     113.434 127.071 140.760  0.00  0.00    +0.000 A 
ENDBRANCH   9  14
BRANCH   7  20
ATOM     20  O   UNL     1     111.296 125.870 135.470  0.00  0.00    +0.000 OA
ATOM     21  C   UNL     1     110.625 125.419 135.310  0.00  0.00    +0.000 C 
ENDBRANCH   7  20
BRANCH  10  22
ATOM     22  O   UNL     1     110.385 127.230 135.265  0.00  0.00    +0.000 OA
ATOM     23  C   UNL     1     110.605 127.814 134.724  0.00  0.00    +0.000 C 
ENDBRANCH  10  22
BRANCH  12  24
ATOM     24  O   UNL     1     111.630 128.678 139.164  0.00  0.00    +0.000 OA
ATOM     25  C   UNL     1     111.000 129.210 139.196  0.00  0.00    +0.000 C 
ENDBRANCH  12  24
BRANCH   6  26
ATOM     26  O   UNL     1     112.165 125.660 136.858  0.00  0.00    +0.000 OA
BRANCH  26  28
ATOM     27  O   UNL     1     113.221 126.240 136.090  0.00  0.00    +0.000 OA
ATOM     28  C   UNL     1     112.941 125.637 136.579  0.00  0.00    +0.000 C 
BRANCH  28  29
ATOM     29  C   UNL     1     113.436 125.011 136.788  0.00  0.00    +0.000 C 
ATOM     30  C   UNL     1     113.115 124.272 136.961  0.00  0.00    +0.000 C 
BRANCH  29  31
ATOM     31  C   UNL     1     114.252 125.127 136.825  0.00  0.00    +0.000 C 
ATOM     32  C   UNL     1     114.719 124.627 137.286  0.00  0.00    +0.000 C 
ENDBRANCH  29  31
ENDBRANCH  28  29
ENDBRANCH  26  28
ENDBRANCH   6  26
TORSDOF 8
ENDMDL
