MODEL 1
REMARK VINA RESULT:     -10.7      0.000      0.000
REMARK  Name = 44257851
REMARK  10 active torsions:
REMARK  status: ('A' for Active; 'I' for Inactive)
REMARK    1  A    between atoms: O_1  and  C_21
REMARK    2  A    between atoms: O_1  and  C_24
REMARK    3  A    between atoms: O_7  and  C_30
REMARK    4  A    between atoms: O_7  and  C_38
REMARK    5  A    between atoms: O_15  and  C_37
REMARK    6  A    between atoms: O_15  and  C_43
REMARK    7  A    between atoms: C_23  and  C_31
REMARK    8  A    between atoms: C_29  and  C_32
REMARK    9  A    between atoms: C_35  and  C_39
REMARK   10  A    between atoms: C_48  and  C_49
REMARK                            x       y       z     vdW  Elec       q    Type
REMARK                         _______ _______ _______ _____ _____    ______ ____
ROOT
ATOM      1  O   UNL     1     111.739 126.732 137.941  0.00  0.00    +0.000 OA
ATOM      2  O   UNL     1     111.298 124.529 136.124  0.00  0.00    +0.000 OA
ATOM      3  O   UNL     1     111.587 124.299 137.519  0.00  0.00    +0.000 OA
ATOM      4  C   UNL     1     111.277 126.738 135.755  0.00  0.00    +0.000 A 
ATOM      5  C   UNL     1     111.451 127.021 136.547  0.00  0.00    +0.000 A 
ATOM      6  C   UNL     1     111.224 125.893 135.608  0.00  0.00    +0.000 A 
ATOM      7  C   UNL     1     111.571 126.455 137.182  0.00  0.00    +0.000 A 
ATOM      8  C   UNL     1     111.347 125.342 136.256  0.00  0.00    +0.000 A 
ATOM      9  C   UNL     1     111.521 125.644 137.041  0.00  0.00    +0.000 A 
ATOM     10  C   UNL     1     111.856 126.198 138.559  0.00  0.00    +0.000 A 
ATOM     11  C   UNL     1     111.638 125.110 137.659  0.00  0.00    +0.000 A 
ATOM     12  C   UNL     1     111.805 125.387 138.418  0.00  0.00    +0.000 A 
ENDROOT
BRANCH  10  16
ATOM     13  C   UNL     1     112.357 127.031 140.835  0.00  0.00    +0.000 A 
ATOM     14  C   UNL     1     112.971 126.800 140.335  0.00  0.00    +0.000 A 
ATOM     15  C   UNL     1     111.575 126.984 140.576  0.00  0.00    +0.000 A 
ATOM     16  C   UNL     1     112.023 126.476 139.317  0.00  0.00    +0.000 A 
ATOM     17  C   UNL     1     112.804 126.523 139.576  0.00  0.00    +0.000 A 
ATOM     18  C   UNL     1     111.409 126.706 139.817  0.00  0.00    +0.000 A 
BRANCH  13  19
ATOM     19  O   UNL     1     112.524 127.308 141.594  0.00  0.00    +0.000 OA
BRANCH  19  28
ATOM     20  O   UNL     1     113.005 128.620 141.293  0.00  0.00    +0.000 OA
ATOM     21  O   UNL     1     112.545 130.553 142.197  0.00  0.00    +0.000 OA
ATOM     22  O   UNL     1     111.595 129.552 143.100  0.00  0.00    +0.000 OA
ATOM     23  O   UNL     1     111.585 127.929 142.799  0.00  0.00    +0.000 OA
ATOM     24  C   UNL     1     112.540 129.742 142.046  0.00  0.00    +0.000 C 
ATOM     25  C   UNL     1     112.065 129.241 142.498  0.00  0.00    +0.000 C 
ATOM     26  C   UNL     1     113.010 129.431 141.443  0.00  0.00    +0.000 C 
ATOM     27  C   UNL     1     112.060 128.430 142.347  0.00  0.00    +0.000 C 
ATOM     28  C   UNL     1     112.529 128.119 141.745  0.00  0.00    +0.000 C 
BRANCH  26  30
ATOM     29  O   UNL     1     114.287 129.760 140.892  0.00  0.00    +0.000 OA
ATOM     30  C   UNL     1     113.485 129.932 140.991  0.00  0.00    +0.000 C 
ENDBRANCH  26  30
ENDBRANCH  19  28
ENDBRANCH  13  19
ENDBRANCH  10  16
BRANCH   4  31
ATOM     31  O   UNL     1     111.160 127.275 135.138  0.00  0.00    +0.000 OA
BRANCH  31  39
ATOM     32  O   UNL     1     109.808 127.617 135.449  0.00  0.00    +0.000 OA
ATOM     33  O   UNL     1     110.262 129.970 134.826  0.00  0.00    +0.000 OA
ATOM     34  O   UNL     1     111.462 128.843 134.723  0.00  0.00    +0.000 OA
ATOM     35  C   UNL     1     109.359 128.965 135.293  0.00  0.00    +0.000 C 
ATOM     36  C   UNL     1     110.110 129.186 135.034  0.00  0.00    +0.000 C 
ATOM     37  C   UNL     1     109.207 128.181 135.501  0.00  0.00    +0.000 C 
ATOM     38  C   UNL     1     110.711 128.621 134.982  0.00  0.00    +0.000 C 
ATOM     39  C   UNL     1     110.560 127.838 135.190  0.00  0.00    +0.000 C 
BRANCH  37  41
ATOM     40  O   UNL     1     108.214 127.174 135.704  0.00  0.00    +0.000 OA
ATOM     41  C   UNL     1     108.456 127.961 135.760  0.00  0.00    +0.000 C 
ENDBRANCH  37  41
BRANCH  35  42
ATOM     42  O   UNL     1     108.759 129.529 135.344  0.00  0.00    +0.000 OA
BRANCH  42  47
ATOM     43  O   UNL     1     109.110 129.811 136.700  0.00  0.00    +0.000 OA
ATOM     44  O   UNL     1     107.825 130.888 135.303  0.00  0.00    +0.000 OA
ATOM     45  O   UNL     1     107.708 131.850 136.639  0.00  0.00    +0.000 OA
ATOM     46  O   UNL     1     108.526 131.453 138.015  0.00  0.00    +0.000 OA
ATOM     47  C   UNL     1     108.701 130.010 136.012  0.00  0.00    +0.000 C 
ATOM     48  C   UNL     1     108.233 130.690 135.992  0.00  0.00    +0.000 C 
ATOM     49  C   UNL     1     108.175 131.171 136.659  0.00  0.00    +0.000 C 
ATOM     50  C   UNL     1     108.584 130.972 137.348  0.00  0.00    +0.000 C 
ATOM     51  C   UNL     1     109.052 130.292 137.369  0.00  0.00    +0.000 C 
BRANCH  51  53
ATOM     52  O   UNL     1     109.231 129.435 138.498  0.00  0.00    +0.000 OA
ATOM     53  C   UNL     1     109.460 130.093 138.057  0.00  0.00    +0.000 C 
ENDBRANCH  51  53
ENDBRANCH  42  47
ENDBRANCH  35  42
ENDBRANCH  31  39
ENDBRANCH   4  31
TORSDOF 10
ENDMDL
MODEL 2
REMARK VINA RESULT:     -10.7      1.475      5.741
REMARK  Name = 44257851
REMARK  10 active torsions:
REMARK  status: ('A' for Active; 'I' for Inactive)
REMARK    1  A    between atoms: O_1  and  C_21
REMARK    2  A    between atoms: O_1  and  C_24
REMARK    3  A    between atoms: O_7  and  C_30
REMARK    4  A    between atoms: O_7  and  C_38
REMARK    5  A    between atoms: O_15  and  C_37
REMARK    6  A    between atoms: O_15  and  C_43
REMARK    7  A    between atoms: C_23  and  C_31
REMARK    8  A    between atoms: C_29  and  C_32
REMARK    9  A    between atoms: C_35  and  C_39
REMARK   10  A    between atoms: C_48  and  C_49
REMARK                            x       y       z     vdW  Elec       q    Type
REMARK                         _______ _______ _______ _____ _____    ______ ____
ROOT
ATOM      1  O   UNL     1     110.262 127.089 136.603  0.00  0.00    +0.000 OA
ATOM      2  O   UNL     1     111.135 124.500 135.660  0.00  0.00    +0.000 OA
ATOM      3  O   UNL     1     110.534 125.457 134.762  0.00  0.00    +0.000 OA
ATOM      4  C   UNL     1     111.217 125.399 137.710  0.00  0.00    +0.000 A 
ATOM      5  C   UNL     1     110.861 126.164 137.549  0.00  0.00    +0.000 A 
ATOM      6  C   UNL     1     111.311 124.832 137.070  0.00  0.00    +0.000 A 
ATOM      7  C   UNL     1     110.604 126.352 136.751  0.00  0.00    +0.000 A 
ATOM      8  C   UNL     1     111.048 125.038 136.279  0.00  0.00    +0.000 A 
ATOM      9  C   UNL     1     110.694 125.808 136.138  0.00  0.00    +0.000 A 
ATOM     10  C   UNL     1     110.012 127.281 135.841  0.00  0.00    +0.000 A 
ATOM     11  C   UNL     1     110.444 126.001 135.375  0.00  0.00    +0.000 A 
ATOM     12  C   UNL     1     110.102 126.737 135.227  0.00  0.00    +0.000 A 
ENDROOT
BRANCH  10  16
ATOM     13  C   UNL     1     108.989 129.490 135.394  0.00  0.00    +0.000 A 
ATOM     14  C   UNL     1     108.570 128.919 135.817  0.00  0.00    +0.000 A 
ATOM     15  C   UNL     1     109.749 129.325 135.120  0.00  0.00    +0.000 A 
ATOM     16  C   UNL     1     109.671 128.017 135.692  0.00  0.00    +0.000 A 
ATOM     17  C   UNL     1     108.911 128.183 135.966  0.00  0.00    +0.000 A 
ATOM     18  C   UNL     1     110.090 128.588 135.269  0.00  0.00    +0.000 A 
BRANCH  13  19
ATOM     19  O   UNL     1     108.648 130.227 135.246  0.00  0.00    +0.000 OA
BRANCH  19  28
ATOM     20  O   UNL     1     109.296 131.033 136.231  0.00  0.00    +0.000 OA
ATOM     21  O   UNL     1     108.489 132.486 137.647  0.00  0.00    +0.000 OA
ATOM     22  O   UNL     1     107.113 132.001 136.877  0.00  0.00    +0.000 OA
ATOM     23  O   UNL     1     107.192 130.872 135.677  0.00  0.00    +0.000 OA
ATOM     24  C   UNL     1     108.529 131.921 137.047  0.00  0.00    +0.000 C 
ATOM     25  C   UNL     1     107.841 131.679 136.662  0.00  0.00    +0.000 C 
ATOM     26  C   UNL     1     109.257 131.598 136.832  0.00  0.00    +0.000 C 
ATOM     27  C   UNL     1     107.881 131.114 136.062  0.00  0.00    +0.000 C 
ATOM     28  C   UNL     1     108.608 130.791 135.846  0.00  0.00    +0.000 C 
BRANCH  26  30
ATOM     29  O   UNL     1     110.609 132.059 136.776  0.00  0.00    +0.000 OA
ATOM     30  C   UNL     1     109.946 131.840 137.216  0.00  0.00    +0.000 C 
ENDBRANCH  26  30
ENDBRANCH  19  28
ENDBRANCH  13  19
ENDBRANCH  10  16
BRANCH   4  31
ATOM     31  O   UNL     1     111.467 125.209 138.473  0.00  0.00    +0.000 OA
BRANCH  31  39
ATOM     32  O   UNL     1     112.755 125.825 138.525  0.00  0.00    +0.000 OA
ATOM     33  O   UNL     1     112.168 126.867 140.693  0.00  0.00    +0.000 OA
ATOM     34  O   UNL     1     111.076 125.903 139.918  0.00  0.00    +0.000 OA
ATOM     35  C   UNL     1     113.105 126.655 139.635  0.00  0.00    +0.000 C 
ATOM     36  C   UNL     1     112.364 126.520 139.970  0.00  0.00    +0.000 C 
ATOM     37  C   UNL     1     113.301 126.308 138.912  0.00  0.00    +0.000 C 
ATOM     38  C   UNL     1     111.817 126.038 139.582  0.00  0.00    +0.000 C 
ATOM     39  C   UNL     1     112.013 125.691 138.860  0.00  0.00    +0.000 C 
BRANCH  37  41
ATOM     40  O   UNL     1     114.423 125.841 138.160  0.00  0.00    +0.000 OA
ATOM     41  C   UNL     1     114.042 126.443 138.577  0.00  0.00    +0.000 C 
ENDBRANCH  37  41
BRANCH  35  42
ATOM     42  O   UNL     1     113.652 127.137 140.022  0.00  0.00    +0.000 OA
BRANCH  42  47
ATOM     43  O   UNL     1     113.064 128.295 139.425  0.00  0.00    +0.000 OA
ATOM     44  O   UNL     1     114.601 128.104 140.963  0.00  0.00    +0.000 OA
ATOM     45  O   UNL     1     114.489 129.745 140.836  0.00  0.00    +0.000 OA
ATOM     46  O   UNL     1     113.427 130.420 139.768  0.00  0.00    +0.000 OA
ATOM     47  C   UNL     1     113.595 127.958 139.958  0.00  0.00    +0.000 C 
ATOM     48  C   UNL     1     114.070 128.442 140.429  0.00  0.00    +0.000 C 
ATOM     49  C   UNL     1     114.014 129.262 140.366  0.00  0.00    +0.000 C 
ATOM     50  C   UNL     1     113.483 129.600 139.832  0.00  0.00    +0.000 C 
ATOM     51  C   UNL     1     113.008 129.115 139.361  0.00  0.00    +0.000 C 
BRANCH  51  53
ATOM     52  O   UNL     1     112.593 129.361 138.016  0.00  0.00    +0.000 OA
ATOM     53  C   UNL     1     112.477 129.452 138.828  0.00  0.00    +0.000 C 
ENDBRANCH  51  53
ENDBRANCH  42  47
ENDBRANCH  35  42
ENDBRANCH  31  39
ENDBRANCH   4  31
TORSDOF 10
ENDMDL
MODEL 3
REMARK VINA RESULT:     -10.4      1.724      5.559
REMARK  Name = 44257851
REMARK  10 active torsions:
REMARK  status: ('A' for Active; 'I' for Inactive)
REMARK    1  A    between atoms: O_1  and  C_21
REMARK    2  A    between atoms: O_1  and  C_24
REMARK    3  A    between atoms: O_7  and  C_30
REMARK    4  A    between atoms: O_7  and  C_38
REMARK    5  A    between atoms: O_15  and  C_37
REMARK    6  A    between atoms: O_15  and  C_43
REMARK    7  A    between atoms: C_23  and  C_31
REMARK    8  A    between atoms: C_29  and  C_32
REMARK    9  A    between atoms: C_35  and  C_39
REMARK   10  A    between atoms: C_48  and  C_49
REMARK                            x       y       z     vdW  Elec       q    Type
REMARK                         _______ _______ _______ _____ _____    ______ ____
ROOT
ATOM      1  O   UNL     1     110.246 128.094 136.277  0.00  0.00    +0.000 OA
ATOM      2  O   UNL     1     107.855 129.685 135.956  0.00  0.00    +0.000 OA
ATOM      3  O   UNL     1     107.853 128.269 135.673  0.00  0.00    +0.000 OA
ATOM      4  C   UNL     1     109.910 130.275 136.622  0.00  0.00    +0.000 A 
ATOM      5  C   UNL     1     110.305 129.514 136.575  0.00  0.00    +0.000 A 
ATOM      6  C   UNL     1     109.079 130.337 136.412  0.00  0.00    +0.000 A 
ATOM      7  C   UNL     1     109.863 128.823 136.320  0.00  0.00    +0.000 A 
ATOM      8  C   UNL     1     108.653 129.635 136.159  0.00  0.00    +0.000 A 
ATOM      9  C   UNL     1     109.064 128.882 136.119  0.00  0.00    +0.000 A 
ATOM     10  C   UNL     1     109.832 127.423 136.033  0.00  0.00    +0.000 A 
ATOM     11  C   UNL     1     108.650 128.211 135.874  0.00  0.00    +0.000 A 
ATOM     12  C   UNL     1     109.034 127.482 135.831  0.00  0.00    +0.000 A 
ENDROOT
BRANCH  10  16
ATOM     13  C   UNL     1     110.983 125.236 135.904  0.00  0.00    +0.000 A 
ATOM     14  C   UNL     1     110.961 125.731 135.244  0.00  0.00    +0.000 A 
ATOM     15  C   UNL     1     110.621 125.471 136.608  0.00  0.00    +0.000 A 
ATOM     16  C   UNL     1     110.216 126.694 135.989  0.00  0.00    +0.000 A 
ATOM     17  C   UNL     1     110.578 126.460 135.287  0.00  0.00    +0.000 A 
ATOM     18  C   UNL     1     110.237 126.200 136.650  0.00  0.00    +0.000 A 
BRANCH  13  19
ATOM     19  O   UNL     1     111.367 124.507 135.861  0.00  0.00    +0.000 OA
BRANCH  19  28
ATOM     20  O   UNL     1     112.681 124.958 136.194  0.00  0.00    +0.000 OA
ATOM     21  O   UNL     1     114.231 124.055 137.438  0.00  0.00    +0.000 OA
ATOM     22  O   UNL     1     113.034 122.926 137.561  0.00  0.00    +0.000 OA
ATOM     23  O   UNL     1     111.602 123.152 136.773  0.00  0.00    +0.000 OA
ATOM     24  C   UNL     1     113.515 124.168 137.044  0.00  0.00    +0.000 C 
ATOM     25  C   UNL     1     112.916 123.604 137.105  0.00  0.00    +0.000 C 
ATOM     26  C   UNL     1     113.397 124.846 136.588  0.00  0.00    +0.000 C 
ATOM     27  C   UNL     1     112.201 123.717 136.711  0.00  0.00    +0.000 C 
ATOM     28  C   UNL     1     112.082 124.394 136.256  0.00  0.00    +0.000 C 
BRANCH  26  30
ATOM     29  O   UNL     1     114.367 125.539 135.800  0.00  0.00    +0.000 OA
ATOM     30  C   UNL     1     113.996 125.410 136.526  0.00  0.00    +0.000 C 
ENDBRANCH  26  30
ENDBRANCH  19  28
ENDBRANCH  13  19
ENDBRANCH  10  16
BRANCH   4  31
ATOM     31  O   UNL     1     110.327 130.945 136.867  0.00  0.00    +0.000 OA
BRANCH  31  39
ATOM     32  O   UNL     1     110.446 130.731 138.274  0.00  0.00    +0.000 OA
ATOM     33  O   UNL     1     112.874 131.197 138.139  0.00  0.00    +0.000 OA
ATOM     34  O   UNL     1     111.945 131.256 136.776  0.00  0.00    +0.000 OA
ATOM     35  C   UNL     1     111.720 130.857 138.911  0.00  0.00    +0.000 C 
ATOM     36  C   UNL     1     112.065 131.042 138.185  0.00  0.00    +0.000 C 
ATOM     37  C   UNL     1     110.911 130.702 138.956  0.00  0.00    +0.000 C 
ATOM     38  C   UNL     1     111.600 131.071 137.503  0.00  0.00    +0.000 C 
ATOM     39  C   UNL     1     110.791 130.916 137.548  0.00  0.00    +0.000 C 
BRANCH  37  41
ATOM     40  O   UNL     1     109.820 130.815 139.873  0.00  0.00    +0.000 OA
ATOM     41  C   UNL     1     110.566 130.518 139.682  0.00  0.00    +0.000 C 
ENDBRANCH  37  41
BRANCH  35  42
ATOM     42  O   UNL     1     112.184 130.828 139.592  0.00  0.00    +0.000 OA
BRANCH  42  47
ATOM     43  O   UNL     1     112.421 129.431 139.410  0.00  0.00    +0.000 OA
ATOM     44  O   UNL     1     113.440 130.902 140.660  0.00  0.00    +0.000 OA
ATOM     45  O   UNL     1     114.305 129.541 141.011  0.00  0.00    +0.000 OA
ATOM     46  O   UNL     1     113.913 128.107 140.295  0.00  0.00    +0.000 OA
ATOM     47  C   UNL     1     112.616 130.147 139.767  0.00  0.00    +0.000 C 
ATOM     48  C   UNL     1     113.245 130.184 140.302  0.00  0.00    +0.000 C 
ATOM     49  C   UNL     1     113.677 129.504 140.478  0.00  0.00    +0.000 C 
ATOM     50  C   UNL     1     113.481 128.787 140.120  0.00  0.00    +0.000 C 
ATOM     51  C   UNL     1     112.853 128.750 139.585  0.00  0.00    +0.000 C 
BRANCH  51  53
ATOM     52  O   UNL     1     112.841 127.904 138.434  0.00  0.00    +0.000 OA
ATOM     53  C   UNL     1     112.657 128.033 139.228  0.00  0.00    +0.000 C 
ENDBRANCH  51  53
ENDBRANCH  42  47
ENDBRANCH  35  42
ENDBRANCH  31  39
ENDBRANCH   4  31
TORSDOF 10
ENDMDL
MODEL 4
REMARK VINA RESULT:     -10.3      1.383      2.416
REMARK  Name = 44257851
REMARK  10 active torsions:
REMARK  status: ('A' for Active; 'I' for Inactive)
REMARK    1  A    between atoms: O_1  and  C_21
REMARK    2  A    between atoms: O_1  and  C_24
REMARK    3  A    between atoms: O_7  and  C_30
REMARK    4  A    between atoms: O_7  and  C_38
REMARK    5  A    between atoms: O_15  and  C_37
REMARK    6  A    between atoms: O_15  and  C_43
REMARK    7  A    between atoms: C_23  and  C_31
REMARK    8  A    between atoms: C_29  and  C_32
REMARK    9  A    between atoms: C_35  and  C_39
REMARK   10  A    between atoms: C_48  and  C_49
REMARK                            x       y       z     vdW  Elec       q    Type
REMARK                         _______ _______ _______ _____ _____    ______ ____
ROOT
ATOM      1  O   UNL     1     112.798 126.246 138.460  0.00  0.00    +0.000 OA
ATOM      2  O   UNL     1     113.951 124.285 136.678  0.00  0.00    +0.000 OA
ATOM      3  O   UNL     1     114.775 125.033 137.597  0.00  0.00    +0.000 OA
ATOM      4  C   UNL     1     111.823 124.935 136.936  0.00  0.00    +0.000 A 
ATOM      5  C   UNL     1     111.923 125.522 137.555  0.00  0.00    +0.000 A 
ATOM      6  C   UNL     1     112.510 124.513 136.636  0.00  0.00    +0.000 A 
ATOM      7  C   UNL     1     112.708 125.681 137.866  0.00  0.00    +0.000 A 
ATOM      8  C   UNL     1     113.287 124.685 136.960  0.00  0.00    +0.000 A 
ATOM      9  C   UNL     1     113.367 125.276 137.578  0.00  0.00    +0.000 A 
ATOM     10  C   UNL     1     113.547 126.407 138.766  0.00  0.00    +0.000 A 
ATOM     11  C   UNL     1     114.116 125.437 137.884  0.00  0.00    +0.000 A 
ATOM     12  C   UNL     1     114.206 126.002 138.479  0.00  0.00    +0.000 A 
ENDROOT
BRANCH  10  16
ATOM     13  C   UNL     1     113.817 128.101 140.550  0.00  0.00    +0.000 A 
ATOM     14  C   UNL     1     113.619 128.336 139.784  0.00  0.00    +0.000 A 
ATOM     15  C   UNL     1     113.925 127.302 140.721  0.00  0.00    +0.000 A 
ATOM     16  C   UNL     1     113.637 126.972 139.361  0.00  0.00    +0.000 A 
ATOM     17  C   UNL     1     113.529 127.771 139.190  0.00  0.00    +0.000 A 
ATOM     18  C   UNL     1     113.835 126.737 140.126  0.00  0.00    +0.000 A 
BRANCH  13  19
ATOM     19  O   UNL     1     113.907 128.667 141.144  0.00  0.00    +0.000 OA
BRANCH  19  28
ATOM     20  O   UNL     1     112.582 128.621 141.677  0.00  0.00    +0.000 OA
ATOM     21  O   UNL     1     111.260 130.218 142.359  0.00  0.00    +0.000 OA
ATOM     22  O   UNL     1     112.586 131.086 141.900  0.00  0.00    +0.000 OA
ATOM     23  O   UNL     1     113.909 130.310 141.292  0.00  0.00    +0.000 OA
ATOM     24  C   UNL     1     111.921 129.830 142.055  0.00  0.00    +0.000 C 
ATOM     25  C   UNL     1     112.584 130.264 141.826  0.00  0.00    +0.000 C 
ATOM     26  C   UNL     1     111.920 129.008 141.981  0.00  0.00    +0.000 C 
ATOM     27  C   UNL     1     113.246 129.876 141.522  0.00  0.00    +0.000 C 
ATOM     28  C   UNL     1     113.245 129.055 141.448  0.00  0.00    +0.000 C 
BRANCH  26  30
ATOM     29  O   UNL     1     111.318 128.019 142.818  0.00  0.00    +0.000 OA
ATOM     30  C   UNL     1     111.257 128.575 142.211  0.00  0.00    +0.000 C 
ENDBRANCH  26  30
ENDBRANCH  19  28
ENDBRANCH  13  19
ENDBRANCH  10  16
BRANCH   4  31
ATOM     31  O   UNL     1     111.072 124.776 136.631  0.00  0.00    +0.000 OA
BRANCH  31  39
ATOM     32  O   UNL     1     110.195 125.804 137.093  0.00  0.00    +0.000 OA
ATOM     33  O   UNL     1     109.707 126.439 134.750  0.00  0.00    +0.000 OA
ATOM     34  O   UNL     1     110.747 125.198 135.070  0.00  0.00    +0.000 OA
ATOM     35  C   UNL     1     109.512 126.636 136.152  0.00  0.00    +0.000 C 
ATOM     36  C   UNL     1     109.869 126.228 135.531  0.00  0.00    +0.000 C 
ATOM     37  C   UNL     1     109.674 126.425 136.933  0.00  0.00    +0.000 C 
ATOM     38  C   UNL     1     110.390 125.607 135.691  0.00  0.00    +0.000 C 
ATOM     39  C   UNL     1     110.552 125.396 136.471  0.00  0.00    +0.000 C 
BRANCH  37  41
ATOM     40  O   UNL     1     109.025 126.421 138.206  0.00  0.00    +0.000 OA
ATOM     41  C   UNL     1     109.316 126.833 137.554  0.00  0.00    +0.000 C 
ENDBRANCH  37  41
BRANCH  35  42
ATOM     42  O   UNL     1     108.991 127.256 135.992  0.00  0.00    +0.000 OA
BRANCH  42  47
ATOM     43  O   UNL     1     110.096 128.156 135.884  0.00  0.00    +0.000 OA
ATOM     44  O   UNL     1     107.949 128.502 135.706  0.00  0.00    +0.000 OA
ATOM     45  O   UNL     1     108.532 130.025 135.455  0.00  0.00    +0.000 OA
ATOM     46  O   UNL     1     110.159 130.302 135.490  0.00  0.00    +0.000 OA
ATOM     47  C   UNL     1     109.284 128.017 135.867  0.00  0.00    +0.000 C 
ATOM     48  C   UNL     1     108.762 128.641 135.723  0.00  0.00    +0.000 C 
ATOM     49  C   UNL     1     109.054 129.402 135.598  0.00  0.00    +0.000 C 
ATOM     50  C   UNL     1     109.867 129.541 135.615  0.00  0.00    +0.000 C 
ATOM     51  C   UNL     1     110.389 128.917 135.759  0.00  0.00    +0.000 C 
BRANCH  51  53
ATOM     52  O   UNL     1     111.609 129.036 136.494  0.00  0.00    +0.000 OA
ATOM     53  C   UNL     1     111.201 129.055 135.776  0.00  0.00    +0.000 C 
ENDBRANCH  51  53
ENDBRANCH  42  47
ENDBRANCH  35  42
ENDBRANCH  31  39
ENDBRANCH   4  31
TORSDOF 10
ENDMDL
MODEL 5
REMARK VINA RESULT:     -10.3      1.733      5.016
REMARK  Name = 44257851
REMARK  10 active torsions:
REMARK  status: ('A' for Active; 'I' for Inactive)
REMARK    1  A    between atoms: O_1  and  C_21
REMARK    2  A    between atoms: O_1  and  C_24
REMARK    3  A    between atoms: O_7  and  C_30
REMARK    4  A    between atoms: O_7  and  C_38
REMARK    5  A    between atoms: O_15  and  C_37
REMARK    6  A    between atoms: O_15  and  C_43
REMARK    7  A    between atoms: C_23  and  C_31
REMARK    8  A    between atoms: C_29  and  C_32
REMARK    9  A    between atoms: C_35  and  C_39
REMARK   10  A    between atoms: C_48  and  C_49
REMARK                            x       y       z     vdW  Elec       q    Type
REMARK                         _______ _______ _______ _____ _____    ______ ____
ROOT
ATOM      1  O   UNL     1     112.023 128.819 139.826  0.00  0.00    +0.000 OA
ATOM      2  O   UNL     1     112.472 131.052 141.604  0.00  0.00    +0.000 OA
ATOM      3  O   UNL     1     113.516 130.092 141.336  0.00  0.00    +0.000 OA
ATOM      4  C   UNL     1     110.646 130.464 140.451  0.00  0.00    +0.000 A 
ATOM      5  C   UNL     1     110.939 129.756 140.062  0.00  0.00    +0.000 A 
ATOM      6  C   UNL     1     111.164 130.906 140.975  0.00  0.00    +0.000 A 
ATOM      7  C   UNL     1     111.747 129.500 140.202  0.00  0.00    +0.000 A 
ATOM      8  C   UNL     1     111.969 130.634 141.103  0.00  0.00    +0.000 A 
ATOM      9  C   UNL     1     112.244 129.924 140.706  0.00  0.00    +0.000 A 
ATOM     10  C   UNL     1     112.797 128.563 139.954  0.00  0.00    +0.000 A 
ATOM     11  C   UNL     1     113.018 129.668 140.833  0.00  0.00    +0.000 A 
ATOM     12  C   UNL     1     113.295 128.988 140.457  0.00  0.00    +0.000 A 
ENDROOT
BRANCH  10  16
ATOM     13  C   UNL     1     113.626 126.522 138.827  0.00  0.00    +0.000 A 
ATOM     14  C   UNL     1     113.536 127.222 138.399  0.00  0.00    +0.000 A 
ATOM     15  C   UNL     1     113.441 126.502 139.630  0.00  0.00    +0.000 A 
ATOM     16  C   UNL     1     113.074 127.883 139.578  0.00  0.00    +0.000 A 
ATOM     17  C   UNL     1     113.259 127.902 138.775  0.00  0.00    +0.000 A 
ATOM     18  C   UNL     1     113.164 127.183 140.005  0.00  0.00    +0.000 A 
BRANCH  13  19
ATOM     19  O   UNL     1     113.903 125.841 138.451  0.00  0.00    +0.000 OA
BRANCH  19  28
ATOM     20  O   UNL     1     112.604 125.393 138.060  0.00  0.00    +0.000 OA
ATOM     21  O   UNL     1     111.955 124.217 136.338  0.00  0.00    +0.000 OA
ATOM     22  O   UNL     1     113.580 124.303 136.064  0.00  0.00    +0.000 OA
ATOM     23  O   UNL     1     114.553 125.115 137.120  0.00  0.00    +0.000 OA
ATOM     24  C   UNL     1     112.442 124.623 136.866  0.00  0.00    +0.000 C 
ATOM     25  C   UNL     1     113.254 124.666 136.729  0.00  0.00    +0.000 C 
ATOM     26  C   UNL     1     112.116 124.987 137.532  0.00  0.00    +0.000 C 
ATOM     27  C   UNL     1     113.741 125.072 137.257  0.00  0.00    +0.000 C 
ATOM     28  C   UNL     1     113.416 125.435 137.923  0.00  0.00    +0.000 C 
BRANCH  26  30
ATOM     29  O   UNL     1     111.023 124.675 138.397  0.00  0.00    +0.000 OA
ATOM     30  C   UNL     1     111.304 124.944 137.669  0.00  0.00    +0.000 C 
ENDBRANCH  26  30
ENDBRANCH  19  28
ENDBRANCH  13  19
ENDBRANCH  10  16
BRANCH   4  31
ATOM     31  O   UNL     1     109.871 130.718 140.322  0.00  0.00    +0.000 OA
BRANCH  31  39
ATOM     32  O   UNL     1     110.040 131.646 139.248  0.00  0.00    +0.000 OA
ATOM     33  O   UNL     1     108.191 130.554 138.015  0.00  0.00    +0.000 OA
ATOM     34  O   UNL     1     108.638 129.991 139.500  0.00  0.00    +0.000 OA
ATOM     35  C   UNL     1     109.200 131.564 138.094  0.00  0.00    +0.000 C 
ATOM     36  C   UNL     1     108.808 130.919 138.425  0.00  0.00    +0.000 C 
ATOM     37  C   UNL     1     109.816 131.928 138.505  0.00  0.00    +0.000 C 
ATOM     38  C   UNL     1     109.031 130.636 139.169  0.00  0.00    +0.000 C 
ATOM     39  C   UNL     1     109.647 131.000 139.579  0.00  0.00    +0.000 C 
BRANCH  37  41
ATOM     40  O   UNL     1     110.305 133.266 138.610  0.00  0.00    +0.000 OA
ATOM     41  C   UNL     1     110.208 132.573 138.174  0.00  0.00    +0.000 C 
ENDBRANCH  37  41
BRANCH  35  42
ATOM     42  O   UNL     1     108.976 131.845 137.352  0.00  0.00    +0.000 OA
BRANCH  42  47
ATOM     43  O   UNL     1     109.863 130.949 136.680  0.00  0.00    +0.000 OA
ATOM     44  O   UNL     1     108.081 131.993 135.974  0.00  0.00    +0.000 OA
ATOM     45  O   UNL     1     108.519 131.170 134.613  0.00  0.00    +0.000 OA
ATOM     46  O   UNL     1     109.854 130.200 134.629  0.00  0.00    +0.000 OA
ATOM     47  C   UNL     1     109.196 131.434 136.671  0.00  0.00    +0.000 C 
ATOM     48  C   UNL     1     108.748 131.508 135.982  0.00  0.00    +0.000 C 
ATOM     49  C   UNL     1     108.967 131.096 135.302  0.00  0.00    +0.000 C 
ATOM     50  C   UNL     1     109.634 130.611 135.309  0.00  0.00    +0.000 C 
ATOM     51  C   UNL     1     110.083 130.537 135.999  0.00  0.00    +0.000 C 
BRANCH  51  53
ATOM     52  O   UNL     1     111.493 130.374 136.164  0.00  0.00    +0.000 OA
ATOM     53  C   UNL     1     110.749 130.052 136.007  0.00  0.00    +0.000 C 
ENDBRANCH  51  53
ENDBRANCH  42  47
ENDBRANCH  35  42
ENDBRANCH  31  39
ENDBRANCH   4  31
TORSDOF 10
ENDMDL
MODEL 6
REMARK VINA RESULT:     -10.2      2.014      5.695
REMARK  Name = 44257851
REMARK  10 active torsions:
REMARK  status: ('A' for Active; 'I' for Inactive)
REMARK    1  A    between atoms: O_1  and  C_21
REMARK    2  A    between atoms: O_1  and  C_24
REMARK    3  A    between atoms: O_7  and  C_30
REMARK    4  A    between atoms: O_7  and  C_38
REMARK    5  A    between atoms: O_15  and  C_37
REMARK    6  A    between atoms: O_15  and  C_43
REMARK    7  A    between atoms: C_23  and  C_31
REMARK    8  A    between atoms: C_29  and  C_32
REMARK    9  A    between atoms: C_35  and  C_39
REMARK   10  A    between atoms: C_48  and  C_49
REMARK                            x       y       z     vdW  Elec       q    Type
REMARK                         _______ _______ _______ _____ _____    ______ ____
ROOT
ATOM      1  O   UNL     1     111.820 128.272 138.017  0.00  0.00    +0.000 OA
ATOM      2  O   UNL     1     113.608 126.004 137.924  0.00  0.00    +0.000 OA
ATOM      3  O   UNL     1     113.230 126.705 136.720  0.00  0.00    +0.000 OA
ATOM      4  C   UNL     1     112.597 126.981 139.667  0.00  0.00    +0.000 A 
ATOM      5  C   UNL     1     112.168 127.603 139.258  0.00  0.00    +0.000 A 
ATOM      6  C   UNL     1     113.087 126.436 139.216  0.00  0.00    +0.000 A 
ATOM      7  C   UNL     1     112.234 127.672 138.405  0.00  0.00    +0.000 A 
ATOM      8  C   UNL     1     113.141 126.522 138.363  0.00  0.00    +0.000 A 
ATOM      9  C   UNL     1     112.704 127.150 137.972  0.00  0.00    +0.000 A 
ATOM     10  C   UNL     1     111.876 128.348 137.198  0.00  0.00    +0.000 A 
ATOM     11  C   UNL     1     112.760 127.227 137.153  0.00  0.00    +0.000 A 
ATOM     12  C   UNL     1     112.346 127.826 136.766  0.00  0.00    +0.000 A 
ENDROOT
BRANCH  10  16
ATOM     13  C   UNL     1     110.632 130.145 136.036  0.00  0.00    +0.000 A 
ATOM     14  C   UNL     1     111.339 130.318 136.425  0.00  0.00    +0.000 A 
ATOM     15  C   UNL     1     110.339 129.374 136.034  0.00  0.00    +0.000 A 
ATOM     16  C   UNL     1     111.461 128.948 136.811  0.00  0.00    +0.000 A 
ATOM     17  C   UNL     1     111.754 129.718 136.812  0.00  0.00    +0.000 A 
ATOM     18  C   UNL     1     110.754 128.776 136.422  0.00  0.00    +0.000 A 
BRANCH  13  19
ATOM     19  O   UNL     1     110.218 130.745 135.649  0.00  0.00    +0.000 OA
BRANCH  19  28
ATOM     20  O   UNL     1     109.492 131.311 136.742  0.00  0.00    +0.000 OA
ATOM     21  O   UNL     1     107.394 131.885 136.920  0.00  0.00    +0.000 OA
ATOM     22  O   UNL     1     107.433 131.323 135.369  0.00  0.00    +0.000 OA
ATOM     23  O   UNL     1     108.845 130.753 134.734  0.00  0.00    +0.000 OA
ATOM     24  C   UNL     1     108.100 131.600 136.603  0.00  0.00    +0.000 C 
ATOM     25  C   UNL     1     108.119 131.319 135.827  0.00  0.00    +0.000 C 
ATOM     26  C   UNL     1     108.786 131.596 137.060  0.00  0.00    +0.000 C 
ATOM     27  C   UNL     1     108.825 131.034 135.509  0.00  0.00    +0.000 C 
ATOM     28  C   UNL     1     109.512 131.030 135.966  0.00  0.00    +0.000 C 
BRANCH  26  30
ATOM     29  O   UNL     1     109.275 132.484 138.067  0.00  0.00    +0.000 OA
ATOM     30  C   UNL     1     108.767 131.877 137.836  0.00  0.00    +0.000 C 
ENDBRANCH  26  30
ENDBRANCH  19  28
ENDBRANCH  13  19
ENDBRANCH  10  16
BRANCH   4  31
ATOM     31  O   UNL     1     112.540 126.906 140.487  0.00  0.00    +0.000 OA
BRANCH  31  39
ATOM     32  O   UNL     1     111.193 126.438 140.577  0.00  0.00    +0.000 OA
ATOM     33  O   UNL     1     110.797 127.951 142.497  0.00  0.00    +0.000 OA
ATOM     34  O   UNL     1     112.276 127.914 141.767  0.00  0.00    +0.000 OA
ATOM     35  C   UNL     1     110.321 126.961 141.583  0.00  0.00    +0.000 C 
ATOM     36  C   UNL     1     110.928 127.446 141.857  0.00  0.00    +0.000 C 
ATOM     37  C   UNL     1     110.452 126.457 140.943  0.00  0.00    +0.000 C 
ATOM     38  C   UNL     1     111.669 127.428 141.492  0.00  0.00    +0.000 C 
ATOM     39  C   UNL     1     111.800 126.924 140.852  0.00  0.00    +0.000 C 
BRANCH  37  41
ATOM     40  O   UNL     1     110.016 125.215 140.387  0.00  0.00    +0.000 OA
ATOM     41  C   UNL     1     109.845 125.972 140.668  0.00  0.00    +0.000 C 
ENDBRANCH  37  41
BRANCH  35  42
ATOM     42  O   UNL     1     109.582 126.980 141.948  0.00  0.00    +0.000 OA
BRANCH  42  47
ATOM     43  O   UNL     1     109.216 128.108 141.152  0.00  0.00    +0.000 OA
ATOM     44  O   UNL     1     108.131 127.061 142.730  0.00  0.00    +0.000 OA
ATOM     45  O   UNL     1     107.040 128.230 142.325  0.00  0.00    +0.000 OA
ATOM     46  O   UNL     1     107.399 129.318 141.138  0.00  0.00    +0.000 OA
ATOM     47  C   UNL     1     109.036 127.565 141.745  0.00  0.00    +0.000 C 
ATOM     48  C   UNL     1     108.310 127.605 142.136  0.00  0.00    +0.000 C 
ATOM     49  C   UNL     1     107.765 128.190 141.934  0.00  0.00    +0.000 C 
ATOM     50  C   UNL     1     107.944 128.734 141.340  0.00  0.00    +0.000 C 
ATOM     51  C   UNL     1     108.670 128.693 140.949  0.00  0.00    +0.000 C 
BRANCH  51  53
ATOM     52  O   UNL     1     108.899 128.990 139.570  0.00  0.00    +0.000 OA
ATOM     53  C   UNL     1     108.850 129.237 140.356  0.00  0.00    +0.000 C 
ENDBRANCH  51  53
ENDBRANCH  42  47
ENDBRANCH  35  42
ENDBRANCH  31  39
ENDBRANCH   4  31
TORSDOF 10
ENDMDL
MODEL 7
REMARK VINA RESULT:     -10.2      1.781      5.662
REMARK  Name = 44257851
REMARK  10 active torsions:
REMARK  status: ('A' for Active; 'I' for Inactive)
REMARK    1  A    between atoms: O_1  and  C_21
REMARK    2  A    between atoms: O_1  and  C_24
REMARK    3  A    between atoms: O_7  and  C_30
REMARK    4  A    between atoms: O_7  and  C_38
REMARK    5  A    between atoms: O_15  and  C_37
REMARK    6  A    between atoms: O_15  and  C_43
REMARK    7  A    between atoms: C_23  and  C_31
REMARK    8  A    between atoms: C_29  and  C_32
REMARK    9  A    between atoms: C_35  and  C_39
REMARK   10  A    between atoms: C_48  and  C_49
REMARK                            x       y       z     vdW  Elec       q    Type
REMARK                         _______ _______ _______ _____ _____    ______ ____
ROOT
ATOM      1  O   UNL     1     110.076 128.492 136.709  0.00  0.00    +0.000 OA
ATOM      2  O   UNL     1     107.868 130.254 136.100  0.00  0.00    +0.000 OA
ATOM      3  O   UNL     1     107.965 128.945 135.499  0.00  0.00    +0.000 OA
ATOM      4  C   UNL     1     109.628 130.550 137.453  0.00  0.00    +0.000 A 
ATOM      5  C   UNL     1     110.027 129.798 137.342  0.00  0.00    +0.000 A 
ATOM      6  C   UNL     1     108.895 130.708 137.033  0.00  0.00    +0.000 A 
ATOM      7  C   UNL     1     109.688 129.213 136.812  0.00  0.00    +0.000 A 
ATOM      8  C   UNL     1     108.571 130.111 136.507  0.00  0.00    +0.000 A 
ATOM      9  C   UNL     1     108.984 129.364 136.408  0.00  0.00    +0.000 A 
ATOM     10  C   UNL     1     109.760 127.922 136.202  0.00  0.00    +0.000 A 
ATOM     11  C   UNL     1     108.668 128.795 135.902  0.00  0.00    +0.000 A 
ATOM     12  C   UNL     1     109.056 128.074 135.799  0.00  0.00    +0.000 A 
ENDROOT
BRANCH  10  16
ATOM     13  C   UNL     1     110.923 125.760 135.892  0.00  0.00    +0.000 A 
ATOM     14  C   UNL     1     110.488 125.900 136.579  0.00  0.00    +0.000 A 
ATOM     15  C   UNL     1     110.970 126.341 135.308  0.00  0.00    +0.000 A 
ATOM     16  C   UNL     1     110.147 127.201 136.099  0.00  0.00    +0.000 A 
ATOM     17  C   UNL     1     110.101 126.621 136.683  0.00  0.00    +0.000 A 
ATOM     18  C   UNL     1     110.582 127.061 135.412  0.00  0.00    +0.000 A 
BRANCH  13  19
ATOM     19  O   UNL     1     111.311 125.039 135.789  0.00  0.00    +0.000 OA
BRANCH  19  28
ATOM     20  O   UNL     1     112.605 125.485 136.200  0.00  0.00    +0.000 OA
ATOM     21  O   UNL     1     114.175 124.471 137.329  0.00  0.00    +0.000 OA
ATOM     22  O   UNL     1     113.018 123.295 137.277  0.00  0.00    +0.000 OA
ATOM     23  O   UNL     1     111.587 123.579 136.507  0.00  0.00    +0.000 OA
ATOM     24  C   UNL     1     113.459 124.613 136.944  0.00  0.00    +0.000 C 
ATOM     25  C   UNL     1     112.881 124.025 136.918  0.00  0.00    +0.000 C 
ATOM     26  C   UNL     1     113.321 125.344 136.585  0.00  0.00    +0.000 C 
ATOM     27  C   UNL     1     112.165 124.167 136.533  0.00  0.00    +0.000 C 
ATOM     28  C   UNL     1     112.027 124.897 136.174  0.00  0.00    +0.000 C 
BRANCH  26  30
ATOM     29  O   UNL     1     113.737 126.652 136.980  0.00  0.00    +0.000 OA
ATOM     30  C   UNL     1     113.899 125.932 136.611  0.00  0.00    +0.000 C 
ENDBRANCH  26  30
ENDBRANCH  19  28
ENDBRANCH  13  19
ENDBRANCH  10  16
BRANCH   4  31
ATOM     31  O   UNL     1     109.946 131.119 137.960  0.00  0.00    +0.000 OA
BRANCH  31  39
ATOM     32  O   UNL     1     109.208 130.824 139.147  0.00  0.00    +0.000 OA
ATOM     33  O   UNL     1     111.284 131.010 140.483  0.00  0.00    +0.000 OA
ATOM     34  O   UNL     1     111.330 131.243 138.850  0.00  0.00    +0.000 OA
ATOM     35  C   UNL     1     109.877 130.769 140.410  0.00  0.00    +0.000 C 
ATOM     36  C   UNL     1     110.592 130.948 140.039  0.00  0.00    +0.000 C 
ATOM     37  C   UNL     1     109.185 130.707 139.965  0.00  0.00    +0.000 C 
ATOM     38  C   UNL     1     110.615 131.064 139.221  0.00  0.00    +0.000 C 
ATOM     39  C   UNL     1     109.923 131.002 138.777  0.00  0.00    +0.000 C 
BRANCH  37  41
ATOM     40  O   UNL     1     107.781 130.925 140.116  0.00  0.00    +0.000 OA
ATOM     41  C   UNL     1     108.471 130.529 140.336  0.00  0.00    +0.000 C 
ENDBRANCH  37  41
BRANCH  35  42
ATOM     42  O   UNL     1     109.855 130.653 141.226  0.00  0.00    +0.000 OA
BRANCH  42  47
ATOM     43  O   UNL     1     110.185 129.274 141.045  0.00  0.00    +0.000 OA
ATOM     44  O   UNL     1     110.003 130.474 142.859  0.00  0.00    +0.000 OA
ATOM     45  O   UNL     1     110.407 129.006 143.495  0.00  0.00    +0.000 OA
ATOM     46  O   UNL     1     110.663 127.717 142.497  0.00  0.00    +0.000 OA
ATOM     47  C   UNL     1     110.057 129.918 141.543  0.00  0.00    +0.000 C 
ATOM     48  C   UNL     1     110.131 129.829 142.361  0.00  0.00    +0.000 C 
ATOM     49  C   UNL     1     110.333 129.095 142.678  0.00  0.00    +0.000 C 
ATOM     50  C   UNL     1     110.461 128.450 142.180  0.00  0.00    +0.000 C 
ATOM     51  C   UNL     1     110.387 128.540 141.362  0.00  0.00    +0.000 C 
BRANCH  51  53
ATOM     52  O   UNL     1     109.885 127.567 140.444  0.00  0.00    +0.000 OA
ATOM     53  C   UNL     1     110.515 127.896 140.864  0.00  0.00    +0.000 C 
ENDBRANCH  51  53
ENDBRANCH  42  47
ENDBRANCH  35  42
ENDBRANCH  31  39
ENDBRANCH   4  31
TORSDOF 10
ENDMDL
MODEL 8
REMARK VINA RESULT:     -10.2      1.631      6.041
REMARK  Name = 44257851
REMARK  10 active torsions:
REMARK  status: ('A' for Active; 'I' for Inactive)
REMARK    1  A    between atoms: O_1  and  C_21
REMARK    2  A    between atoms: O_1  and  C_24
REMARK    3  A    between atoms: O_7  and  C_30
REMARK    4  A    between atoms: O_7  and  C_38
REMARK    5  A    between atoms: O_15  and  C_37
REMARK    6  A    between atoms: O_15  and  C_43
REMARK    7  A    between atoms: C_23  and  C_31
REMARK    8  A    between atoms: C_29  and  C_32
REMARK    9  A    between atoms: C_35  and  C_39
REMARK   10  A    between atoms: C_48  and  C_49
REMARK                            x       y       z     vdW  Elec       q    Type
REMARK                         _______ _______ _______ _____ _____    ______ ____
ROOT
ATOM      1  O   UNL     1     111.648 128.092 137.546  0.00  0.00    +0.000 OA
ATOM      2  O   UNL     1     113.795 126.168 137.350  0.00  0.00    +0.000 OA
ATOM      3  O   UNL     1     113.496 127.066 136.260  0.00  0.00    +0.000 OA
ATOM      4  C   UNL     1     112.365 126.578 139.024  0.00  0.00    +0.000 A 
ATOM      5  C   UNL     1     111.905 127.212 138.673  0.00  0.00    +0.000 A 
ATOM      6  C   UNL     1     113.007 126.221 138.578  0.00  0.00    +0.000 A 
ATOM      7  C   UNL     1     112.093 127.482 137.879  0.00  0.00    +0.000 A 
ATOM      8  C   UNL     1     113.180 126.504 137.785  0.00  0.00    +0.000 A 
ATOM      9  C   UNL     1     112.709 127.140 137.450  0.00  0.00    +0.000 A 
ATOM     10  C   UNL     1     111.819 128.359 136.785  0.00  0.00    +0.000 A 
ATOM     11  C   UNL     1     112.880 127.407 136.689  0.00  0.00    +0.000 A 
ATOM     12  C   UNL     1     112.435 128.017 136.356  0.00  0.00    +0.000 A 
ENDROOT
BRANCH  10  16
ATOM     13  C   UNL     1     110.484 130.189 135.787  0.00  0.00    +0.000 A 
ATOM     14  C   UNL     1     110.232 129.407 135.713  0.00  0.00    +0.000 A 
ATOM     15  C   UNL     1     111.181 130.362 136.193  0.00  0.00    +0.000 A 
ATOM     16  C   UNL     1     111.374 128.969 136.452  0.00  0.00    +0.000 A 
ATOM     17  C   UNL     1     110.677 128.797 136.046  0.00  0.00    +0.000 A 
ATOM     18  C   UNL     1     111.626 129.751 136.525  0.00  0.00    +0.000 A 
BRANCH  13  19
ATOM     19  O   UNL     1     110.039 130.799 135.454  0.00  0.00    +0.000 OA
BRANCH  19  28
ATOM     20  O   UNL     1     109.385 131.258 136.638  0.00  0.00    +0.000 OA
ATOM     21  O   UNL     1     107.320 131.880 136.982  0.00  0.00    +0.000 OA
ATOM     22  O   UNL     1     107.270 131.502 135.377  0.00  0.00    +0.000 OA
ATOM     23  O   UNL     1     108.629 130.961 134.613  0.00  0.00    +0.000 OA
ATOM     24  C   UNL     1     108.000 131.610 136.600  0.00  0.00    +0.000 C 
ATOM     25  C   UNL     1     107.975 131.421 135.797  0.00  0.00    +0.000 C 
ATOM     26  C   UNL     1     108.705 131.528 137.021  0.00  0.00    +0.000 C 
ATOM     27  C   UNL     1     108.654 131.150 135.416  0.00  0.00    +0.000 C 
ATOM     28  C   UNL     1     109.359 131.069 135.836  0.00  0.00    +0.000 C 
BRANCH  26  30
ATOM     29  O   UNL     1     109.203 132.342 138.085  0.00  0.00    +0.000 OA
ATOM     30  C   UNL     1     108.730 131.717 137.824  0.00  0.00    +0.000 C 
ENDBRANCH  26  30
ENDBRANCH  19  28
ENDBRANCH  13  19
ENDBRANCH  10  16
BRANCH   4  31
ATOM     31  O   UNL     1     112.192 126.312 139.787  0.00  0.00    +0.000 OA
BRANCH  31  39
ATOM     32  O   UNL     1     112.851 127.349 140.516  0.00  0.00    +0.000 OA
ATOM     33  O   UNL     1     110.977 127.400 142.133  0.00  0.00    +0.000 OA
ATOM     34  O   UNL     1     110.943 126.346 140.864  0.00  0.00    +0.000 OA
ATOM     35  C   UNL     1     112.243 127.893 141.690  0.00  0.00    +0.000 C 
ATOM     36  C   UNL     1     111.602 127.384 141.595  0.00  0.00    +0.000 C 
ATOM     37  C   UNL     1     112.868 127.876 141.152  0.00  0.00    +0.000 C 
ATOM     38  C   UNL     1     111.585 126.856 140.959  0.00  0.00    +0.000 C 
ATOM     39  C   UNL     1     112.209 126.839 140.421  0.00  0.00    +0.000 C 
BRANCH  37  41
ATOM     40  O   UNL     1     114.261 128.154 141.000  0.00  0.00    +0.000 OA
ATOM     41  C   UNL     1     113.509 128.386 141.247  0.00  0.00    +0.000 C 
ENDBRANCH  37  41
BRANCH  35  42
ATOM     42  O   UNL     1     112.260 128.420 142.325  0.00  0.00    +0.000 OA
BRANCH  42  47
ATOM     43  O   UNL     1     111.607 129.423 141.544  0.00  0.00    +0.000 OA
ATOM     44  O   UNL     1     111.940 129.280 143.696  0.00  0.00    +0.000 OA
ATOM     45  O   UNL     1     111.127 130.713 143.601  0.00  0.00    +0.000 OA
ATOM     46  O   UNL     1     110.634 131.285 142.134  0.00  0.00    +0.000 OA
ATOM     47  C   UNL     1     111.853 129.136 142.276  0.00  0.00    +0.000 C 
ATOM     48  C   UNL     1     111.693 129.567 142.963  0.00  0.00    +0.000 C 
ATOM     49  C   UNL     1     111.287 130.283 142.915  0.00  0.00    +0.000 C 
ATOM     50  C   UNL     1     111.040 130.570 142.182  0.00  0.00    +0.000 C 
ATOM     51  C   UNL     1     111.200 130.139 141.495  0.00  0.00    +0.000 C 
BRANCH  51  53
ATOM     52  O   UNL     1     111.505 130.736 140.233  0.00  0.00    +0.000 OA
ATOM     53  C   UNL     1     110.953 130.425 140.763  0.00  0.00    +0.000 C 
ENDBRANCH  51  53
ENDBRANCH  42  47
ENDBRANCH  35  42
ENDBRANCH  31  39
ENDBRANCH   4  31
TORSDOF 10
ENDMDL
MODEL 9
REMARK VINA RESULT:     -10.2      2.991      3.758
REMARK  Name = 44257851
REMARK  10 active torsions:
REMARK  status: ('A' for Active; 'I' for Inactive)
REMARK    1  A    between atoms: O_1  and  C_21
REMARK    2  A    between atoms: O_1  and  C_24
REMARK    3  A    between atoms: O_7  and  C_30
REMARK    4  A    between atoms: O_7  and  C_38
REMARK    5  A    between atoms: O_15  and  C_37
REMARK    6  A    between atoms: O_15  and  C_43
REMARK    7  A    between atoms: C_23  and  C_31
REMARK    8  A    between atoms: C_29  and  C_32
REMARK    9  A    between atoms: C_35  and  C_39
REMARK   10  A    between atoms: C_48  and  C_49
REMARK                            x       y       z     vdW  Elec       q    Type
REMARK                         _______ _______ _______ _____ _____    ______ ____
ROOT
ATOM      1  O   UNL     1     109.190 126.651 138.890  0.00  0.00    +0.000 OA
ATOM      2  O   UNL     1     111.203 125.330 137.291  0.00  0.00    +0.000 OA
ATOM      3  O   UNL     1     111.100 125.087 138.710  0.00  0.00    +0.000 OA
ATOM      4  C   UNL     1     109.618 126.799 136.702  0.00  0.00    +0.000 A 
ATOM      5  C   UNL     1     109.249 126.932 137.466  0.00  0.00    +0.000 A 
ATOM      6  C   UNL     1     110.282 126.256 136.639  0.00  0.00    +0.000 A 
ATOM      7  C   UNL     1     109.548 126.520 138.158  0.00  0.00    +0.000 A 
ATOM      8  C   UNL     1     110.567 125.853 137.342  0.00  0.00    +0.000 A 
ATOM      9  C   UNL     1     110.185 125.998 138.098  0.00  0.00    +0.000 A 
ATOM     10  C   UNL     1     109.468 126.260 139.561  0.00  0.00    +0.000 A 
ATOM     11  C   UNL     1     110.463 125.608 138.769  0.00  0.00    +0.000 A 
ATOM     12  C   UNL     1     110.105 125.739 139.501  0.00  0.00    +0.000 A 
ENDROOT
BRANCH  10  16
ATOM     13  C   UNL     1     108.393 126.653 141.755  0.00  0.00    +0.000 A 
ATOM     14  C   UNL     1     108.946 127.191 141.465  0.00  0.00    +0.000 A 
ATOM     15  C   UNL     1     108.198 125.983 141.315  0.00  0.00    +0.000 A 
ATOM     16  C   UNL     1     109.110 126.391 140.292  0.00  0.00    +0.000 A 
ATOM     17  C   UNL     1     109.305 127.060 140.733  0.00  0.00    +0.000 A 
ATOM     18  C   UNL     1     108.557 125.853 140.583  0.00  0.00    +0.000 A 
BRANCH  13  19
ATOM     19  O   UNL     1     108.035 126.784 142.487  0.00  0.00    +0.000 OA
BRANCH  19  28
ATOM     20  O   UNL     1     106.952 127.603 142.042  0.00  0.00    +0.000 OA
ATOM     21  O   UNL     1     104.851 127.641 142.634  0.00  0.00    +0.000 OA
ATOM     22  O   UNL     1     105.425 126.430 143.597  0.00  0.00    +0.000 OA
ATOM     23  O   UNL     1     107.017 126.002 143.523  0.00  0.00    +0.000 OA
ATOM     24  C   UNL     1     105.647 127.427 142.597  0.00  0.00    +0.000 C 
ATOM     25  C   UNL     1     105.934 126.821 143.079  0.00  0.00    +0.000 C 
ATOM     26  C   UNL     1     106.156 127.818 142.079  0.00  0.00    +0.000 C 
ATOM     27  C   UNL     1     106.730 126.607 143.042  0.00  0.00    +0.000 C 
ATOM     28  C   UNL     1     107.239 126.998 142.524  0.00  0.00    +0.000 C 
BRANCH  26  30
ATOM     29  O   UNL     1     106.334 129.090 141.452  0.00  0.00    +0.000 OA
ATOM     30  C   UNL     1     105.869 128.423 141.597  0.00  0.00    +0.000 C 
ENDBRANCH  26  30
ENDBRANCH  19  28
ENDBRANCH  13  19
ENDBRANCH  10  16
BRANCH   4  31
ATOM     31  O   UNL     1     109.338 127.191 136.031  0.00  0.00    +0.000 OA
BRANCH  31  39
ATOM     32  O   UNL     1     110.172 128.351 136.040  0.00  0.00    +0.000 OA
ATOM     33  O   UNL     1     108.193 129.776 135.613  0.00  0.00    +0.000 OA
ATOM     34  O   UNL     1     108.019 128.141 135.746  0.00  0.00    +0.000 OA
ATOM     35  C   UNL     1     109.600 129.644 135.831  0.00  0.00    +0.000 C 
ATOM     36  C   UNL     1     108.853 129.302 135.755  0.00  0.00    +0.000 C 
ATOM     37  C   UNL     1     110.259 129.170 135.974  0.00  0.00    +0.000 C 
ATOM     38  C   UNL     1     108.766 128.483 135.822  0.00  0.00    +0.000 C 
ATOM     39  C   UNL     1     109.425 128.009 135.965  0.00  0.00    +0.000 C 
BRANCH  37  41
ATOM     40  O   UNL     1     111.672 129.117 135.765  0.00  0.00    +0.000 OA
ATOM     41  C   UNL     1     111.006 129.512 136.049  0.00  0.00    +0.000 C 
ENDBRANCH  37  41
BRANCH  35  42
ATOM     42  O   UNL     1     109.687 130.462 135.764  0.00  0.00    +0.000 OA
BRANCH  42  47
ATOM     43  O   UNL     1     109.466 130.603 137.169  0.00  0.00    +0.000 OA
ATOM     44  O   UNL     1     109.725 132.104 135.605  0.00  0.00    +0.000 OA
ATOM     45  O   UNL     1     109.523 133.066 136.930  0.00  0.00    +0.000 OA
ATOM     46  O   UNL     1     109.283 132.386 138.415  0.00  0.00    +0.000 OA
ATOM     47  C   UNL     1     109.586 130.942 136.427  0.00  0.00    +0.000 C 
ATOM     48  C   UNL     1     109.605 131.764 136.348  0.00  0.00    +0.000 C 
ATOM     49  C   UNL     1     109.504 132.245 137.010  0.00  0.00    +0.000 C 
ATOM     50  C   UNL     1     109.384 131.906 137.753  0.00  0.00    +0.000 C 
ATOM     51  C   UNL     1     109.365 131.084 137.832  0.00  0.00    +0.000 C 
BRANCH  51  53
ATOM     52  O   UNL     1     108.531 130.369 138.746  0.00  0.00    +0.000 OA
ATOM     53  C   UNL     1     109.245 130.744 138.574  0.00  0.00    +0.000 C 
ENDBRANCH  51  53
ENDBRANCH  42  47
ENDBRANCH  35  42
ENDBRANCH  31  39
ENDBRANCH   4  31
TORSDOF 10
ENDMDL
MODEL 10
REMARK VINA RESULT:     -10.1      2.405      5.809
REMARK  Name = 44257851
REMARK  10 active torsions:
REMARK  status: ('A' for Active; 'I' for Inactive)
REMARK    1  A    between atoms: O_1  and  C_21
REMARK    2  A    between atoms: O_1  and  C_24
REMARK    3  A    between atoms: O_7  and  C_30
REMARK    4  A    between atoms: O_7  and  C_38
REMARK    5  A    between atoms: O_15  and  C_37
REMARK    6  A    between atoms: O_15  and  C_43
REMARK    7  A    between atoms: C_23  and  C_31
REMARK    8  A    between atoms: C_29  and  C_32
REMARK    9  A    between atoms: C_35  and  C_39
REMARK   10  A    between atoms: C_48  and  C_49
REMARK                            x       y       z     vdW  Elec       q    Type
REMARK                         _______ _______ _______ _____ _____    ______ ____
ROOT
ATOM      1  O   UNL     1     111.969 129.404 137.227  0.00  0.00    +0.000 OA
ATOM      2  O   UNL     1     112.453 132.250 137.099  0.00  0.00    +0.000 OA
ATOM      3  O   UNL     1     113.455 131.303 136.672  0.00  0.00    +0.000 OA
ATOM      4  C   UNL     1     110.653 131.116 137.799  0.00  0.00    +0.000 A 
ATOM      5  C   UNL     1     110.926 130.312 137.669  0.00  0.00    +0.000 A 
ATOM      6  C   UNL     1     111.169 131.776 137.606  0.00  0.00    +0.000 A 
ATOM      7  C   UNL     1     111.712 130.178 137.349  0.00  0.00    +0.000 A 
ATOM      8  C   UNL     1     111.951 131.622 137.287  0.00  0.00    +0.000 A 
ATOM      9  C   UNL     1     112.207 130.811 137.164  0.00  0.00    +0.000 A 
ATOM     10  C   UNL     1     112.721 129.263 136.920  0.00  0.00    +0.000 A 
ATOM     11  C   UNL     1     112.960 130.670 136.857  0.00  0.00    +0.000 A 
ATOM     12  C   UNL     1     113.217 129.896 136.735  0.00  0.00    +0.000 A 
ENDROOT
BRANCH  10  16
ATOM     13  C   UNL     1     113.493 126.940 136.554  0.00  0.00    +0.000 A 
ATOM     14  C   UNL     1     113.349 127.433 135.909  0.00  0.00    +0.000 A 
ATOM     15  C   UNL     1     113.379 127.220 137.321  0.00  0.00    +0.000 A 
ATOM     16  C   UNL     1     112.978 128.488 136.797  0.00  0.00    +0.000 A 
ATOM     17  C   UNL     1     113.092 128.208 136.031  0.00  0.00    +0.000 A 
ATOM     18  C   UNL     1     113.122 127.995 137.443  0.00  0.00    +0.000 A 
BRANCH  13  19
ATOM     19  O   UNL     1     113.750 126.165 136.432  0.00  0.00    +0.000 OA
BRANCH  19  28
ATOM     20  O   UNL     1     112.436 125.626 136.272  0.00  0.00    +0.000 OA
ATOM     21  O   UNL     1     111.632 123.654 136.752  0.00  0.00    +0.000 OA
ATOM     22  O   UNL     1     113.201 123.477 137.230  0.00  0.00    +0.000 OA
ATOM     23  O   UNL     1     114.259 124.732 137.070  0.00  0.00    +0.000 OA
ATOM     24  C   UNL     1     112.161 124.282 136.672  0.00  0.00    +0.000 C 
ATOM     25  C   UNL     1     112.946 124.193 136.911  0.00  0.00    +0.000 C 
ATOM     26  C   UNL     1     111.906 124.999 136.352  0.00  0.00    +0.000 C 
ATOM     27  C   UNL     1     113.475 124.821 136.831  0.00  0.00    +0.000 C 
ATOM     28  C   UNL     1     113.220 125.537 136.512  0.00  0.00    +0.000 C 
BRANCH  26  30
ATOM     29  O   UNL     1     110.949 125.272 135.327  0.00  0.00    +0.000 OA
ATOM     30  C   UNL     1     111.121 125.087 136.113  0.00  0.00    +0.000 C 
ENDBRANCH  26  30
ENDBRANCH  19  28
ENDBRANCH  13  19
ENDBRANCH  10  16
BRANCH   4  31
ATOM     31  O   UNL     1     109.899 131.255 138.106  0.00  0.00    +0.000 OA
BRANCH  31  39
ATOM     32  O   UNL     1     110.213 131.206 139.499  0.00  0.00    +0.000 OA
ATOM     33  O   UNL     1     108.164 129.879 139.913  0.00  0.00    +0.000 OA
ATOM     34  O   UNL     1     108.534 130.370 138.382  0.00  0.00    +0.000 OA
ATOM     35  C   UNL     1     109.345 130.518 140.403  0.00  0.00    +0.000 C 
ATOM     36  C   UNL     1     108.847 130.321 139.776  0.00  0.00    +0.000 C 
ATOM     37  C   UNL     1     110.028 130.960 140.266  0.00  0.00    +0.000 C 
ATOM     38  C   UNL     1     109.032 130.567 139.010  0.00  0.00    +0.000 C 
ATOM     39  C   UNL     1     109.714 131.009 138.872  0.00  0.00    +0.000 C 
BRANCH  37  41
ATOM     40  O   UNL     1     110.838 131.919 140.949  0.00  0.00    +0.000 OA
ATOM     41  C   UNL     1     110.525 131.157 140.893  0.00  0.00    +0.000 C 
ENDBRANCH  37  41
BRANCH  35  42
ATOM     42  O   UNL     1     109.160 130.273 141.169  0.00  0.00    +0.000 OA
BRANCH  42  47
ATOM     43  O   UNL     1     109.936 129.082 141.021  0.00  0.00    +0.000 OA
ATOM     44  O   UNL     1     108.359 129.593 142.441  0.00  0.00    +0.000 OA
ATOM     45  O   UNL     1     108.735 128.062 142.930  0.00  0.00    +0.000 OA
ATOM     46  O   UNL     1     109.912 127.212 142.147  0.00  0.00    +0.000 OA
ATOM     47  C   UNL     1     109.348 129.507 141.413  0.00  0.00    +0.000 C 
ATOM     48  C   UNL     1     108.948 129.167 142.050  0.00  0.00    +0.000 C 
ATOM     49  C   UNL     1     109.136 128.402 142.294  0.00  0.00    +0.000 C 
ATOM     50  C   UNL     1     109.724 127.976 141.903  0.00  0.00    +0.000 C 
ATOM     51  C   UNL     1     110.125 128.317 141.266  0.00  0.00    +0.000 C 
BRANCH  51  53
ATOM     52  O   UNL     1     110.582 127.614 140.108  0.00  0.00    +0.000 OA
ATOM     53  C   UNL     1     110.713 127.892 140.874  0.00  0.00    +0.000 C 
ENDBRANCH  51  53
ENDBRANCH  42  47
ENDBRANCH  35  42
ENDBRANCH  31  39
ENDBRANCH   4  31
TORSDOF 10
ENDMDL
