MODEL 1
REMARK VINA RESULT:      -9.4      0.000      0.000
REMARK  Name = 13940613
REMARK  5 active torsions:
REMARK  status: ('A' for Active; 'I' for Inactive)
REMARK    1  A    between atoms: O_2  and  C_18
REMARK    2  A    between atoms: O_2  and  C_21
REMARK    3  A    between atoms: O_11  and  C_29
REMARK    4  A    between atoms: C_19  and  C_20
REMARK    5  A    between atoms: C_22  and  C_26
REMARK                            x       y       z     vdW  Elec       q    Type
REMARK                         _______ _______ _______ _____ _____    ______ ____
ROOT
ATOM      1  O   UNL     1     113.454 127.305 136.680  0.00  0.00    +0.000 OA
ATOM      2  O   UNL     1     112.045 128.182 138.518  0.00  0.00    +0.000 OA
ATOM      3  O   UNL     1     112.191 129.530 138.025  0.00  0.00    +0.000 OA
ATOM      4  O   UNL     1     113.793 129.999 135.628  0.00  0.00    +0.000 OA
ATOM      5  C   UNL     1     112.669 127.081 137.854  0.00  0.00    +0.000 A 
ATOM      6  C   UNL     1     113.139 126.788 137.242  0.00  0.00    +0.000 A 
ATOM      7  C   UNL     1     112.515 127.889 137.906  0.00  0.00    +0.000 A 
ATOM      8  C   UNL     1     112.830 128.406 137.344  0.00  0.00    +0.000 A 
ATOM      9  C   UNL     1     113.299 128.114 136.732  0.00  0.00    +0.000 A 
ATOM     10  C   UNL     1     112.662 129.246 137.409  0.00  0.00    +0.000 A 
ATOM     11  C   UNL     1     113.634 128.641 136.142  0.00  0.00    +0.000 A 
ATOM     12  C   UNL     1     112.987 129.789 136.828  0.00  0.00    +0.000 A 
ATOM     13  C   UNL     1     113.476 129.485 136.190  0.00  0.00    +0.000 A 
ENDROOT
BRANCH   6  16
ATOM     14  O   UNL     1     114.939 124.588 137.538  0.00  0.00    +0.000 OA
ATOM     15  O   UNL     1     113.757 123.553 137.035  0.00  0.00    +0.000 OA
ATOM     16  C   UNL     1     113.293 125.980 137.190  0.00  0.00    +0.000 A 
ATOM     17  C   UNL     1     114.039 125.688 137.390  0.00  0.00    +0.000 A 
ATOM     18  C   UNL     1     112.702 125.462 136.939  0.00  0.00    +0.000 A 
ATOM     19  C   UNL     1     114.194 124.880 137.339  0.00  0.00    +0.000 A 
ATOM     20  C   UNL     1     112.857 124.653 136.887  0.00  0.00    +0.000 A 
ATOM     21  C   UNL     1     113.602 124.362 137.087  0.00  0.00    +0.000 A 
ENDBRANCH   6  16
BRANCH  12  22
ATOM     22  O   UNL     1     112.831 130.597 136.881  0.00  0.00    +0.000 OA
ATOM     23  C   UNL     1     113.400 131.109 137.191  0.00  0.00    +0.000 C 
ENDBRANCH  12  22
BRANCH   5  24
ATOM     24  O   UNL     1     112.354 126.564 138.415  0.00  0.00    +0.000 OA
BRANCH  24  32
ATOM     25  O   UNL     1     113.276 126.948 139.438  0.00  0.00    +0.000 OA
ATOM     26  O   UNL     1     111.592 126.389 141.164  0.00  0.00    +0.000 OA
ATOM     27  O   UNL     1     111.232 126.192 139.566  0.00  0.00    +0.000 OA
ATOM     28  O   UNL     1     113.074 126.959 141.610  0.00  0.00    +0.000 OA
ATOM     29  C   UNL     1     112.153 126.575 140.588  0.00  0.00    +0.000 C 
ATOM     30  C   UNL     1     111.973 126.477 139.789  0.00  0.00    +0.000 C 
ATOM     31  C   UNL     1     112.895 126.860 140.811  0.00  0.00    +0.000 C 
ATOM     32  C   UNL     1     112.534 126.663 139.214  0.00  0.00    +0.000 C 
ATOM     33  C   UNL     1     113.455 127.046 140.237  0.00  0.00    +0.000 C 
BRANCH  33  36
ATOM     34  O   UNL     1     114.299 128.135 140.618  0.00  0.00    +0.000 OA
ATOM     35  O   UNL     1     114.836 126.813 140.525  0.00  0.00    +0.000 OA
ATOM     36  C   UNL     1     114.197 127.331 140.460  0.00  0.00    +0.000 C 
ENDBRANCH  33  36
ENDBRANCH  24  32
ENDBRANCH   5  24
TORSDOF 5
ENDMDL
MODEL 2
REMARK VINA RESULT:      -9.3     10.725     13.014
REMARK  Name = 13940613
REMARK  5 active torsions:
REMARK  status: ('A' for Active; 'I' for Inactive)
REMARK    1  A    between atoms: O_2  and  C_18
REMARK    2  A    between atoms: O_2  and  C_21
REMARK    3  A    between atoms: O_11  and  C_29
REMARK    4  A    between atoms: C_19  and  C_20
REMARK    5  A    between atoms: C_22  and  C_26
REMARK                            x       y       z     vdW  Elec       q    Type
REMARK                         _______ _______ _______ _____ _____    ______ ____
ROOT
ATOM      1  O   UNL     1     103.617 126.422 147.675  0.00  0.00    +0.000 OA
ATOM      2  O   UNL     1     105.451 126.390 149.337  0.00  0.00    +0.000 OA
ATOM      3  O   UNL     1     105.269 127.795 149.608  0.00  0.00    +0.000 OA
ATOM      4  O   UNL     1     103.193 129.261 148.168  0.00  0.00    +0.000 OA
ATOM      5  C   UNL     1     104.635 125.710 148.382  0.00  0.00    +0.000 A 
ATOM      6  C   UNL     1     104.024 125.720 147.827  0.00  0.00    +0.000 A 
ATOM      7  C   UNL     1     104.840 126.400 148.783  0.00  0.00    +0.000 A 
ATOM      8  C   UNL     1     104.433 127.102 148.630  0.00  0.00    +0.000 A 
ATOM      9  C   UNL     1     103.823 127.113 148.077  0.00  0.00    +0.000 A 
ATOM     10  C   UNL     1     104.657 127.815 149.055  0.00  0.00    +0.000 A 
ATOM     11  C   UNL     1     103.392 127.837 147.908  0.00  0.00    +0.000 A 
ATOM     12  C   UNL     1     104.237 128.549 148.900  0.00  0.00    +0.000 A 
ATOM     13  C   UNL     1     103.601 128.561 148.323  0.00  0.00    +0.000 A 
ENDROOT
BRANCH   6  16
ATOM     14  O   UNL     1     104.057 124.137 145.448  0.00  0.00    +0.000 OA
ATOM     15  O   UNL     1     103.203 122.956 146.222  0.00  0.00    +0.000 OA
ATOM     16  C   UNL     1     103.819 125.029 147.426  0.00  0.00    +0.000 A 
ATOM     17  C   UNL     1     104.040 124.928 146.638  0.00  0.00    +0.000 A 
ATOM     18  C   UNL     1     103.392 124.439 147.813  0.00  0.00    +0.000 A 
ATOM     19  C   UNL     1     103.835 124.238 146.236  0.00  0.00    +0.000 A 
ATOM     20  C   UNL     1     103.186 123.747 147.411  0.00  0.00    +0.000 A 
ATOM     21  C   UNL     1     103.408 123.648 146.623  0.00  0.00    +0.000 A 
ENDBRANCH   6  16
BRANCH  12  22
ATOM     22  O   UNL     1     104.444 129.239 149.303  0.00  0.00    +0.000 OA
ATOM     23  C   UNL     1     104.890 129.821 148.924  0.00  0.00    +0.000 C 
ENDBRANCH  12  22
BRANCH   5  24
ATOM     24  O   UNL     1     105.041 125.008 148.534  0.00  0.00    +0.000 OA
BRANCH  24  32
ATOM     25  O   UNL     1     106.203 125.344 147.774  0.00  0.00    +0.000 OA
ATOM     26  O   UNL     1     107.617 124.115 149.390  0.00  0.00    +0.000 OA
ATOM     27  O   UNL     1     105.984 124.188 149.612  0.00  0.00    +0.000 OA
ATOM     28  O   UNL     1     108.307 124.861 148.091  0.00  0.00    +0.000 OA
ATOM     29  C   UNL     1     107.146 124.524 148.851  0.00  0.00    +0.000 C 
ATOM     30  C   UNL     1     106.328 124.561 148.962  0.00  0.00    +0.000 C 
ATOM     31  C   UNL     1     107.490 124.898 148.201  0.00  0.00    +0.000 C 
ATOM     32  C   UNL     1     105.858 124.971 148.424  0.00  0.00    +0.000 C 
ATOM     33  C   UNL     1     107.019 125.307 147.663  0.00  0.00    +0.000 C 
BRANCH  33  36
ATOM     34  O   UNL     1     107.366 125.307 146.277  0.00  0.00    +0.000 OA
ATOM     35  O   UNL     1     107.706 126.426 147.099  0.00  0.00    +0.000 OA
ATOM     36  C   UNL     1     107.364 125.681 147.013  0.00  0.00    +0.000 C 
ENDBRANCH  33  36
ENDBRANCH  24  32
ENDBRANCH   5  24
TORSDOF 5
ENDMDL
MODEL 3
REMARK VINA RESULT:      -9.3      2.069      3.783
REMARK  Name = 13940613
REMARK  5 active torsions:
REMARK  status: ('A' for Active; 'I' for Inactive)
REMARK    1  A    between atoms: O_2  and  C_18
REMARK    2  A    between atoms: O_2  and  C_21
REMARK    3  A    between atoms: O_11  and  C_29
REMARK    4  A    between atoms: C_19  and  C_20
REMARK    5  A    between atoms: C_22  and  C_26
REMARK                            x       y       z     vdW  Elec       q    Type
REMARK                         _______ _______ _______ _____ _____    ______ ____
ROOT
ATOM      1  O   UNL     1     111.960 125.758 136.124  0.00  0.00    +0.000 OA
ATOM      2  O   UNL     1     111.441 128.060 136.873  0.00  0.00    +0.000 OA
ATOM      3  O   UNL     1     110.185 128.039 136.163  0.00  0.00    +0.000 OA
ATOM      4  O   UNL     1     109.441 125.643 134.666  0.00  0.00    +0.000 OA
ATOM      5  C   UNL     1     112.320 126.933 136.854  0.00  0.00    +0.000 A 
ATOM      6  C   UNL     1     112.493 126.166 136.605  0.00  0.00    +0.000 A 
ATOM      7  C   UNL     1     111.615 127.293 136.624  0.00  0.00    +0.000 A 
ATOM      8  C   UNL     1     111.082 126.885 136.142  0.00  0.00    +0.000 A 
ATOM      9  C   UNL     1     111.255 126.119 135.893  0.00  0.00    +0.000 A 
ATOM     10  C   UNL     1     110.350 127.271 135.908  0.00  0.00    +0.000 A 
ATOM     11  C   UNL     1     110.709 125.684 135.392  0.00  0.00    +0.000 A 
ATOM     12  C   UNL     1     109.792 126.852 135.408  0.00  0.00    +0.000 A 
ATOM     13  C   UNL     1     109.972 126.053 135.147  0.00  0.00    +0.000 A 
ENDROOT
BRANCH   6  16
ATOM     14  O   UNL     1     115.129 125.257 135.979  0.00  0.00    +0.000 OA
ATOM     15  O   UNL     1     115.315 124.726 137.530  0.00  0.00    +0.000 OA
ATOM     16  C   UNL     1     113.198 125.806 136.836  0.00  0.00    +0.000 A 
ATOM     17  C   UNL     1     113.811 125.712 136.292  0.00  0.00    +0.000 A 
ATOM     18  C   UNL     1     113.291 125.541 137.612  0.00  0.00    +0.000 A 
ATOM     19  C   UNL     1     114.516 125.352 136.523  0.00  0.00    +0.000 A 
ATOM     20  C   UNL     1     113.997 125.181 137.843  0.00  0.00    +0.000 A 
ATOM     21  C   UNL     1     114.609 125.086 137.299  0.00  0.00    +0.000 A 
ENDBRANCH   6  16
BRANCH  12  22
ATOM     22  O   UNL     1     109.087 127.214 135.178  0.00  0.00    +0.000 OA
ATOM     23  C   UNL     1     108.407 127.122 135.635  0.00  0.00    +0.000 C 
ENDBRANCH  12  22
BRANCH   5  24
ATOM     24  O   UNL     1     112.852 127.341 137.335  0.00  0.00    +0.000 OA
BRANCH  24  32
ATOM     25  O   UNL     1     113.373 128.181 136.304  0.00  0.00    +0.000 OA
ATOM     26  O   UNL     1     113.631 130.024 137.935  0.00  0.00    +0.000 OA
ATOM     27  O   UNL     1     113.024 128.570 138.423  0.00  0.00    +0.000 OA
ATOM     28  O   UNL     1     114.066 130.249 136.360  0.00  0.00    +0.000 OA
ATOM     29  C   UNL     1     113.545 129.410 137.391  0.00  0.00    +0.000 C 
ATOM     30  C   UNL     1     113.241 128.682 137.635  0.00  0.00    +0.000 C 
ATOM     31  C   UNL     1     113.762 129.522 136.603  0.00  0.00    +0.000 C 
ATOM     32  C   UNL     1     113.155 128.068 137.092  0.00  0.00    +0.000 C 
ATOM     33  C   UNL     1     113.677 128.908 136.060  0.00  0.00    +0.000 C 
BRANCH  33  36
ATOM     34  O   UNL     1     113.356 129.350 134.739  0.00  0.00    +0.000 OA
ATOM     35  O   UNL     1     114.648 128.803 135.017  0.00  0.00    +0.000 OA
ATOM     36  C   UNL     1     113.894 129.020 135.272  0.00  0.00    +0.000 C 
ENDBRANCH  33  36
ENDBRANCH  24  32
ENDBRANCH   5  24
TORSDOF 5
ENDMDL
MODEL 4
REMARK VINA RESULT:      -9.3      3.903      5.131
REMARK  Name = 13940613
REMARK  5 active torsions:
REMARK  status: ('A' for Active; 'I' for Inactive)
REMARK    1  A    between atoms: O_2  and  C_18
REMARK    2  A    between atoms: O_2  and  C_21
REMARK    3  A    between atoms: O_11  and  C_29
REMARK    4  A    between atoms: C_19  and  C_20
REMARK    5  A    between atoms: C_22  and  C_26
REMARK                            x       y       z     vdW  Elec       q    Type
REMARK                         _______ _______ _______ _____ _____    ______ ____
ROOT
ATOM      1  O   UNL     1     111.737 129.414 135.692  0.00  0.00    +0.000 OA
ATOM      2  O   UNL     1     112.370 130.666 137.733  0.00  0.00    +0.000 OA
ATOM      3  O   UNL     1     113.741 130.746 137.293  0.00  0.00    +0.000 OA
ATOM      4  O   UNL     1     114.487 129.538 134.740  0.00  0.00    +0.000 OA
ATOM      5  C   UNL     1     111.378 130.007 136.942  0.00  0.00    +0.000 A 
ATOM      6  C   UNL     1     111.166 129.590 136.262  0.00  0.00    +0.000 A 
ATOM      7  C   UNL     1     112.158 130.249 137.053  0.00  0.00    +0.000 A 
ATOM      8  C   UNL     1     112.729 130.073 136.482  0.00  0.00    +0.000 A 
ATOM      9  C   UNL     1     112.519 129.656 135.803  0.00  0.00    +0.000 A 
ATOM     10  C   UNL     1     113.540 130.329 136.609  0.00  0.00    +0.000 A 
ATOM     11  C   UNL     1     113.103 129.467 135.202  0.00  0.00    +0.000 A 
ATOM     12  C   UNL     1     114.138 130.149 136.020  0.00  0.00    +0.000 A 
ATOM     13  C   UNL     1     113.919 129.715 135.311  0.00  0.00    +0.000 A 
ENDROOT
BRANCH   6  16
ATOM     14  O   UNL     1     108.636 129.910 134.973  0.00  0.00    +0.000 OA
ATOM     15  O   UNL     1     108.042 128.624 135.820  0.00  0.00    +0.000 OA
ATOM     16  C   UNL     1     110.386 129.349 136.152  0.00  0.00    +0.000 A 
ATOM     17  C   UNL     1     109.901 129.750 135.618  0.00  0.00    +0.000 A 
ATOM     18  C   UNL     1     110.089 128.706 136.575  0.00  0.00    +0.000 A 
ATOM     19  C   UNL     1     109.120 129.509 135.507  0.00  0.00    +0.000 A 
ATOM     20  C   UNL     1     109.307 128.464 136.464  0.00  0.00    +0.000 A 
ATOM     21  C   UNL     1     108.824 128.866 135.930  0.00  0.00    +0.000 A 
ENDBRANCH   6  16
BRANCH  12  22
ATOM     22  O   UNL     1     114.918 130.392 136.133  0.00  0.00    +0.000 OA
ATOM     23  C   UNL     1     115.252 130.958 135.634  0.00  0.00    +0.000 C 
ENDBRANCH  12  22
BRANCH   5  24
ATOM     24  O   UNL     1     110.807 130.183 137.512  0.00  0.00    +0.000 OA
BRANCH  24  32
ATOM     25  O   UNL     1     110.660 131.551 137.125  0.00  0.00    +0.000 OA
ATOM     26  O   UNL     1     110.156 132.160 139.470  0.00  0.00    +0.000 OA
ATOM     27  O   UNL     1     110.471 130.589 139.075  0.00  0.00    +0.000 OA
ATOM     28  O   UNL     1     110.177 133.324 138.302  0.00  0.00    +0.000 OA
ATOM     29  C   UNL     1     110.324 131.957 138.688  0.00  0.00    +0.000 C 
ATOM     30  C   UNL     1     110.482 131.171 138.491  0.00  0.00    +0.000 C 
ATOM     31  C   UNL     1     110.335 132.539 138.104  0.00  0.00    +0.000 C 
ATOM     32  C   UNL     1     110.650 130.968 137.710  0.00  0.00    +0.000 C 
ATOM     33  C   UNL     1     110.502 132.336 137.323  0.00  0.00    +0.000 C 
BRANCH  33  36
ATOM     34  O   UNL     1     109.852 133.029 136.256  0.00  0.00    +0.000 OA
ATOM     35  O   UNL     1     111.183 133.388 136.636  0.00  0.00    +0.000 OA
ATOM     36  C   UNL     1     110.513 132.918 136.738  0.00  0.00    +0.000 C 
ENDBRANCH  33  36
ENDBRANCH  24  32
ENDBRANCH   5  24
TORSDOF 5
ENDMDL
MODEL 5
REMARK VINA RESULT:      -9.2      2.268      4.803
REMARK  Name = 13940613
REMARK  5 active torsions:
REMARK  status: ('A' for Active; 'I' for Inactive)
REMARK    1  A    between atoms: O_2  and  C_18
REMARK    2  A    between atoms: O_2  and  C_21
REMARK    3  A    between atoms: O_11  and  C_29
REMARK    4  A    between atoms: C_19  and  C_20
REMARK    5  A    between atoms: C_22  and  C_26
REMARK                            x       y       z     vdW  Elec       q    Type
REMARK                         _______ _______ _______ _____ _____    ______ ____
ROOT
ATOM      1  O   UNL     1     113.413 126.999 136.673  0.00  0.00    +0.000 OA
ATOM      2  O   UNL     1     111.227 126.594 135.583  0.00  0.00    +0.000 OA
ATOM      3  O   UNL     1     111.337 125.176 135.827  0.00  0.00    +0.000 OA
ATOM      4  O   UNL     1     113.702 124.149 137.198  0.00  0.00    +0.000 OA
ATOM      5  C   UNL     1     112.253 127.497 136.001  0.00  0.00    +0.000 A 
ATOM      6  C   UNL     1     112.982 127.633 136.364  0.00  0.00    +0.000 A 
ATOM      7  C   UNL     1     111.956 126.730 135.946  0.00  0.00    +0.000 A 
ATOM      8  C   UNL     1     112.387 126.097 136.255  0.00  0.00    +0.000 A 
ATOM      9  C   UNL     1     113.115 126.232 136.618  0.00  0.00    +0.000 A 
ATOM     10  C   UNL     1     112.066 125.302 136.192  0.00  0.00    +0.000 A 
ATOM     11  C   UNL     1     113.574 125.582 136.943  0.00  0.00    +0.000 A 
ATOM     12  C   UNL     1     112.510 124.640 136.511  0.00  0.00    +0.000 A 
ATOM     13  C   UNL     1     113.269 124.780 136.889  0.00  0.00    +0.000 A 
ENDROOT
BRANCH   6  16
ATOM     14  O   UNL     1     113.560 129.958 137.922  0.00  0.00    +0.000 OA
ATOM     15  O   UNL     1     114.173 130.702 136.583  0.00  0.00    +0.000 OA
ATOM     16  C   UNL     1     113.279 128.399 136.419  0.00  0.00    +0.000 A 
ATOM     17  C   UNL     1     113.271 128.795 137.143  0.00  0.00    +0.000 A 
ATOM     18  C   UNL     1     113.586 128.772 135.749  0.00  0.00    +0.000 A 
ATOM     19  C   UNL     1     113.569 129.562 137.198  0.00  0.00    +0.000 A 
ATOM     20  C   UNL     1     113.884 129.540 135.804  0.00  0.00    +0.000 A 
ATOM     21  C   UNL     1     113.875 129.934 136.528  0.00  0.00    +0.000 A 
ENDBRANCH   6  16
BRANCH  12  22
ATOM     22  O   UNL     1     112.210 123.873 136.455  0.00  0.00    +0.000 OA
ATOM     23  C   UNL     1     111.880 123.509 137.117  0.00  0.00    +0.000 C 
ENDBRANCH  12  22
BRANCH   5  24
ATOM     24  O   UNL     1     111.822 128.129 135.693  0.00  0.00    +0.000 OA
BRANCH  24  32
ATOM     25  O   UNL     1     110.878 128.160 136.765  0.00  0.00    +0.000 OA
ATOM     26  O   UNL     1     109.142 128.994 135.211  0.00  0.00    +0.000 OA
ATOM     27  O   UNL     1     110.665 128.685 134.657  0.00  0.00    +0.000 OA
ATOM     28  O   UNL     1     108.777 128.747 136.800  0.00  0.00    +0.000 OA
ATOM     29  C   UNL     1     109.720 128.716 135.729  0.00  0.00    +0.000 C 
ATOM     30  C   UNL     1     110.483 128.562 135.452  0.00  0.00    +0.000 C 
ATOM     31  C   UNL     1     109.538 128.593 136.524  0.00  0.00    +0.000 C 
ATOM     32  C   UNL     1     111.061 128.284 135.969  0.00  0.00    +0.000 C 
ATOM     33  C   UNL     1     110.116 128.315 137.041  0.00  0.00    +0.000 C 
BRANCH  33  36
ATOM     34  O   UNL     1     110.153 128.752 138.401  0.00  0.00    +0.000 OA
ATOM     35  O   UNL     1     109.534 127.507 138.066  0.00  0.00    +0.000 OA
ATOM     36  C   UNL     1     109.934 128.191 137.836  0.00  0.00    +0.000 C 
ENDBRANCH  33  36
ENDBRANCH  24  32
ENDBRANCH   5  24
TORSDOF 5
ENDMDL
MODEL 6
REMARK VINA RESULT:      -9.2      1.424      2.376
REMARK  Name = 13940613
REMARK  5 active torsions:
REMARK  status: ('A' for Active; 'I' for Inactive)
REMARK    1  A    between atoms: O_2  and  C_18
REMARK    2  A    between atoms: O_2  and  C_21
REMARK    3  A    between atoms: O_11  and  C_29
REMARK    4  A    between atoms: C_19  and  C_20
REMARK    5  A    between atoms: C_22  and  C_26
REMARK                            x       y       z     vdW  Elec       q    Type
REMARK                         _______ _______ _______ _____ _____    ______ ____
ROOT
ATOM      1  O   UNL     1     113.051 127.048 136.407  0.00  0.00    +0.000 OA
ATOM      2  O   UNL     1     112.573 127.995 138.644  0.00  0.00    +0.000 OA
ATOM      3  O   UNL     1     113.100 129.278 138.245  0.00  0.00    +0.000 OA
ATOM      4  O   UNL     1     114.129 129.609 135.532  0.00  0.00    +0.000 OA
ATOM      5  C   UNL     1     112.549 126.892 137.736  0.00  0.00    +0.000 A 
ATOM      6  C   UNL     1     112.708 126.576 136.991  0.00  0.00    +0.000 A 
ATOM      7  C   UNL     1     112.732 127.679 137.899  0.00  0.00    +0.000 A 
ATOM      8  C   UNL     1     113.076 128.152 137.315  0.00  0.00    +0.000 A 
ATOM      9  C   UNL     1     113.235 127.836 136.570  0.00  0.00    +0.000 A 
ATOM     10  C   UNL     1     113.263 128.971 137.497  0.00  0.00    +0.000 A 
ATOM     11  C   UNL     1     113.592 128.317 135.954  0.00  0.00    +0.000 A 
ATOM     12  C   UNL     1     113.620 129.467 136.894  0.00  0.00    +0.000 A 
ATOM     13  C   UNL     1     113.786 129.139 136.117  0.00  0.00    +0.000 A 
ENDROOT
BRANCH   6  16
ATOM     14  O   UNL     1     111.035 124.635 135.724  0.00  0.00    +0.000 OA
ATOM     15  O   UNL     1     111.973 123.425 136.340  0.00  0.00    +0.000 OA
ATOM     16  C   UNL     1     112.524 125.789 136.828  0.00  0.00    +0.000 A 
ATOM     17  C   UNL     1     111.871 125.605 136.357  0.00  0.00    +0.000 A 
ATOM     18  C   UNL     1     112.993 125.184 137.136  0.00  0.00    +0.000 A 
ATOM     19  C   UNL     1     111.688 124.818 136.195  0.00  0.00    +0.000 A 
ATOM     20  C   UNL     1     112.809 124.395 136.973  0.00  0.00    +0.000 A 
ATOM     21  C   UNL     1     112.157 124.213 136.503  0.00  0.00    +0.000 A 
ENDBRANCH   6  16
BRANCH  12  22
ATOM     22  O   UNL     1     113.803 130.254 137.059  0.00  0.00    +0.000 OA
ATOM     23  C   UNL     1     113.296 130.857 136.812  0.00  0.00    +0.000 C 
ENDBRANCH  12  22
BRANCH   5  24
ATOM     24  O   UNL     1     112.206 126.419 138.319  0.00  0.00    +0.000 OA
BRANCH  24  32
ATOM     25  O   UNL     1     110.902 126.986 138.173  0.00  0.00    +0.000 OA
ATOM     26  O   UNL     1     110.443 126.548 140.565  0.00  0.00    +0.000 OA
ATOM     27  O   UNL     1     111.900 126.127 139.914  0.00  0.00    +0.000 OA
ATOM     28  O   UNL     1     109.293 127.260 139.621  0.00  0.00    +0.000 OA
ATOM     29  C   UNL     1     110.596 126.694 139.768  0.00  0.00    +0.000 C 
ATOM     30  C   UNL     1     111.325 126.483 139.442  0.00  0.00    +0.000 C 
ATOM     31  C   UNL     1     110.021 127.050 139.295  0.00  0.00    +0.000 C 
ATOM     32  C   UNL     1     111.478 126.629 138.645  0.00  0.00    +0.000 C 
ATOM     33  C   UNL     1     110.174 127.196 138.499  0.00  0.00    +0.000 C 
BRANCH  33  36
ATOM     34  O   UNL     1     109.114 127.087 137.547  0.00  0.00    +0.000 OA
ATOM     35  O   UNL     1     109.509 128.372 138.033  0.00  0.00    +0.000 OA
ATOM     36  C   UNL     1     109.599 127.552 138.027  0.00  0.00    +0.000 C 
ENDBRANCH  33  36
ENDBRANCH  24  32
ENDBRANCH   5  24
TORSDOF 5
ENDMDL
MODEL 7
REMARK VINA RESULT:      -9.1      1.149      3.976
REMARK  Name = 13940613
REMARK  5 active torsions:
REMARK  status: ('A' for Active; 'I' for Inactive)
REMARK    1  A    between atoms: O_2  and  C_18
REMARK    2  A    between atoms: O_2  and  C_21
REMARK    3  A    between atoms: O_11  and  C_29
REMARK    4  A    between atoms: C_19  and  C_20
REMARK    5  A    between atoms: C_22  and  C_26
REMARK                            x       y       z     vdW  Elec       q    Type
REMARK                         _______ _______ _______ _____ _____    ______ ____
ROOT
ATOM      1  O   UNL     1     113.020 128.424 138.292  0.00  0.00    +0.000 OA
ATOM      2  O   UNL     1     112.018 126.182 138.605  0.00  0.00    +0.000 OA
ATOM      3  O   UNL     1     112.232 126.253 140.030  0.00  0.00    +0.000 OA
ATOM      4  O   UNL     1     113.483 128.639 141.160  0.00  0.00    +0.000 OA
ATOM      5  C   UNL     1     112.407 127.254 137.744  0.00  0.00    +0.000 A 
ATOM      6  C   UNL     1     112.741 128.002 137.640  0.00  0.00    +0.000 A 
ATOM      7  C   UNL     1     112.352 126.929 138.500  0.00  0.00    +0.000 A 
ATOM      8  C   UNL     1     112.631 127.351 139.153  0.00  0.00    +0.000 A 
ATOM      9  C   UNL     1     112.964 128.098 139.048  0.00  0.00    +0.000 A 
ATOM     10  C   UNL     1     112.567 127.001 139.935  0.00  0.00    +0.000 A 
ATOM     11  C   UNL     1     113.258 128.548 139.719  0.00  0.00    +0.000 A 
ATOM     12  C   UNL     1     112.856 127.436 140.618  0.00  0.00    +0.000 A 
ATOM     13  C   UNL     1     113.203 128.215 140.510  0.00  0.00    +0.000 A 
ENDROOT
BRANCH   6  16
ATOM     14  O   UNL     1     114.314 128.731 135.367  0.00  0.00    +0.000 OA
ATOM     15  O   UNL     1     112.962 129.304 134.616  0.00  0.00    +0.000 OA
ATOM     16  C   UNL     1     112.796 128.327 136.884  0.00  0.00    +0.000 A 
ATOM     17  C   UNL     1     113.528 128.366 136.504  0.00  0.00    +0.000 A 
ATOM     18  C   UNL     1     112.120 128.614 136.508  0.00  0.00    +0.000 A 
ATOM     19  C   UNL     1     113.583 128.692 135.748  0.00  0.00    +0.000 A 
ATOM     20  C   UNL     1     112.175 128.940 135.752  0.00  0.00    +0.000 A 
ATOM     21  C   UNL     1     112.907 128.978 135.372  0.00  0.00    +0.000 A 
ENDBRANCH   6  16
BRANCH  12  22
ATOM     22  O   UNL     1     112.799 127.108 141.373  0.00  0.00    +0.000 OA
ATOM     23  C   UNL     1     112.187 127.336 141.877  0.00  0.00    +0.000 C 
ENDBRANCH  12  22
BRANCH   5  24
ATOM     24  O   UNL     1     112.129 126.833 137.092  0.00  0.00    +0.000 OA
BRANCH  24  32
ATOM     25  O   UNL     1     113.240 125.938 137.020  0.00  0.00    +0.000 OA
ATOM     26  O   UNL     1     111.740 124.138 136.223  0.00  0.00    +0.000 OA
ATOM     27  O   UNL     1     111.128 125.633 136.561  0.00  0.00    +0.000 OA
ATOM     28  O   UNL     1     113.351 123.844 136.416  0.00  0.00    +0.000 OA
ATOM     29  C   UNL     1     112.240 124.738 136.488  0.00  0.00    +0.000 C 
ATOM     30  C   UNL     1     111.934 125.486 136.658  0.00  0.00    +0.000 C 
ATOM     31  C   UNL     1     113.046 124.591 136.585  0.00  0.00    +0.000 C 
ATOM     32  C   UNL     1     112.434 126.085 136.923  0.00  0.00    +0.000 C 
ATOM     33  C   UNL     1     113.546 125.190 136.851  0.00  0.00    +0.000 C 
BRANCH  33  36
ATOM     34  O   UNL     1     114.623 124.668 137.631  0.00  0.00    +0.000 OA
ATOM     35  O   UNL     1     114.886 125.271 136.362  0.00  0.00    +0.000 OA
ATOM     36  C   UNL     1     114.351 125.043 136.947  0.00  0.00    +0.000 C 
ENDBRANCH  33  36
ENDBRANCH  24  32
ENDBRANCH   5  24
TORSDOF 5
ENDMDL
MODEL 8
REMARK VINA RESULT:      -9.1      0.996      3.213
REMARK  Name = 13940613
REMARK  5 active torsions:
REMARK  status: ('A' for Active; 'I' for Inactive)
REMARK    1  A    between atoms: O_2  and  C_18
REMARK    2  A    between atoms: O_2  and  C_21
REMARK    3  A    between atoms: O_11  and  C_29
REMARK    4  A    between atoms: C_19  and  C_20
REMARK    5  A    between atoms: C_22  and  C_26
REMARK                            x       y       z     vdW  Elec       q    Type
REMARK                         _______ _______ _______ _____ _____    ______ ____
ROOT
ATOM      1  O   UNL     1     112.976 128.455 138.212  0.00  0.00    +0.000 OA
ATOM      2  O   UNL     1     112.367 127.227 136.150  0.00  0.00    +0.000 OA
ATOM      3  O   UNL     1     112.902 128.285 135.328  0.00  0.00    +0.000 OA
ATOM      4  O   UNL     1     114.075 130.629 136.616  0.00  0.00    +0.000 OA
ATOM      5  C   UNL     1     112.403 127.310 137.576  0.00  0.00    +0.000 A 
ATOM      6  C   UNL     1     112.605 127.719 138.264  0.00  0.00    +0.000 A 
ATOM      7  C   UNL     1     112.569 127.636 136.838  0.00  0.00    +0.000 A 
ATOM      8  C   UNL     1     112.940 128.372 136.786  0.00  0.00    +0.000 A 
ATOM      9  C   UNL     1     113.143 128.781 137.472  0.00  0.00    +0.000 A 
ATOM     10  C   UNL     1     113.108 128.701 136.010  0.00  0.00    +0.000 A 
ATOM     11  C   UNL     1     113.528 129.548 137.432  0.00  0.00    +0.000 A 
ATOM     12  C   UNL     1     113.493 129.467 135.949  0.00  0.00    +0.000 A 
ATOM     13  C   UNL     1     113.705 129.894 136.665  0.00  0.00    +0.000 A 
ENDROOT
BRANCH   6  16
ATOM     14  O   UNL     1     113.498 126.509 140.695  0.00  0.00    +0.000 OA
ATOM     15  O   UNL     1     111.937 126.414 141.221  0.00  0.00    +0.000 OA
ATOM     16  C   UNL     1     112.439 127.393 139.003  0.00  0.00    +0.000 A 
ATOM     17  C   UNL     1     113.052 127.114 139.479  0.00  0.00    +0.000 A 
ATOM     18  C   UNL     1     111.658 127.346 139.266  0.00  0.00    +0.000 A 
ATOM     19  C   UNL     1     112.885 126.788 140.218  0.00  0.00    +0.000 A 
ATOM     20  C   UNL     1     111.491 127.019 140.005  0.00  0.00    +0.000 A 
ATOM     21  C   UNL     1     112.105 126.741 140.481  0.00  0.00    +0.000 A 
ENDBRANCH   6  16
BRANCH  12  22
ATOM     22  O   UNL     1     113.659 129.791 135.209  0.00  0.00    +0.000 OA
ATOM     23  C   UNL     1     114.417 129.725 134.889  0.00  0.00    +0.000 C 
ENDBRANCH  12  22
BRANCH   5  24
ATOM     24  O   UNL     1     112.033 126.574 137.629  0.00  0.00    +0.000 OA
BRANCH  24  32
ATOM     25  O   UNL     1     113.211 125.832 137.309  0.00  0.00    +0.000 OA
ATOM     26  O   UNL     1     111.818 124.064 136.279  0.00  0.00    +0.000 OA
ATOM     27  O   UNL     1     111.104 125.396 136.942  0.00  0.00    +0.000 OA
ATOM     28  O   UNL     1     113.460 123.912 136.303  0.00  0.00    +0.000 OA
ATOM     29  C   UNL     1     112.282 124.654 136.622  0.00  0.00    +0.000 C 
ATOM     30  C   UNL     1     111.925 125.320 136.954  0.00  0.00    +0.000 C 
ATOM     31  C   UNL     1     113.104 124.578 136.634  0.00  0.00    +0.000 C 
ATOM     32  C   UNL     1     112.389 125.909 137.297  0.00  0.00    +0.000 C 
ATOM     33  C   UNL     1     113.567 125.166 136.977  0.00  0.00    +0.000 C 
BRANCH  33  36
ATOM     34  O   UNL     1     114.766 124.797 137.662  0.00  0.00    +0.000 OA
ATOM     35  O   UNL     1     114.833 125.307 136.328  0.00  0.00    +0.000 OA
ATOM     36  C   UNL     1     114.389 125.090 136.989  0.00  0.00    +0.000 C 
ENDBRANCH  33  36
ENDBRANCH  24  32
ENDBRANCH   5  24
TORSDOF 5
ENDMDL
MODEL 9
REMARK VINA RESULT:      -9.0      1.312      3.567
REMARK  Name = 13940613
REMARK  5 active torsions:
REMARK  status: ('A' for Active; 'I' for Inactive)
REMARK    1  A    between atoms: O_2  and  C_18
REMARK    2  A    between atoms: O_2  and  C_21
REMARK    3  A    between atoms: O_11  and  C_29
REMARK    4  A    between atoms: C_19  and  C_20
REMARK    5  A    between atoms: C_22  and  C_26
REMARK                            x       y       z     vdW  Elec       q    Type
REMARK                         _______ _______ _______ _____ _____    ______ ____
ROOT
ATOM      1  O   UNL     1     113.539 126.491 138.812  0.00  0.00    +0.000 OA
ATOM      2  O   UNL     1     112.172 128.436 138.120  0.00  0.00    +0.000 OA
ATOM      3  O   UNL     1     112.536 129.153 139.318  0.00  0.00    +0.000 OA
ATOM      4  O   UNL     1     114.316 127.878 141.252  0.00  0.00    +0.000 OA
ATOM      5  C   UNL     1     112.667 127.119 137.869  0.00  0.00    +0.000 A 
ATOM      6  C   UNL     1     113.123 126.471 138.099  0.00  0.00    +0.000 A 
ATOM      7  C   UNL     1     112.628 127.787 138.350  0.00  0.00    +0.000 A 
ATOM      8  C   UNL     1     113.044 127.807 139.063  0.00  0.00    +0.000 A 
ATOM      9  C   UNL     1     113.499 127.160 139.293  0.00  0.00    +0.000 A 
ATOM     10  C   UNL     1     112.994 128.510 139.557  0.00  0.00    +0.000 A 
ATOM     11  C   UNL     1     113.936 127.168 140.033  0.00  0.00    +0.000 A 
ATOM     12  C   UNL     1     113.425 128.536 140.299  0.00  0.00    +0.000 A 
ATOM     13  C   UNL     1     113.899 127.861 140.540  0.00  0.00    +0.000 A 
ENDROOT
BRANCH   6  16
ATOM     14  O   UNL     1     114.563 124.832 136.253  0.00  0.00    +0.000 OA
ATOM     15  O   UNL     1     113.281 123.797 136.171  0.00  0.00    +0.000 OA
ATOM     16  C   UNL     1     113.162 125.803 137.617  0.00  0.00    +0.000 A 
ATOM     17  C   UNL     1     113.843 125.651 137.176  0.00  0.00    +0.000 A 
ATOM     18  C   UNL     1     112.521 125.285 137.576  0.00  0.00    +0.000 A 
ATOM     19  C   UNL     1     113.883 124.983 136.694  0.00  0.00    +0.000 A 
ATOM     20  C   UNL     1     112.561 124.616 137.094  0.00  0.00    +0.000 A 
ATOM     21  C   UNL     1     113.242 124.466 136.653  0.00  0.00    +0.000 A 
ENDBRANCH   6  16
BRANCH  12  22
ATOM     22  O   UNL     1     113.383 129.206 140.780  0.00  0.00    +0.000 OA
ATOM     23  C   UNL     1     114.008 129.744 140.793  0.00  0.00    +0.000 C 
ENDBRANCH  12  22
BRANCH   5  24
ATOM     24  O   UNL     1     112.252 127.099 137.156  0.00  0.00    +0.000 OA
BRANCH  24  32
ATOM     25  O   UNL     1     113.170 127.951 136.469  0.00  0.00    +0.000 OA
ATOM     26  O   UNL     1     111.331 128.777 135.034  0.00  0.00    +0.000 OA
ATOM     27  O   UNL     1     111.025 127.650 136.200  0.00  0.00    +0.000 OA
ATOM     28  O   UNL     1     112.862 129.353 134.825  0.00  0.00    +0.000 OA
ATOM     29  C   UNL     1     111.944 128.502 135.512  0.00  0.00    +0.000 C 
ATOM     30  C   UNL     1     111.791 127.938 136.096  0.00  0.00    +0.000 C 
ATOM     31  C   UNL     1     112.710 128.790 135.408  0.00  0.00    +0.000 C 
ATOM     32  C   UNL     1     112.404 127.663 136.573  0.00  0.00    +0.000 C 
ATOM     33  C   UNL     1     113.322 128.514 135.886  0.00  0.00    +0.000 C 
BRANCH  33  36
ATOM     34  O   UNL     1     114.634 128.371 135.336  0.00  0.00    +0.000 OA
ATOM     35  O   UNL     1     114.310 129.520 136.122  0.00  0.00    +0.000 OA
ATOM     36  C   UNL     1     114.088 128.802 135.782  0.00  0.00    +0.000 C 
ENDBRANCH  33  36
ENDBRANCH  24  32
ENDBRANCH   5  24
TORSDOF 5
ENDMDL
MODEL 10
REMARK VINA RESULT:      -8.9      1.957      4.463
REMARK  Name = 13940613
REMARK  5 active torsions:
REMARK  status: ('A' for Active; 'I' for Inactive)
REMARK    1  A    between atoms: O_2  and  C_18
REMARK    2  A    between atoms: O_2  and  C_21
REMARK    3  A    between atoms: O_11  and  C_29
REMARK    4  A    between atoms: C_19  and  C_20
REMARK    5  A    between atoms: C_22  and  C_26
REMARK                            x       y       z     vdW  Elec       q    Type
REMARK                         _______ _______ _______ _____ _____    ______ ____
ROOT
ATOM      1  O   UNL     1     111.432 126.322 136.198  0.00  0.00    +0.000 OA
ATOM      2  O   UNL     1     113.496 127.689 136.233  0.00  0.00    +0.000 OA
ATOM      3  O   UNL     1     114.302 126.516 136.473  0.00  0.00    +0.000 OA
ATOM      4  O   UNL     1     112.995 123.913 136.683  0.00  0.00    +0.000 OA
ATOM      5  C   UNL     1     112.076 127.594 136.097  0.00  0.00    +0.000 A 
ATOM      6  C   UNL     1     111.388 127.139 136.085  0.00  0.00    +0.000 A 
ATOM      7  C   UNL     1     112.807 127.234 136.221  0.00  0.00    +0.000 A 
ATOM      8  C   UNL     1     112.851 126.417 136.335  0.00  0.00    +0.000 A 
ATOM      9  C   UNL     1     112.164 125.962 136.323  0.00  0.00    +0.000 A 
ATOM     10  C   UNL     1     113.619 126.053 136.463  0.00  0.00    +0.000 A 
ATOM     11  C   UNL     1     112.195 125.111 136.440  0.00  0.00    +0.000 A 
ATOM     12  C   UNL     1     113.670 125.204 136.582  0.00  0.00    +0.000 A 
ATOM     13  C   UNL     1     112.954 124.729 136.570  0.00  0.00    +0.000 A 
ENDROOT
BRANCH   6  16
ATOM     14  O   UNL     1     108.877 128.059 137.095  0.00  0.00    +0.000 OA
ATOM     15  O   UNL     1     108.462 128.581 135.586  0.00  0.00    +0.000 OA
ATOM     16  C   UNL     1     110.657 127.499 135.961  0.00  0.00    +0.000 A 
ATOM     17  C   UNL     1     110.133 127.599 136.590  0.00  0.00    +0.000 A 
ATOM     18  C   UNL     1     110.449 127.761 135.206  0.00  0.00    +0.000 A 
ATOM     19  C   UNL     1     109.402 127.959 136.465  0.00  0.00    +0.000 A 
ATOM     20  C   UNL     1     109.717 128.122 135.081  0.00  0.00    +0.000 A 
ATOM     21  C   UNL     1     109.194 128.220 135.711  0.00  0.00    +0.000 A 
ENDBRANCH   6  16
BRANCH  12  22
ATOM     22  O   UNL     1     114.403 124.845 136.706  0.00  0.00    +0.000 OA
ATOM     23  C   UNL     1     114.668 124.703 137.474  0.00  0.00    +0.000 C 
ENDBRANCH  12  22
BRANCH   5  24
ATOM     24  O   UNL     1     112.033 128.410 135.984  0.00  0.00    +0.000 OA
BRANCH  24  32
ATOM     25  O   UNL     1     112.219 128.733 137.363  0.00  0.00    +0.000 OA
ATOM     26  O   UNL     1     113.345 130.840 136.717  0.00  0.00    +0.000 OA
ATOM     27  O   UNL     1     112.783 129.815 135.553  0.00  0.00    +0.000 OA
ATOM     28  O   UNL     1     113.157 130.461 138.311  0.00  0.00    +0.000 OA
ATOM     29  C   UNL     1     112.970 130.138 136.932  0.00  0.00    +0.000 C 
ATOM     30  C   UNL     1     112.689 129.625 136.350  0.00  0.00    +0.000 C 
ATOM     31  C   UNL     1     112.875 129.948 137.729  0.00  0.00    +0.000 C 
ATOM     32  C   UNL     1     112.314 128.923 136.565  0.00  0.00    +0.000 C 
ATOM     33  C   UNL     1     112.501 129.246 137.944  0.00  0.00    +0.000 C 
BRANCH  33  36
ATOM     34  O   UNL     1     111.695 129.227 139.124  0.00  0.00    +0.000 OA
ATOM     35  O   UNL     1     113.021 128.696 139.156  0.00  0.00    +0.000 OA
ATOM     36  C   UNL     1     112.406 129.056 138.741  0.00  0.00    +0.000 C 
ENDBRANCH  33  36
ENDBRANCH  24  32
ENDBRANCH   5  24
TORSDOF 5
ENDMDL
