MODEL 1
REMARK VINA RESULT:      -8.3      0.000      0.000
REMARK  Name = 131834220
REMARK  3 active torsions:
REMARK  status: ('A' for Active; 'I' for Inactive)
REMARK    1  A    between atoms: S_1  and  C_15
REMARK    2  A    between atoms: O_5  and  C_23
REMARK    3  A    between atoms: C_10  and  C_14
REMARK                            x       y       z     vdW  Elec       q    Type
REMARK                         _______ _______ _______ _____ _____    ______ ____
ROOT
ATOM      1  O   UNL     1     104.595 124.268 147.689  0.00  0.00    +0.000 OA
ATOM      2  O   UNL     1     104.307 125.134 145.706  0.00  0.00    +0.000 OA
ATOM      3  O   UNL     1     106.875 124.327 149.499  0.00  0.00    +0.000 OA
ATOM      4  C   UNL     1     104.660 124.927 146.422  0.00  0.00    +0.000 C 
ATOM      5  C   UNL     1     104.242 124.477 146.973  0.00  0.00    +0.000 C 
ATOM      6  C   UNL     1     105.431 125.168 146.588  0.00  0.00    +0.000 C 
ATOM      7  C   UNL     1     105.784 124.961 147.303  0.00  0.00    +0.000 A 
ATOM      8  C   UNL     1     105.366 124.511 147.854  0.00  0.00    +0.000 A 
ATOM      9  C   UNL     1     106.588 125.219 147.464  0.00  0.00    +0.000 A 
ATOM     10  C   UNL     1     105.723 124.288 148.604  0.00  0.00    +0.000 A 
ATOM     11  C   UNL     1     106.961 125.005 148.208  0.00  0.00    +0.000 A 
ATOM     12  C   UNL     1     106.525 124.537 148.781  0.00  0.00    +0.000 A 
ENDROOT
BRANCH   5  14
ATOM     13  O   UNL     1     101.421 124.807 147.290  0.00  0.00    +0.000 OA
ATOM     14  C   UNL     1     103.470 124.234 146.808  0.00  0.00    +0.000 A 
ATOM     15  C   UNL     1     102.831 124.643 147.132  0.00  0.00    +0.000 A 
ATOM     16  C   UNL     1     103.339 123.583 146.318  0.00  0.00    +0.000 A 
ATOM     17  C   UNL     1     102.060 124.399 146.966  0.00  0.00    +0.000 A 
ATOM     18  C   UNL     1     102.568 123.340 146.153  0.00  0.00    +0.000 A 
ATOM     19  C   UNL     1     101.929 123.748 146.477  0.00  0.00    +0.000 A 
BRANCH  19  20
ATOM     20  O   UNL     1     101.158 123.505 146.312  0.00  0.00    +0.000 OA
ATOM     21  C   UNL     1     101.013 122.987 145.687  0.00  0.00    +0.000 C 
ENDBRANCH  19  20
ENDBRANCH   5  14
BRANCH   9  22
ATOM     22  S   UNL     1     106.998 125.669 146.907  0.00  0.00    +0.000 S 
ATOM     23  O   UNL     1     106.971 126.492 146.944  0.00  0.00    +0.000 OA
ATOM     24  O   UNL     1     107.435 125.295 146.316  0.00  0.00    +0.000 OA
ENDBRANCH   9  22
TORSDOF 3
ENDMDL
MODEL 2
REMARK VINA RESULT:      -8.2      1.534      4.504
REMARK  Name = 131834220
REMARK  3 active torsions:
REMARK  status: ('A' for Active; 'I' for Inactive)
REMARK    1  A    between atoms: S_1  and  C_15
REMARK    2  A    between atoms: O_5  and  C_23
REMARK    3  A    between atoms: C_10  and  C_14
REMARK                            x       y       z     vdW  Elec       q    Type
REMARK                         _______ _______ _______ _____ _____    ______ ____
ROOT
ATOM      1  O   UNL     1     104.197 125.145 147.554  0.00  0.00    +0.000 OA
ATOM      2  O   UNL     1     104.995 123.633 146.197  0.00  0.00    +0.000 OA
ATOM      3  O   UNL     1     101.467 125.748 148.368  0.00  0.00    +0.000 OA
ATOM      4  C   UNL     1     104.460 124.083 146.634  0.00  0.00    +0.000 C 
ATOM      5  C   UNL     1     104.733 124.694 147.116  0.00  0.00    +0.000 C 
ATOM      6  C   UNL     1     103.652 123.922 146.591  0.00  0.00    +0.000 C 
ATOM      7  C   UNL     1     103.117 124.371 147.028  0.00  0.00    +0.000 A 
ATOM      8  C   UNL     1     103.390 124.983 147.510  0.00  0.00    +0.000 A 
ATOM      9  C   UNL     1     102.278 124.193 146.974  0.00  0.00    +0.000 A 
ATOM     10  C   UNL     1     102.842 125.459 147.971  0.00  0.00    +0.000 A 
ATOM     11  C   UNL     1     101.716 124.658 147.427  0.00  0.00    +0.000 A 
ATOM     12  C   UNL     1     102.000 125.295 147.929  0.00  0.00    +0.000 A 
ENDROOT
BRANCH   5  14
ATOM     13  O   UNL     1     107.089 125.863 145.999  0.00  0.00    +0.000 OA
ATOM     14  C   UNL     1     105.540 124.857 147.161  0.00  0.00    +0.000 A 
ATOM     15  C   UNL     1     105.911 125.279 146.557  0.00  0.00    +0.000 A 
ATOM     16  C   UNL     1     105.978 124.595 147.811  0.00  0.00    +0.000 A 
ATOM     17  C   UNL     1     106.719 125.441 146.603  0.00  0.00    +0.000 A 
ATOM     18  C   UNL     1     106.785 124.757 147.855  0.00  0.00    +0.000 A 
ATOM     19  C   UNL     1     107.156 125.180 147.251  0.00  0.00    +0.000 A 
BRANCH  19  20
ATOM     20  O   UNL     1     107.964 125.342 147.297  0.00  0.00    +0.000 OA
ATOM     21  C   UNL     1     108.413 125.030 147.914  0.00  0.00    +0.000 C 
ENDBRANCH  19  20
ENDBRANCH   5  14
BRANCH   9  22
ATOM     22  S   UNL     1     102.015 123.580 146.489  0.00  0.00    +0.000 S 
ATOM     23  O   UNL     1     101.951 122.815 146.792  0.00  0.00    +0.000 OA
ATOM     24  O   UNL     1     101.816 123.731 145.703  0.00  0.00    +0.000 OA
ENDBRANCH   9  22
TORSDOF 3
ENDMDL
MODEL 3
REMARK VINA RESULT:      -8.0      7.046      7.953
REMARK  Name = 131834220
REMARK  3 active torsions:
REMARK  status: ('A' for Active; 'I' for Inactive)
REMARK    1  A    between atoms: S_1  and  C_15
REMARK    2  A    between atoms: O_5  and  C_23
REMARK    3  A    between atoms: C_10  and  C_14
REMARK                            x       y       z     vdW  Elec       q    Type
REMARK                         _______ _______ _______ _____ _____    ______ ____
ROOT
ATOM      1  O   UNL     1     104.364 124.943 139.417  0.00  0.00    +0.000 OA
ATOM      2  O   UNL     1     104.969 122.849 139.303  0.00  0.00    +0.000 OA
ATOM      3  O   UNL     1     105.241 127.105 141.160  0.00  0.00    +0.000 OA
ATOM      4  C   UNL     1     104.927 123.636 139.546  0.00  0.00    +0.000 C 
ATOM      5  C   UNL     1     104.406 124.155 139.174  0.00  0.00    +0.000 C 
ATOM      6  C   UNL     1     105.406 123.904 140.163  0.00  0.00    +0.000 C 
ATOM      7  C   UNL     1     105.364 124.690 140.406  0.00  0.00    +0.000 A 
ATOM      8  C   UNL     1     104.843 125.210 140.033  0.00  0.00    +0.000 A 
ATOM      9  C   UNL     1     105.868 124.957 141.049  0.00  0.00    +0.000 A 
ATOM     10  C   UNL     1     104.790 126.032 140.278  0.00  0.00    +0.000 A 
ATOM     11  C   UNL     1     105.828 125.776 141.307  0.00  0.00    +0.000 A 
ATOM     12  C   UNL     1     105.286 126.317 140.919  0.00  0.00    +0.000 A 
ENDROOT
BRANCH   5  14
ATOM     13  O   UNL     1     101.818 123.500 138.155  0.00  0.00    +0.000 OA
ATOM     14  C   UNL     1     103.927 123.888 138.557  0.00  0.00    +0.000 A 
ATOM     15  C   UNL     1     103.111 123.828 138.665  0.00  0.00    +0.000 A 
ATOM     16  C   UNL     1     104.265 123.682 137.833  0.00  0.00    +0.000 A 
ATOM     17  C   UNL     1     102.633 123.561 138.048  0.00  0.00    +0.000 A 
ATOM     18  C   UNL     1     103.786 123.415 137.217  0.00  0.00    +0.000 A 
ATOM     19  C   UNL     1     102.970 123.354 137.324  0.00  0.00    +0.000 A 
BRANCH  19  20
ATOM     20  O   UNL     1     102.492 123.087 136.707  0.00  0.00    +0.000 OA
ATOM     21  C   UNL     1     102.834 122.765 136.029  0.00  0.00    +0.000 C 
ENDBRANCH  19  20
ENDBRANCH   5  14
BRANCH   9  22
ATOM     22  S   UNL     1     106.386 124.430 141.416  0.00  0.00    +0.000 S 
ATOM     23  O   UNL     1     107.148 124.327 141.117  0.00  0.00    +0.000 OA
ATOM     24  O   UNL     1     106.142 124.007 142.081  0.00  0.00    +0.000 OA
ENDBRANCH   9  22
TORSDOF 3
ENDMDL
MODEL 4
REMARK VINA RESULT:      -8.0     13.043     14.503
REMARK  Name = 131834220
REMARK  3 active torsions:
REMARK  status: ('A' for Active; 'I' for Inactive)
REMARK    1  A    between atoms: S_1  and  C_15
REMARK    2  A    between atoms: O_5  and  C_23
REMARK    3  A    between atoms: C_10  and  C_14
REMARK                            x       y       z     vdW  Elec       q    Type
REMARK                         _______ _______ _______ _____ _____    ______ ____
ROOT
ATOM      1  O   UNL     1     113.863 126.855 136.701  0.00  0.00    +0.000 OA
ATOM      2  O   UNL     1     111.907 127.621 136.105  0.00  0.00    +0.000 OA
ATOM      3  O   UNL     1     114.735 124.175 137.432  0.00  0.00    +0.000 OA
ATOM      4  C   UNL     1     112.500 127.100 136.343  0.00  0.00    +0.000 C 
ATOM      5  C   UNL     1     113.269 127.376 136.462  0.00  0.00    +0.000 C 
ATOM      6  C   UNL     1     112.327 126.302 136.462  0.00  0.00    +0.000 C 
ATOM      7  C   UNL     1     112.920 125.781 136.700  0.00  0.00    +0.000 A 
ATOM      8  C   UNL     1     113.688 126.058 136.820  0.00  0.00    +0.000 A 
ATOM      9  C   UNL     1     112.725 124.952 136.821  0.00  0.00    +0.000 A 
ATOM     10  C   UNL     1     114.315 125.524 137.068  0.00  0.00    +0.000 A 
ATOM     11  C   UNL     1     113.339 124.405 137.069  0.00  0.00    +0.000 A 
ATOM     12  C   UNL     1     114.139 124.693 137.193  0.00  0.00    +0.000 A 
ENDROOT
BRANCH   5  14
ATOM     13  O   UNL     1     114.246 129.473 134.784  0.00  0.00    +0.000 OA
ATOM     14  C   UNL     1     113.444 128.173 136.343  0.00  0.00    +0.000 A 
ATOM     15  C   UNL     1     113.757 128.424 135.623  0.00  0.00    +0.000 A 
ATOM     16  C   UNL     1     113.305 128.720 136.946  0.00  0.00    +0.000 A 
ATOM     17  C   UNL     1     113.932 129.222 135.505  0.00  0.00    +0.000 A 
ATOM     18  C   UNL     1     113.480 129.518 136.827  0.00  0.00    +0.000 A 
ATOM     19  C   UNL     1     113.794 129.768 136.106  0.00  0.00    +0.000 A 
BRANCH  19  20
ATOM     20  O   UNL     1     113.968 130.566 135.989  0.00  0.00    +0.000 OA
ATOM     21  C   UNL     1     113.897 131.101 136.612  0.00  0.00    +0.000 C 
ENDBRANCH  19  20
ENDBRANCH   5  14
BRANCH   9  22
ATOM     22  S   UNL     1     111.954 124.685 136.700  0.00  0.00    +0.000 S 
ATOM     23  O   UNL     1     111.416 124.683 137.325  0.00  0.00    +0.000 OA
ATOM     24  O   UNL     1     111.722 124.421 135.954  0.00  0.00    +0.000 OA
ENDBRANCH   9  22
TORSDOF 3
ENDMDL
MODEL 5
REMARK VINA RESULT:      -7.9     12.866     14.368
REMARK  Name = 131834220
REMARK  3 active torsions:
REMARK  status: ('A' for Active; 'I' for Inactive)
REMARK    1  A    between atoms: S_1  and  C_15
REMARK    2  A    between atoms: O_5  and  C_23
REMARK    3  A    between atoms: C_10  and  C_14
REMARK                            x       y       z     vdW  Elec       q    Type
REMARK                         _______ _______ _______ _____ _____    ______ ____
ROOT
ATOM      1  O   UNL     1     111.974 127.311 135.779  0.00  0.00    +0.000 OA
ATOM      2  O   UNL     1     113.572 126.836 137.188  0.00  0.00    +0.000 OA
ATOM      3  O   UNL     1     109.802 125.686 134.719  0.00  0.00    +0.000 OA
ATOM      4  C   UNL     1     112.908 126.753 136.707  0.00  0.00    +0.000 C 
ATOM      5  C   UNL     1     112.640 127.393 136.260  0.00  0.00    +0.000 C 
ATOM      6  C   UNL     1     112.510 126.031 136.672  0.00  0.00    +0.000 C 
ATOM      7  C   UNL     1     111.845 125.948 136.192  0.00  0.00    +0.000 A 
ATOM      8  C   UNL     1     111.577 126.588 135.745  0.00  0.00    +0.000 A 
ATOM      9  C   UNL     1     111.439 125.191 136.165  0.00  0.00    +0.000 A 
ATOM     10  C   UNL     1     110.885 126.515 135.241  0.00  0.00    +0.000 A 
ATOM     11  C   UNL     1     110.746 125.099 135.666  0.00  0.00    +0.000 A 
ATOM     12  C   UNL     1     110.467 125.765 135.201  0.00  0.00    +0.000 A 
ENDROOT
BRANCH   5  14
ATOM     13  O   UNL     1     112.928 130.010 137.371  0.00  0.00    +0.000 OA
ATOM     14  C   UNL     1     113.036 128.115 136.294  0.00  0.00    +0.000 A 
ATOM     15  C   UNL     1     112.783 128.702 136.816  0.00  0.00    +0.000 A 
ATOM     16  C   UNL     1     113.687 128.251 135.805  0.00  0.00    +0.000 A 
ATOM     17  C   UNL     1     113.181 129.424 136.849  0.00  0.00    +0.000 A 
ATOM     18  C   UNL     1     114.084 128.974 135.839  0.00  0.00    +0.000 A 
ATOM     19  C   UNL     1     113.831 129.560 136.361  0.00  0.00    +0.000 A 
BRANCH  19  20
ATOM     20  O   UNL     1     114.229 130.282 136.394  0.00  0.00    +0.000 OA
ATOM     21  C   UNL     1     114.873 130.422 135.898  0.00  0.00    +0.000 C 
ENDBRANCH  19  20
ENDBRANCH   5  14
BRANCH   9  22
ATOM     22  S   UNL     1     111.715 124.557 136.615  0.00  0.00    +0.000 S 
ATOM     23  O   UNL     1     111.433 124.444 137.382  0.00  0.00    +0.000 OA
ATOM     24  O   UNL     1     112.271 124.037 136.299  0.00  0.00    +0.000 OA
ENDBRANCH   9  22
TORSDOF 3
ENDMDL
MODEL 6
REMARK VINA RESULT:      -7.9     11.692     13.004
REMARK  Name = 131834220
REMARK  3 active torsions:
REMARK  status: ('A' for Active; 'I' for Inactive)
REMARK    1  A    between atoms: S_1  and  C_15
REMARK    2  A    between atoms: O_5  and  C_23
REMARK    3  A    between atoms: C_10  and  C_14
REMARK                            x       y       z     vdW  Elec       q    Type
REMARK                         _______ _______ _______ _____ _____    ______ ____
ROOT
ATOM      1  O   UNL     1     113.798 126.181 138.208  0.00  0.00    +0.000 OA
ATOM      2  O   UNL     1     111.919 126.366 139.302  0.00  0.00    +0.000 OA
ATOM      3  O   UNL     1     114.538 124.534 135.923  0.00  0.00    +0.000 OA
ATOM      4  C   UNL     1     112.476 126.117 138.749  0.00  0.00    +0.000 C 
ATOM      5  C   UNL     1     113.239 126.431 138.762  0.00  0.00    +0.000 C 
ATOM      6  C   UNL     1     112.272 125.554 138.181  0.00  0.00    +0.000 C 
ATOM      7  C   UNL     1     112.830 125.305 137.627  0.00  0.00    +0.000 A 
ATOM      8  C   UNL     1     113.593 125.618 137.641  0.00  0.00    +0.000 A 
ATOM      9  C   UNL     1     112.605 124.718 137.041  0.00  0.00    +0.000 A 
ATOM     10  C   UNL     1     114.184 125.367 137.069  0.00  0.00    +0.000 A 
ATOM     11  C   UNL     1     113.182 124.454 136.462  0.00  0.00    +0.000 A 
ATOM     12  C   UNL     1     113.976 124.781 136.476  0.00  0.00    +0.000 A 
ENDROOT
BRANCH   5  14
ATOM     13  O   UNL     1     114.497 127.107 141.238  0.00  0.00    +0.000 OA
ATOM     14  C   UNL     1     113.445 126.993 139.329  0.00  0.00    +0.000 A 
ATOM     15  C   UNL     1     113.869 126.768 140.000  0.00  0.00    +0.000 A 
ATOM     16  C   UNL     1     113.225 127.783 139.225  0.00  0.00    +0.000 A 
ATOM     17  C   UNL     1     114.073 127.332 140.567  0.00  0.00    +0.000 A 
ATOM     18  C   UNL     1     113.431 128.345 139.792  0.00  0.00    +0.000 A 
ATOM     19  C   UNL     1     113.855 128.120 140.463  0.00  0.00    +0.000 A 
BRANCH  19  20
ATOM     20  O   UNL     1     114.059 128.684 141.029  0.00  0.00    +0.000 OA
ATOM     21  C   UNL     1     113.854 129.475 140.918  0.00  0.00    +0.000 C 
ENDBRANCH  19  20
ENDBRANCH   5  14
BRANCH   9  22
ATOM     22  S   UNL     1     111.840 124.410 137.035  0.00  0.00    +0.000 S 
ATOM     23  O   UNL     1     111.249 124.783 136.596  0.00  0.00    +0.000 OA
ATOM     24  O   UNL     1     111.665 123.730 137.468  0.00  0.00    +0.000 OA
ENDBRANCH   9  22
TORSDOF 3
ENDMDL
MODEL 7
REMARK VINA RESULT:      -7.8     12.925     13.888
REMARK  Name = 131834220
REMARK  3 active torsions:
REMARK  status: ('A' for Active; 'I' for Inactive)
REMARK    1  A    between atoms: S_1  and  C_15
REMARK    2  A    between atoms: O_5  and  C_23
REMARK    3  A    between atoms: C_10  and  C_14
REMARK                            x       y       z     vdW  Elec       q    Type
REMARK                         _______ _______ _______ _____ _____    ______ ____
ROOT
ATOM      1  O   UNL     1     113.195 126.727 136.706  0.00  0.00    +0.000 OA
ATOM      2  O   UNL     1     111.062 126.792 136.248  0.00  0.00    +0.000 OA
ATOM      3  O   UNL     1     114.961 124.494 137.319  0.00  0.00    +0.000 OA
ATOM      4  C   UNL     1     111.809 126.500 136.437  0.00  0.00    +0.000 C 
ATOM      5  C   UNL     1     112.446 127.019 136.516  0.00  0.00    +0.000 C 
ATOM      6  C   UNL     1     111.921 125.690 136.548  0.00  0.00    +0.000 C 
ATOM      7  C   UNL     1     112.668 125.399 136.737  0.00  0.00    +0.000 A 
ATOM      8  C   UNL     1     113.305 125.917 136.816  0.00  0.00    +0.000 A 
ATOM      9  C   UNL     1     112.771 124.553 136.850  0.00  0.00    +0.000 A 
ATOM     10  C   UNL     1     114.090 125.625 137.014  0.00  0.00    +0.000 A 
ATOM     11  C   UNL     1     113.548 124.243 137.048  0.00  0.00    +0.000 A 
ATOM     12  C   UNL     1     114.211 124.783 137.130  0.00  0.00    +0.000 A 
ENDROOT
BRANCH   5  14
ATOM     13  O   UNL     1     112.525 129.320 134.824  0.00  0.00    +0.000 OA
ATOM     14  C   UNL     1     112.336 127.828 136.406  0.00  0.00    +0.000 A 
ATOM     15  C   UNL     1     112.486 128.169 135.670  0.00  0.00    +0.000 A 
ATOM     16  C   UNL     1     112.075 128.298 137.033  0.00  0.00    +0.000 A 
ATOM     17  C   UNL     1     112.375 128.980 135.560  0.00  0.00    +0.000 A 
ATOM     18  C   UNL     1     111.964 129.108 136.922  0.00  0.00    +0.000 A 
ATOM     19  C   UNL     1     112.114 129.449 136.186  0.00  0.00    +0.000 A 
BRANCH  19  20
ATOM     20  O   UNL     1     112.004 130.259 136.077  0.00  0.00    +0.000 OA
ATOM     21  C   UNL     1     111.706 130.722 136.691  0.00  0.00    +0.000 C 
ENDBRANCH  19  20
ENDBRANCH   5  14
BRANCH   9  22
ATOM     22  S   UNL     1     112.128 124.042 136.769  0.00  0.00    +0.000 S 
ATOM     23  O   UNL     1     111.675 123.844 137.429  0.00  0.00    +0.000 OA
ATOM     24  O   UNL     1     111.940 123.730 136.029  0.00  0.00    +0.000 OA
ENDBRANCH   9  22
TORSDOF 3
ENDMDL
MODEL 8
REMARK VINA RESULT:      -7.7     13.191     14.512
REMARK  Name = 131834220
REMARK  3 active torsions:
REMARK  status: ('A' for Active; 'I' for Inactive)
REMARK    1  A    between atoms: S_1  and  C_15
REMARK    2  A    between atoms: O_5  and  C_23
REMARK    3  A    between atoms: C_10  and  C_14
REMARK                            x       y       z     vdW  Elec       q    Type
REMARK                         _______ _______ _______ _____ _____    ______ ____
ROOT
ATOM      1  O   UNL     1     113.907 127.571 136.022  0.00  0.00    +0.000 OA
ATOM      2  O   UNL     1     112.760 127.361 137.867  0.00  0.00    +0.000 OA
ATOM      3  O   UNL     1     114.865 129.933 134.613  0.00  0.00    +0.000 OA
ATOM      4  C   UNL     1     113.163 127.704 137.235  0.00  0.00    +0.000 C 
ATOM      5  C   UNL     1     113.504 127.227 136.655  0.00  0.00    +0.000 C 
ATOM      6  C   UNL     1     113.226 128.525 137.182  0.00  0.00    +0.000 C 
ATOM      7  C   UNL     1     113.629 128.869 136.550  0.00  0.00    +0.000 A 
ATOM      8  C   UNL     1     113.969 128.392 135.970  0.00  0.00    +0.000 A 
ATOM      9  C   UNL     1     113.687 129.726 136.507  0.00  0.00    +0.000 A 
ATOM     10  C   UNL     1     114.392 128.738 135.306  0.00  0.00    +0.000 A 
ATOM     11  C   UNL     1     114.105 130.089 135.851  0.00  0.00    +0.000 A 
ATOM     12  C   UNL     1     114.460 129.592 135.247  0.00  0.00    +0.000 A 
ENDROOT
BRANCH   5  14
ATOM     13  O   UNL     1     114.615 124.702 137.399  0.00  0.00    +0.000 OA
ATOM     14  C   UNL     1     113.441 126.406 136.706  0.00  0.00    +0.000 A 
ATOM     15  C   UNL     1     114.060 125.964 137.027  0.00  0.00    +0.000 A 
ATOM     16  C   UNL     1     112.760 126.027 136.436  0.00  0.00    +0.000 A 
ATOM     17  C   UNL     1     113.996 125.143 137.078  0.00  0.00    +0.000 A 
ATOM     18  C   UNL     1     112.697 125.206 136.488  0.00  0.00    +0.000 A 
ATOM     19  C   UNL     1     113.316 124.764 136.809  0.00  0.00    +0.000 A 
BRANCH  19  20
ATOM     20  O   UNL     1     113.253 123.943 136.860  0.00  0.00    +0.000 OA
ATOM     21  C   UNL     1     112.514 123.582 136.805  0.00  0.00    +0.000 C 
ENDBRANCH  19  20
ENDBRANCH   5  14
BRANCH   9  22
ATOM     22  S   UNL     1     113.343 130.195 137.092  0.00  0.00    +0.000 S 
ATOM     23  O   UNL     1     113.781 130.410 137.757  0.00  0.00    +0.000 OA
ATOM     24  O   UNL     1     112.562 130.448 137.012  0.00  0.00    +0.000 OA
ENDBRANCH   9  22
TORSDOF 3
ENDMDL
MODEL 9
REMARK VINA RESULT:      -6.1     13.252     14.000
REMARK  Name = 131834220
REMARK  3 active torsions:
REMARK  status: ('A' for Active; 'I' for Inactive)
REMARK    1  A    between atoms: S_1  and  C_15
REMARK    2  A    between atoms: O_5  and  C_23
REMARK    3  A    between atoms: C_10  and  C_14
REMARK                            x       y       z     vdW  Elec       q    Type
REMARK                         _______ _______ _______ _____ _____    ______ ____
ROOT
ATOM      1  O   UNL     1     112.145 126.476 136.385  0.00  0.00    +0.000 OA
ATOM      2  O   UNL     1     113.830 127.860 136.493  0.00  0.00    +0.000 OA
ATOM      3  O   UNL     1     112.022 123.577 136.631  0.00  0.00    +0.000 OA
ATOM      4  C   UNL     1     113.396 127.158 136.497  0.00  0.00    +0.000 C 
ATOM      5  C   UNL     1     112.580 127.178 136.381  0.00  0.00    +0.000 C 
ATOM      6  C   UNL     1     113.779 126.437 136.616  0.00  0.00    +0.000 C 
ATOM      7  C   UNL     1     113.345 125.736 136.619  0.00  0.00    +0.000 A 
ATOM      8  C   UNL     1     112.529 125.755 136.504  0.00  0.00    +0.000 A 
ATOM      9  C   UNL     1     113.755 124.990 136.744  0.00  0.00    +0.000 A 
ATOM     10  C   UNL     1     112.066 125.030 136.505  0.00  0.00    +0.000 A 
ATOM     11  C   UNL     1     113.309 124.257 136.749  0.00  0.00    +0.000 A 
ATOM     12  C   UNL     1     112.459 124.277 136.628  0.00  0.00    +0.000 A 
ENDROOT
BRANCH   5  14
ATOM     13  O   UNL     1     111.523 129.158 134.612  0.00  0.00    +0.000 OA
ATOM     14  C   UNL     1     112.197 127.898 136.262  0.00  0.00    +0.000 A 
ATOM     15  C   UNL     1     112.052 128.168 135.496  0.00  0.00    +0.000 A 
ATOM     16  C   UNL     1     111.958 128.350 136.911  0.00  0.00    +0.000 A 
ATOM     17  C   UNL     1     111.668 128.889 135.378  0.00  0.00    +0.000 A 
ATOM     18  C   UNL     1     111.575 129.071 136.792  0.00  0.00    +0.000 A 
ATOM     19  C   UNL     1     111.430 129.340 136.026  0.00  0.00    +0.000 A 
BRANCH  19  20
ATOM     20  O   UNL     1     111.046 130.061 135.908  0.00  0.00    +0.000 OA
ATOM     21  C   UNL     1     110.844 130.532 136.554  0.00  0.00    +0.000 C 
ENDBRANCH  19  20
ENDBRANCH   5  14
BRANCH   9  22
ATOM     22  S   UNL     1     114.572 124.981 136.859  0.00  0.00    +0.000 S 
ATOM     23  O   UNL     1     114.880 124.980 137.624  0.00  0.00    +0.000 OA
ATOM     24  O   UNL     1     115.080 124.973 136.209  0.00  0.00    +0.000 OA
ENDBRANCH   9  22
TORSDOF 3
ENDMDL
