MODEL 1
REMARK VINA RESULT:      -9.5      0.000      0.000
REMARK  Name = 131831677
REMARK  4 active torsions:
REMARK  status: ('A' for Active; 'I' for Inactive)
REMARK    1  A    between atoms: O_2  and  C_17
REMARK    2  A    between atoms: O_2  and  C_19
REMARK    3  A    between atoms: C_16  and  C_18
REMARK    4  A    between atoms: C_22  and  C_23
REMARK                            x       y       z     vdW  Elec       q    Type
REMARK                         _______ _______ _______ _____ _____    ______ ____
ROOT
ATOM      1  O   UNL     1     111.167 124.386 135.750  0.00  0.00    +0.000 OA
ATOM      2  C   UNL     1     110.738 125.528 136.496  0.00  0.00    +0.000 A 
ATOM      3  C   UNL     1     110.380 126.270 136.521  0.00  0.00    +0.000 A 
ATOM      4  C   UNL     1     110.809 125.129 135.776  0.00  0.00    +0.000 A 
ATOM      5  C   UNL     1     110.094 126.615 135.829  0.00  0.00    +0.000 A 
ATOM      6  C   UNL     1     110.522 125.474 135.083  0.00  0.00    +0.000 A 
ATOM      7  C   UNL     1     110.165 126.217 135.111  0.00  0.00    +0.000 A 
ENDROOT
BRANCH   5  12
ATOM      8  O   UNL     1     110.202 128.040 135.861  0.00  0.00    +0.000 OA
ATOM      9  O   UNL     1     108.449 126.739 135.874  0.00  0.00    +0.000 OA
ATOM     10  O   UNL     1     107.816 129.666 135.961  0.00  0.00    +0.000 OA
ATOM     11  O   UNL     1     110.443 130.942 135.925  0.00  0.00    +0.000 OA
ATOM     12  C   UNL     1     109.736 127.358 135.856  0.00  0.00    +0.000 A 
ATOM     13  C   UNL     1     108.914 127.421 135.879  0.00  0.00    +0.000 A 
ATOM     14  C   UNL     1     109.023 128.846 135.910  0.00  0.00    +0.000 A 
ATOM     15  C   UNL     1     109.845 128.783 135.888  0.00  0.00    +0.000 A 
ATOM     16  C   UNL     1     108.557 128.164 135.906  0.00  0.00    +0.000 A 
ATOM     17  C   UNL     1     108.640 129.614 135.939  0.00  0.00    +0.000 A 
ATOM     18  C   UNL     1     110.341 129.485 135.892  0.00  0.00    +0.000 A 
ATOM     19  C   UNL     1     109.975 130.262 135.920  0.00  0.00    +0.000 A 
ATOM     20  C   UNL     1     109.118 130.327 135.944  0.00  0.00    +0.000 A 
ENDBRANCH   5  12
BRANCH   2  21
ATOM     21  O   UNL     1     111.025 125.183 137.187  0.00  0.00    +0.000 OA
BRANCH  21  30
ATOM     22  O   UNL     1     112.272 125.876 137.258  0.00  0.00    +0.000 OA
ATOM     23  O   UNL     1     112.003 126.110 139.708  0.00  0.00    +0.000 OA
ATOM     24  O   UNL     1     113.340 126.725 138.962  0.00  0.00    +0.000 OA
ATOM     25  O   UNL     1     110.845 125.340 138.820  0.00  0.00    +0.000 OA
ATOM     26  C   UNL     1     112.092 126.032 138.891  0.00  0.00    +0.000 C 
ATOM     27  C   UNL     1     112.761 126.339 138.519  0.00  0.00    +0.000 C 
ATOM     28  C   UNL     1     111.513 125.647 138.448  0.00  0.00    +0.000 C 
ATOM     29  C   UNL     1     112.851 126.261 137.703  0.00  0.00    +0.000 C 
ATOM     30  C   UNL     1     111.603 125.568 137.632  0.00  0.00    +0.000 C 
BRANCH  29  33
ATOM     31  O   UNL     1     114.177 126.086 137.199  0.00  0.00    +0.000 OA
ATOM     32  O   UNL     1     113.533 127.356 137.089  0.00  0.00    +0.000 OA
ATOM     33  C   UNL     1     113.520 126.568 137.330  0.00  0.00    +0.000 C 
ENDBRANCH  29  33
ENDBRANCH  21  30
ENDBRANCH   2  21
TORSDOF 4
ENDMDL
MODEL 2
REMARK VINA RESULT:      -9.3      1.831      4.212
REMARK  Name = 131831677
REMARK  4 active torsions:
REMARK  status: ('A' for Active; 'I' for Inactive)
REMARK    1  A    between atoms: O_2  and  C_17
REMARK    2  A    between atoms: O_2  and  C_19
REMARK    3  A    between atoms: C_16  and  C_18
REMARK    4  A    between atoms: C_22  and  C_23
REMARK                            x       y       z     vdW  Elec       q    Type
REMARK                         _______ _______ _______ _____ _____    ______ ____
ROOT
ATOM      1  O   UNL     1     109.784 128.888 134.933  0.00  0.00    +0.000 OA
ATOM      2  C   UNL     1     110.219 128.014 135.977  0.00  0.00    +0.000 A 
ATOM      3  C   UNL     1     110.604 127.325 136.217  0.00  0.00    +0.000 A 
ATOM      4  C   UNL     1     110.169 128.199 135.174  0.00  0.00    +0.000 A 
ATOM      5  C   UNL     1     110.940 126.822 135.656  0.00  0.00    +0.000 A 
ATOM      6  C   UNL     1     110.505 127.696 134.612  0.00  0.00    +0.000 A 
ATOM      7  C   UNL     1     110.890 127.008 134.854  0.00  0.00    +0.000 A 
ENDROOT
BRANCH   5  12
ATOM      8  O   UNL     1     112.104 126.170 136.168  0.00  0.00    +0.000 OA
ATOM      9  O   UNL     1     110.154 125.372 135.598  0.00  0.00    +0.000 OA
ATOM     10  O   UNL     1     112.087 123.314 136.598  0.00  0.00    +0.000 OA
ATOM     11  O   UNL     1     114.487 124.860 137.213  0.00  0.00    +0.000 OA
ATOM     12  C   UNL     1     111.325 126.133 135.897  0.00  0.00    +0.000 A 
ATOM     13  C   UNL     1     110.933 125.409 135.869  0.00  0.00    +0.000 A 
ATOM     14  C   UNL     1     112.097 124.757 136.381  0.00  0.00    +0.000 A 
ATOM     15  C   UNL     1     112.490 125.483 136.410  0.00  0.00    +0.000 A 
ATOM     16  C   UNL     1     111.318 124.720 136.110  0.00  0.00    +0.000 A 
ATOM     17  C   UNL     1     112.488 124.034 136.630  0.00  0.00    +0.000 A 
ATOM     18  C   UNL     1     113.300 125.534 136.689  0.00  0.00    +0.000 A 
ATOM     19  C   UNL     1     113.708 124.821 136.943  0.00  0.00    +0.000 A 
ATOM     20  C   UNL     1     113.299 124.066 136.913  0.00  0.00    +0.000 A 
ENDBRANCH   5  12
BRANCH   2  21
ATOM     21  O   UNL     1     109.884 128.516 136.537  0.00  0.00    +0.000 OA
BRANCH  21  30
ATOM     22  O   UNL     1     111.075 129.170 136.981  0.00  0.00    +0.000 OA
ATOM     23  O   UNL     1     110.283 129.024 139.321  0.00  0.00    +0.000 OA
ATOM     24  O   UNL     1     111.737 129.727 138.985  0.00  0.00    +0.000 OA
ATOM     25  O   UNL     1     109.356 128.419 138.098  0.00  0.00    +0.000 OA
ATOM     26  C   UNL     1     110.547 129.073 138.541  0.00  0.00    +0.000 C 
ATOM     27  C   UNL     1     111.273 129.424 138.373  0.00  0.00    +0.000 C 
ATOM     28  C   UNL     1     110.083 128.770 137.930  0.00  0.00    +0.000 C 
ATOM     29  C   UNL     1     111.537 129.473 137.593  0.00  0.00    +0.000 C 
ATOM     30  C   UNL     1     110.347 128.819 137.150  0.00  0.00    +0.000 C 
BRANCH  29  33
ATOM     31  O   UNL     1     112.296 130.616 137.194  0.00  0.00    +0.000 OA
ATOM     32  O   UNL     1     112.959 129.385 137.487  0.00  0.00    +0.000 OA
ATOM     33  C   UNL     1     112.265 129.825 137.425  0.00  0.00    +0.000 C 
ENDBRANCH  29  33
ENDBRANCH  21  30
ENDBRANCH   2  21
TORSDOF 4
ENDMDL
MODEL 3
REMARK VINA RESULT:      -9.3      8.618     11.231
REMARK  Name = 131831677
REMARK  4 active torsions:
REMARK  status: ('A' for Active; 'I' for Inactive)
REMARK    1  A    between atoms: O_2  and  C_17
REMARK    2  A    between atoms: O_2  and  C_19
REMARK    3  A    between atoms: C_16  and  C_18
REMARK    4  A    between atoms: C_22  and  C_23
REMARK                            x       y       z     vdW  Elec       q    Type
REMARK                         _______ _______ _______ _____ _____    ______ ____
ROOT
ATOM      1  O   UNL     1     100.745 133.409 141.935  0.00  0.00    +0.000 OA
ATOM      2  C   UNL     1     101.963 132.779 141.533  0.00  0.00    +0.000 A 
ATOM      3  C   UNL     1     102.428 132.101 141.467  0.00  0.00    +0.000 A 
ATOM      4  C   UNL     1     101.210 132.731 141.869  0.00  0.00    +0.000 A 
ATOM      5  C   UNL     1     102.142 131.376 141.736  0.00  0.00    +0.000 A 
ATOM      6  C   UNL     1     100.924 132.006 142.139  0.00  0.00    +0.000 A 
ATOM      7  C   UNL     1     101.390 131.328 142.072  0.00  0.00    +0.000 A 
ENDROOT
BRANCH   5  12
ATOM      8  O   UNL     1     103.101 130.474 142.293  0.00  0.00    +0.000 OA
ATOM      9  O   UNL     1     102.089 130.469 140.359  0.00  0.00    +0.000 OA
ATOM     10  O   UNL     1     103.989 128.189 140.764  0.00  0.00    +0.000 OA
ATOM     11  O   UNL     1     105.057 128.648 143.444  0.00  0.00    +0.000 OA
ATOM     12  C   UNL     1     102.608 130.698 141.669  0.00  0.00    +0.000 A 
ATOM     13  C   UNL     1     102.582 130.245 140.981  0.00  0.00    +0.000 A 
ATOM     14  C   UNL     1     103.542 129.343 141.538  0.00  0.00    +0.000 A 
ATOM     15  C   UNL     1     103.567 129.797 142.227  0.00  0.00    +0.000 A 
ATOM     16  C   UNL     1     103.048 129.567 140.915  0.00  0.00    +0.000 A 
ATOM     17  C   UNL     1     104.022 128.636 141.457  0.00  0.00    +0.000 A 
ATOM     18  C   UNL     1     104.076 129.574 142.882  0.00  0.00    +0.000 A 
ATOM     19  C   UNL     1     104.565 128.870 142.819  0.00  0.00    +0.000 A 
ATOM     20  C   UNL     1     104.537 128.398 142.102  0.00  0.00    +0.000 A 
ENDBRANCH   5  12
BRANCH   2  21
ATOM     21  O   UNL     1     102.249 133.503 141.264  0.00  0.00    +0.000 OA
BRANCH  21  30
ATOM     22  O   UNL     1     103.127 133.803 142.351  0.00  0.00    +0.000 OA
ATOM     23  O   UNL     1     104.827 134.626 140.751  0.00  0.00    +0.000 OA
ATOM     24  O   UNL     1     105.138 134.651 142.371  0.00  0.00    +0.000 OA
ATOM     25  O   UNL     1     103.382 134.052 140.198  0.00  0.00    +0.000 OA
ATOM     26  C   UNL     1     104.260 134.351 141.285  0.00  0.00    +0.000 C 
ATOM     27  C   UNL     1     104.416 134.364 142.094  0.00  0.00    +0.000 C 
ATOM     28  C   UNL     1     103.538 134.065 141.007  0.00  0.00    +0.000 C 
ATOM     29  C   UNL     1     103.849 134.090 142.627  0.00  0.00    +0.000 C 
ATOM     30  C   UNL     1     102.972 133.790 141.540  0.00  0.00    +0.000 C 
BRANCH  29  33
ATOM     31  O   UNL     1     104.429 133.487 143.786  0.00  0.00    +0.000 OA
ATOM     32  O   UNL     1     103.737 134.731 143.899  0.00  0.00    +0.000 OA
ATOM     33  C   UNL     1     104.005 134.103 143.438  0.00  0.00    +0.000 C 
ENDBRANCH  29  33
ENDBRANCH  21  30
ENDBRANCH   2  21
TORSDOF 4
ENDMDL
MODEL 4
REMARK VINA RESULT:      -9.3      1.701      3.164
REMARK  Name = 131831677
REMARK  4 active torsions:
REMARK  status: ('A' for Active; 'I' for Inactive)
REMARK    1  A    between atoms: O_2  and  C_17
REMARK    2  A    between atoms: O_2  and  C_19
REMARK    3  A    between atoms: C_16  and  C_18
REMARK    4  A    between atoms: C_22  and  C_23
REMARK                            x       y       z     vdW  Elec       q    Type
REMARK                         _______ _______ _______ _____ _____    ______ ____
ROOT
ATOM      1  O   UNL     1     114.743 125.644 138.455  0.00  0.00    +0.000 OA
ATOM      2  C   UNL     1     113.356 125.933 138.269  0.00  0.00    +0.000 A 
ATOM      3  C   UNL     1     112.702 126.006 137.771  0.00  0.00    +0.000 A 
ATOM      4  C   UNL     1     114.089 125.717 137.957  0.00  0.00    +0.000 A 
ATOM      5  C   UNL     1     112.781 125.865 136.962  0.00  0.00    +0.000 A 
ATOM      6  C   UNL     1     114.168 125.576 137.148  0.00  0.00    +0.000 A 
ATOM      7  C   UNL     1     113.514 125.650 136.651  0.00  0.00    +0.000 A 
ENDROOT
BRANCH   5  12
ATOM      8  O   UNL     1     111.902 126.684 136.187  0.00  0.00    +0.000 OA
ATOM      9  O   UNL     1     111.922 124.527 136.523  0.00  0.00    +0.000 OA
ATOM     10  O   UNL     1     109.711 125.480 134.739  0.00  0.00    +0.000 OA
ATOM     11  O   UNL     1     110.122 128.368 134.614  0.00  0.00    +0.000 OA
ATOM     12  C   UNL     1     112.127 125.939 136.465  0.00  0.00    +0.000 A 
ATOM     13  C   UNL     1     111.697 125.271 136.245  0.00  0.00    +0.000 A 
ATOM     14  C   UNL     1     110.818 126.090 135.470  0.00  0.00    +0.000 A 
ATOM     15  C   UNL     1     111.249 126.758 135.690  0.00  0.00    +0.000 A 
ATOM     16  C   UNL     1     111.043 125.345 135.748  0.00  0.00    +0.000 A 
ATOM     17  C   UNL     1     110.135 126.155 134.954  0.00  0.00    +0.000 A 
ATOM     18  C   UNL     1     111.025 127.538 135.408  0.00  0.00    +0.000 A 
ATOM     19  C   UNL     1     110.344 127.623 134.890  0.00  0.00    +0.000 A 
ATOM     20  C   UNL     1     109.897 126.926 134.661  0.00  0.00    +0.000 A 
ENDBRANCH   5  12
BRANCH   2  21
ATOM     21  O   UNL     1     113.277 126.074 139.077  0.00  0.00    +0.000 OA
BRANCH  21  30
ATOM     22  O   UNL     1     113.214 127.500 139.027  0.00  0.00    +0.000 OA
ATOM     23  O   UNL     1     111.456 127.485 140.768  0.00  0.00    +0.000 OA
ATOM     24  O   UNL     1     111.980 128.917 140.137  0.00  0.00    +0.000 OA
ATOM     25  O   UNL     1     112.104 126.063 140.238  0.00  0.00    +0.000 OA
ATOM     26  C   UNL     1     112.042 127.490 140.188  0.00  0.00    +0.000 C 
ATOM     27  C   UNL     1     112.304 128.206 139.873  0.00  0.00    +0.000 C 
ATOM     28  C   UNL     1     112.366 126.779 139.923  0.00  0.00    +0.000 C 
ATOM     29  C   UNL     1     112.890 128.211 139.292  0.00  0.00    +0.000 C 
ATOM     30  C   UNL     1     112.952 126.784 139.342  0.00  0.00    +0.000 C 
BRANCH  29  33
ATOM     31  O   UNL     1     112.724 129.293 138.374  0.00  0.00    +0.000 OA
ATOM     32  O   UNL     1     113.842 129.276 139.263  0.00  0.00    +0.000 OA
ATOM     33  C   UNL     1     113.152 128.927 138.976  0.00  0.00    +0.000 C 
ENDBRANCH  29  33
ENDBRANCH  21  30
ENDBRANCH   2  21
TORSDOF 4
ENDMDL
MODEL 5
REMARK VINA RESULT:      -9.3     10.780     12.564
REMARK  Name = 131831677
REMARK  4 active torsions:
REMARK  status: ('A' for Active; 'I' for Inactive)
REMARK    1  A    between atoms: O_2  and  C_17
REMARK    2  A    between atoms: O_2  and  C_19
REMARK    3  A    between atoms: C_16  and  C_18
REMARK    4  A    between atoms: C_22  and  C_23
REMARK                            x       y       z     vdW  Elec       q    Type
REMARK                         _______ _______ _______ _____ _____    ______ ____
ROOT
ATOM      1  O   UNL     1     108.215 125.004 147.271  0.00  0.00    +0.000 OA
ATOM      2  C   UNL     1     106.798 125.044 147.093  0.00  0.00    +0.000 A 
ATOM      3  C   UNL     1     106.042 125.160 147.403  0.00  0.00    +0.000 A 
ATOM      4  C   UNL     1     107.459 125.120 147.581  0.00  0.00    +0.000 A 
ATOM      5  C   UNL     1     105.947 125.352 148.200  0.00  0.00    +0.000 A 
ATOM      6  C   UNL     1     107.365 125.311 148.378  0.00  0.00    +0.000 A 
ATOM      7  C   UNL     1     106.608 125.427 148.687  0.00  0.00    +0.000 A 
ENDROOT
BRANCH   5  12
ATOM      8  O   UNL     1     104.700 124.819 148.653  0.00  0.00    +0.000 OA
ATOM      9  O   UNL     1     105.415 126.878 148.532  0.00  0.00    +0.000 OA
ATOM     10  O   UNL     1     102.635 126.596 149.611  0.00  0.00    +0.000 OA
ATOM     11  O   UNL     1     102.166 123.714 149.570  0.00  0.00    +0.000 OA
ATOM     12  C   UNL     1     105.191 125.467 148.509  0.00  0.00    +0.000 A 
ATOM     13  C   UNL     1     104.925 126.230 148.675  0.00  0.00    +0.000 A 
ATOM     14  C   UNL     1     103.678 125.697 149.127  0.00  0.00    +0.000 A 
ATOM     15  C   UNL     1     103.945 124.934 148.961  0.00  0.00    +0.000 A 
ATOM     16  C   UNL     1     104.168 126.346 148.984  0.00  0.00    +0.000 A 
ATOM     17  C   UNL     1     102.893 125.829 149.449  0.00  0.00    +0.000 A 
ATOM     18  C   UNL     1     103.444 124.251 149.106  0.00  0.00    +0.000 A 
ATOM     19  C   UNL     1     102.654 124.364 149.428  0.00  0.00    +0.000 A 
ATOM     20  C   UNL     1     102.377 125.159 149.600  0.00  0.00    +0.000 A 
ENDBRANCH   5  12
BRANCH   2  21
ATOM     21  O   UNL     1     106.892 124.853 146.298  0.00  0.00    +0.000 OA
BRANCH  21  30
ATOM     22  O   UNL     1     106.701 126.138 145.703  0.00  0.00    +0.000 OA
ATOM     23  O   UNL     1     105.220 125.128 143.996  0.00  0.00    +0.000 OA
ATOM     24  O   UNL     1     105.522 126.750 143.970  0.00  0.00    +0.000 OA
ATOM     25  O   UNL     1     105.905 124.180 145.160  0.00  0.00    +0.000 OA
ATOM     26  C   UNL     1     105.714 125.465 144.565  0.00  0.00    +0.000 C 
ATOM     27  C   UNL     1     105.864 126.275 144.552  0.00  0.00    +0.000 C 
ATOM     28  C   UNL     1     106.056 124.990 145.147  0.00  0.00    +0.000 C 
ATOM     29  C   UNL     1     106.358 126.612 145.121  0.00  0.00    +0.000 C 
ATOM     30  C   UNL     1     106.549 125.327 145.716  0.00  0.00    +0.000 C 
BRANCH  29  33
ATOM     31  O   UNL     1     105.971 127.948 145.448  0.00  0.00    +0.000 OA
ATOM     32  O   UNL     1     107.197 127.709 144.755  0.00  0.00    +0.000 OA
ATOM     33  C   UNL     1     106.509 127.424 145.108  0.00  0.00    +0.000 C 
ENDBRANCH  29  33
ENDBRANCH  21  30
ENDBRANCH   2  21
TORSDOF 4
ENDMDL
MODEL 6
REMARK VINA RESULT:      -9.3     10.045     11.726
REMARK  Name = 131831677
REMARK  4 active torsions:
REMARK  status: ('A' for Active; 'I' for Inactive)
REMARK    1  A    between atoms: O_2  and  C_17
REMARK    2  A    between atoms: O_2  and  C_19
REMARK    3  A    between atoms: C_16  and  C_18
REMARK    4  A    between atoms: C_22  and  C_23
REMARK                            x       y       z     vdW  Elec       q    Type
REMARK                         _______ _______ _______ _____ _____    ______ ____
ROOT
ATOM      1  O   UNL     1     107.693 125.464 146.700  0.00  0.00    +0.000 OA
ATOM      2  C   UNL     1     106.347 125.788 146.347  0.00  0.00    +0.000 A 
ATOM      3  C   UNL     1     105.536 125.672 146.442  0.00  0.00    +0.000 A 
ATOM      4  C   UNL     1     106.882 125.347 146.795  0.00  0.00    +0.000 A 
ATOM      5  C   UNL     1     105.260 125.115 146.984  0.00  0.00    +0.000 A 
ATOM      6  C   UNL     1     106.606 124.791 147.337  0.00  0.00    +0.000 A 
ATOM      7  C   UNL     1     105.795 124.675 147.432  0.00  0.00    +0.000 A 
ENDROOT
BRANCH   5  12
ATOM      8  O   UNL     1     104.056 124.437 146.618  0.00  0.00    +0.000 OA
ATOM      9  O   UNL     1     104.422 126.005 148.092  0.00  0.00    +0.000 OA
ATOM     10  O   UNL     1     101.569 125.104 147.929  0.00  0.00    +0.000 OA
ATOM     11  O   UNL     1     101.613 123.046 145.857  0.00  0.00    +0.000 OA
ATOM     12  C   UNL     1     104.448 124.999 147.079  0.00  0.00    +0.000 A 
ATOM     13  C   UNL     1     104.029 125.444 147.632  0.00  0.00    +0.000 A 
ATOM     14  C   UNL     1     102.825 124.766 147.266  0.00  0.00    +0.000 A 
ATOM     15  C   UNL     1     103.245 124.321 146.712  0.00  0.00    +0.000 A 
ATOM     16  C   UNL     1     103.218 125.328 147.726  0.00  0.00    +0.000 A 
ATOM     17  C   UNL     1     101.980 124.654 147.372  0.00  0.00    +0.000 A 
ATOM     18  C   UNL     1     102.848 123.734 146.226  0.00  0.00    +0.000 A 
ATOM     19  C   UNL     1     102.002 123.608 146.319  0.00  0.00    +0.000 A 
ATOM     20  C   UNL     1     101.566 124.072 146.896  0.00  0.00    +0.000 A 
ENDBRANCH   5  12
BRANCH   2  21
ATOM     21  O   UNL     1     106.623 126.345 145.805  0.00  0.00    +0.000 OA
BRANCH  21  30
ATOM     22  O   UNL     1     106.316 125.650 144.595  0.00  0.00    +0.000 OA
ATOM     23  O   UNL     1     105.492 127.758 143.594  0.00  0.00    +0.000 OA
ATOM     24  O   UNL     1     105.459 126.361 142.717  0.00  0.00    +0.000 OA
ATOM     25  O   UNL     1     106.074 127.750 145.138  0.00  0.00    +0.000 OA
ATOM     26  C   UNL     1     105.767 127.055 143.928  0.00  0.00    +0.000 C 
ATOM     27  C   UNL     1     105.750 126.357 143.489  0.00  0.00    +0.000 C 
ATOM     28  C   UNL     1     106.058 127.052 144.700  0.00  0.00    +0.000 C 
ATOM     29  C   UNL     1     106.025 125.655 143.823  0.00  0.00    +0.000 C 
ATOM     30  C   UNL     1     106.332 126.349 145.033  0.00  0.00    +0.000 C 
BRANCH  29  33
ATOM     31  O   UNL     1     105.327 124.491 143.375  0.00  0.00    +0.000 OA
ATOM     32  O   UNL     1     106.673 124.722 142.956  0.00  0.00    +0.000 OA
ATOM     33  C   UNL     1     106.008 124.955 143.384  0.00  0.00    +0.000 C 
ENDBRANCH  29  33
ENDBRANCH  21  30
ENDBRANCH   2  21
TORSDOF 4
ENDMDL
MODEL 7
REMARK VINA RESULT:      -9.2      2.646      5.311
REMARK  Name = 131831677
REMARK  4 active torsions:
REMARK  status: ('A' for Active; 'I' for Inactive)
REMARK    1  A    between atoms: O_2  and  C_17
REMARK    2  A    between atoms: O_2  and  C_19
REMARK    3  A    between atoms: C_16  and  C_18
REMARK    4  A    between atoms: C_22  and  C_23
REMARK                            x       y       z     vdW  Elec       q    Type
REMARK                         _______ _______ _______ _____ _____    ______ ____
ROOT
ATOM      1  O   UNL     1     114.566 130.790 135.614  0.00  0.00    +0.000 OA
ATOM      2  C   UNL     1     114.070 129.803 136.520  0.00  0.00    +0.000 A 
ATOM      3  C   UNL     1     113.797 129.037 136.662  0.00  0.00    +0.000 A 
ATOM      4  C   UNL     1     114.293 130.025 135.757  0.00  0.00    +0.000 A 
ATOM      5  C   UNL     1     113.747 128.495 136.043  0.00  0.00    +0.000 A 
ATOM      6  C   UNL     1     114.243 129.483 135.137  0.00  0.00    +0.000 A 
ATOM      7  C   UNL     1     113.970 128.717 135.281  0.00  0.00    +0.000 A 
ENDROOT
BRANCH   5  12
ATOM      8  O   UNL     1     113.985 127.160 136.497  0.00  0.00    +0.000 OA
ATOM      9  O   UNL     1     112.180 128.101 135.709  0.00  0.00    +0.000 OA
ATOM     10  O   UNL     1     111.848 125.217 136.450  0.00  0.00    +0.000 OA
ATOM     11  O   UNL     1     114.490 124.447 137.427  0.00  0.00    +0.000 OA
ATOM     12  C   UNL     1     113.474 127.729 136.186  0.00  0.00    +0.000 A 
ATOM     13  C   UNL     1     112.691 127.533 136.020  0.00  0.00    +0.000 A 
ATOM     14  C   UNL     1     112.929 126.198 136.474  0.00  0.00    +0.000 A 
ATOM     15  C   UNL     1     113.713 126.396 136.641  0.00  0.00    +0.000 A 
ATOM     16  C   UNL     1     112.417 126.767 136.164  0.00  0.00    +0.000 A 
ATOM     17  C   UNL     1     112.634 125.405 136.620  0.00  0.00    +0.000 A 
ATOM     18  C   UNL     1     114.255 125.813 136.964  0.00  0.00    +0.000 A 
ATOM     19  C   UNL     1     113.977 125.013 137.116  0.00  0.00    +0.000 A 
ATOM     20  C   UNL     1     113.161 124.809 136.943  0.00  0.00    +0.000 A 
ENDBRANCH   5  12
BRANCH   2  21
ATOM     21  O   UNL     1     114.120 130.345 137.138  0.00  0.00    +0.000 OA
BRANCH  21  30
ATOM     22  O   UNL     1     112.777 130.834 137.173  0.00  0.00    +0.000 OA
ATOM     23  O   UNL     1     112.747 130.575 139.634  0.00  0.00    +0.000 OA
ATOM     24  O   UNL     1     111.415 131.151 138.849  0.00  0.00    +0.000 OA
ATOM     25  O   UNL     1     114.099 130.172 138.779  0.00  0.00    +0.000 OA
ATOM     26  C   UNL     1     112.757 130.661 138.814  0.00  0.00    +0.000 C 
ATOM     27  C   UNL     1     112.092 130.949 138.422  0.00  0.00    +0.000 C 
ATOM     28  C   UNL     1     113.434 130.460 138.387  0.00  0.00    +0.000 C 
ATOM     29  C   UNL     1     112.102 131.035 137.601  0.00  0.00    +0.000 C 
ATOM     30  C   UNL     1     113.444 130.546 137.567  0.00  0.00    +0.000 C 
BRANCH  29  33
ATOM     31  O   UNL     1     111.383 132.124 137.018  0.00  0.00    +0.000 OA
ATOM     32  O   UNL     1     110.823 130.811 137.005  0.00  0.00    +0.000 OA
ATOM     33  C   UNL     1     111.435 131.323 137.208  0.00  0.00    +0.000 C 
ENDBRANCH  29  33
ENDBRANCH  21  30
ENDBRANCH   2  21
TORSDOF 4
ENDMDL
MODEL 8
REMARK VINA RESULT:      -9.2      2.516      4.631
REMARK  Name = 131831677
REMARK  4 active torsions:
REMARK  status: ('A' for Active; 'I' for Inactive)
REMARK    1  A    between atoms: O_2  and  C_17
REMARK    2  A    between atoms: O_2  and  C_19
REMARK    3  A    between atoms: C_16  and  C_18
REMARK    4  A    between atoms: C_22  and  C_23
REMARK                            x       y       z     vdW  Elec       q    Type
REMARK                         _______ _______ _______ _____ _____    ______ ____
ROOT
ATOM      1  O   UNL     1     114.339 130.407 135.795  0.00  0.00    +0.000 OA
ATOM      2  C   UNL     1     113.148 129.721 136.185  0.00  0.00    +0.000 A 
ATOM      3  C   UNL     1     112.712 129.023 136.240  0.00  0.00    +0.000 A 
ATOM      4  C   UNL     1     113.903 129.709 135.850  0.00  0.00    +0.000 A 
ATOM      5  C   UNL     1     113.029 128.314 135.963  0.00  0.00    +0.000 A 
ATOM      6  C   UNL     1     114.221 129.000 135.573  0.00  0.00    +0.000 A 
ATOM      7  C   UNL     1     113.783 128.303 135.629  0.00  0.00    +0.000 A 
ENDROOT
BRANCH   5  12
ATOM      8  O   UNL     1     111.943 127.495 135.522  0.00  0.00    +0.000 OA
ATOM      9  O   UNL     1     113.450 127.162 137.067  0.00  0.00    +0.000 OA
ATOM     10  O   UNL     1     111.486 124.922 136.753  0.00  0.00    +0.000 OA
ATOM     11  O   UNL     1     109.725 125.842 134.612  0.00  0.00    +0.000 OA
ATOM     12  C   UNL     1     112.592 127.616 136.019  0.00  0.00    +0.000 A 
ATOM     13  C   UNL     1     112.802 127.041 136.571  0.00  0.00    +0.000 A 
ATOM     14  C   UNL     1     111.716 126.222 136.130  0.00  0.00    +0.000 A 
ATOM     15  C   UNL     1     111.506 126.799 135.578  0.00  0.00    +0.000 A 
ATOM     16  C   UNL     1     112.364 126.343 136.627  0.00  0.00    +0.000 A 
ATOM     17  C   UNL     1     111.268 125.493 136.198  0.00  0.00    +0.000 A 
ATOM     18  C   UNL     1     110.833 126.684 135.056  0.00  0.00    +0.000 A 
ATOM     19  C   UNL     1     110.373 125.960 135.109  0.00  0.00    +0.000 A 
ATOM     20  C   UNL     1     110.592 125.360 135.684  0.00  0.00    +0.000 A 
ENDBRANCH   5  12
BRANCH   2  21
ATOM     21  O   UNL     1     112.831 130.429 136.462  0.00  0.00    +0.000 OA
BRANCH  21  30
ATOM     22  O   UNL     1     113.146 130.302 137.850  0.00  0.00    +0.000 OA
ATOM     23  O   UNL     1     110.882 131.112 138.438  0.00  0.00    +0.000 OA
ATOM     24  O   UNL     1     111.952 130.715 139.630  0.00  0.00    +0.000 OA
ATOM     25  O   UNL     1     111.322 130.969 136.854  0.00  0.00    +0.000 OA
ATOM     26  C   UNL     1     111.637 130.842 138.242  0.00  0.00    +0.000 C 
ATOM     27  C   UNL     1     112.171 130.644 138.837  0.00  0.00    +0.000 C 
ATOM     28  C   UNL     1     111.856 130.771 137.449  0.00  0.00    +0.000 C 
ATOM     29  C   UNL     1     112.925 130.374 138.642  0.00  0.00    +0.000 C 
ATOM     30  C   UNL     1     112.610 130.501 137.253  0.00  0.00    +0.000 C 
BRANCH  29  33
ATOM     31  O   UNL     1     114.005 130.734 139.505  0.00  0.00    +0.000 OA
ATOM     32  O   UNL     1     113.451 129.419 139.566  0.00  0.00    +0.000 OA
ATOM     33  C   UNL     1     113.461 130.175 139.238  0.00  0.00    +0.000 C 
ENDBRANCH  29  33
ENDBRANCH  21  30
ENDBRANCH   2  21
TORSDOF 4
ENDMDL
MODEL 9
REMARK VINA RESULT:      -9.1      2.147      3.752
REMARK  Name = 131831677
REMARK  4 active torsions:
REMARK  status: ('A' for Active; 'I' for Inactive)
REMARK    1  A    between atoms: O_2  and  C_17
REMARK    2  A    between atoms: O_2  and  C_19
REMARK    3  A    between atoms: C_16  and  C_18
REMARK    4  A    between atoms: C_22  and  C_23
REMARK                            x       y       z     vdW  Elec       q    Type
REMARK                         _______ _______ _______ _____ _____    ______ ____
ROOT
ATOM      1  O   UNL     1     112.708 124.786 136.462  0.00  0.00    +0.000 OA
ATOM      2  C   UNL     1     112.216 126.126 136.528  0.00  0.00    +0.000 A 
ATOM      3  C   UNL     1     112.356 126.935 136.616  0.00  0.00    +0.000 A 
ATOM      4  C   UNL     1     112.848 125.595 136.550  0.00  0.00    +0.000 A 
ATOM      5  C   UNL     1     113.125 127.212 136.725  0.00  0.00    +0.000 A 
ATOM      6  C   UNL     1     113.617 125.872 136.659  0.00  0.00    +0.000 A 
ATOM      7  C   UNL     1     113.755 126.680 136.747  0.00  0.00    +0.000 A 
ENDROOT
BRANCH   5  12
ATOM      8  O   UNL     1     113.170 128.377 137.552  0.00  0.00    +0.000 OA
ATOM      9  O   UNL     1     113.587 128.116 135.425  0.00  0.00    +0.000 OA
ATOM     10  O   UNL     1     113.917 130.925 136.413  0.00  0.00    +0.000 OA
ATOM     11  O   UNL     1     113.257 130.740 139.252  0.00  0.00    +0.000 OA
ATOM     12  C   UNL     1     113.264 128.020 136.813  0.00  0.00    +0.000 A 
ATOM     13  C   UNL     1     113.494 128.473 136.163  0.00  0.00    +0.000 A 
ATOM     14  C   UNL     1     113.539 129.638 136.990  0.00  0.00    +0.000 A 
ATOM     15  C   UNL     1     113.308 129.185 137.640  0.00  0.00    +0.000 A 
ATOM     16  C   UNL     1     113.632 129.281 136.251  0.00  0.00    +0.000 A 
ATOM     17  C   UNL     1     113.686 130.480 137.069  0.00  0.00    +0.000 A 
ATOM     18  C   UNL     1     113.208 129.544 138.414  0.00  0.00    +0.000 A 
ATOM     19  C   UNL     1     113.350 130.387 138.513  0.00  0.00    +0.000 A 
ATOM     20  C   UNL     1     113.591 130.857 137.835  0.00  0.00    +0.000 A 
ENDBRANCH   5  12
BRANCH   2  21
ATOM     21  O   UNL     1     111.448 125.850 136.419  0.00  0.00    +0.000 OA
BRANCH  21  30
ATOM     22  O   UNL     1     110.996 125.915 137.773  0.00  0.00    +0.000 OA
ATOM     23  O   UNL     1     108.829 126.832 137.005  0.00  0.00    +0.000 OA
ATOM     24  O   UNL     1     109.099 126.591 138.615  0.00  0.00    +0.000 OA
ATOM     25  O   UNL     1     110.004 126.462 135.907  0.00  0.00    +0.000 OA
ATOM     26  C   UNL     1     109.551 126.527 137.261  0.00  0.00    +0.000 C 
ATOM     27  C   UNL     1     109.686 126.406 138.065  0.00  0.00    +0.000 C 
ATOM     28  C   UNL     1     110.138 126.341 136.711  0.00  0.00    +0.000 C 
ATOM     29  C   UNL     1     110.408 126.100 138.321  0.00  0.00    +0.000 C 
ATOM     30  C   UNL     1     110.860 126.035 136.967  0.00  0.00    +0.000 C 
BRANCH  29  33
ATOM     31  O   UNL     1     110.413 125.236 139.459  0.00  0.00    +0.000 OA
ATOM     32  O   UNL     1     110.808 126.602 139.598  0.00  0.00    +0.000 OA
ATOM     33  C   UNL     1     110.543 125.980 139.127  0.00  0.00    +0.000 C 
ENDBRANCH  29  33
ENDBRANCH  21  30
ENDBRANCH   2  21
TORSDOF 4
ENDMDL
MODEL 10
REMARK VINA RESULT:      -9.1      1.145      4.691
REMARK  Name = 131831677
REMARK  4 active torsions:
REMARK  status: ('A' for Active; 'I' for Inactive)
REMARK    1  A    between atoms: O_2  and  C_17
REMARK    2  A    between atoms: O_2  and  C_19
REMARK    3  A    between atoms: C_16  and  C_18
REMARK    4  A    between atoms: C_22  and  C_23
REMARK                            x       y       z     vdW  Elec       q    Type
REMARK                         _______ _______ _______ _____ _____    ______ ____
ROOT
ATOM      1  O   UNL     1     110.353 125.530 134.613  0.00  0.00    +0.000 OA
ATOM      2  C   UNL     1     111.092 126.412 135.460  0.00  0.00    +0.000 A 
ATOM      3  C   UNL     1     111.516 126.547 136.155  0.00  0.00    +0.000 A 
ATOM      4  C   UNL     1     110.776 125.665 135.308  0.00  0.00    +0.000 A 
ATOM      5  C   UNL     1     111.623 125.936 136.698  0.00  0.00    +0.000 A 
ATOM      6  C   UNL     1     110.883 125.053 135.852  0.00  0.00    +0.000 A 
ATOM      7  C   UNL     1     111.307 125.190 136.547  0.00  0.00    +0.000 A 
ENDROOT
BRANCH   5  12
ATOM      8  O   UNL     1     111.648 126.292 138.083  0.00  0.00    +0.000 OA
ATOM      9  O   UNL     1     113.265 125.770 136.711  0.00  0.00    +0.000 OA
ATOM     10  O   UNL     1     114.164 126.399 139.499  0.00  0.00    +0.000 OA
ATOM     11  O   UNL     1     111.679 127.018 140.903  0.00  0.00    +0.000 OA
ATOM     12  C   UNL     1     112.046 126.072 137.393  0.00  0.00    +0.000 A 
ATOM     13  C   UNL     1     112.867 125.990 137.400  0.00  0.00    +0.000 A 
ATOM     14  C   UNL     1     112.892 126.345 138.784  0.00  0.00    +0.000 A 
ATOM     15  C   UNL     1     112.071 126.428 138.777  0.00  0.00    +0.000 A 
ATOM     16  C   UNL     1     113.290 126.126 138.095  0.00  0.00    +0.000 A 
ATOM     17  C   UNL     1     113.343 126.485 139.501  0.00  0.00    +0.000 A 
ATOM     18  C   UNL     1     111.645 126.656 139.488  0.00  0.00    +0.000 A 
ATOM     19  C   UNL     1     112.080 126.799 140.216  0.00  0.00    +0.000 A 
ATOM     20  C   UNL     1     112.935 126.713 140.222  0.00  0.00    +0.000 A 
ENDBRANCH   5  12
BRANCH   2  21
ATOM     21  O   UNL     1     110.985 127.023 134.917  0.00  0.00    +0.000 OA
BRANCH  21  30
ATOM     22  O   UNL     1     109.910 127.721 135.547  0.00  0.00    +0.000 OA
ATOM     23  O   UNL     1     111.041 129.875 135.090  0.00  0.00    +0.000 OA
ATOM     24  O   UNL     1     109.589 129.856 135.872  0.00  0.00    +0.000 OA
ATOM     25  O   UNL     1     111.740 128.458 134.612  0.00  0.00    +0.000 OA
ATOM     26  C   UNL     1     110.664 129.157 135.242  0.00  0.00    +0.000 C 
ATOM     27  C   UNL     1     109.938 129.148 135.633  0.00  0.00    +0.000 C 
ATOM     28  C   UNL     1     111.014 128.449 135.003  0.00  0.00    +0.000 C 
ATOM     29  C   UNL     1     109.561 128.430 135.785  0.00  0.00    +0.000 C 
ATOM     30  C   UNL     1     110.637 127.731 135.155  0.00  0.00    +0.000 C 
BRANCH  29  33
ATOM     31  O   UNL     1     108.134 128.375 135.743  0.00  0.00    +0.000 OA
ATOM     32  O   UNL     1     108.809 128.455 137.000  0.00  0.00    +0.000 OA
ATOM     33  C   UNL     1     108.834 128.420 136.177  0.00  0.00    +0.000 C 
ENDBRANCH  29  33
ENDBRANCH  21  30
ENDBRANCH   2  21
TORSDOF 4
ENDMDL
