MODEL 1
REMARK VINA RESULT:     -10.0      0.000      0.000
REMARK  Name = 42608127
REMARK  4 active torsions:
REMARK  status: ('A' for Active; 'I' for Inactive)
REMARK    1  A    between atoms: O_2  and  C_16
REMARK    2  A    between atoms: O_2  and  C_19
REMARK    3  A    between atoms: C_15  and  C_17
REMARK    4  A    between atoms: C_18  and  C_25
REMARK                            x       y       z     vdW  Elec       q    Type
REMARK                         _______ _______ _______ _____ _____    ______ ____
ROOT
ATOM      1  O   UNL     1     104.951 124.748 139.190  0.00  0.00    +0.000 OA
ATOM      2  O   UNL     1     104.280 124.575 138.251  0.00  0.00    +0.000 OA
ATOM      3  O   UNL     1     105.363 123.356 141.688  0.00  0.00    +0.000 OA
ATOM      4  O   UNL     1     104.429 122.861 140.706  0.00  0.00    +0.000 OA
ATOM      5  C   UNL     1     104.398 124.178 138.965  0.00  0.00    +0.000 C 
ATOM      6  C   UNL     1     106.300 125.233 140.904  0.00  0.00    +0.000 A 
ATOM      7  C   UNL     1     104.224 123.549 139.470  0.00  0.00    +0.000 C 
ATOM      8  C   UNL     1     105.329 124.689 139.921  0.00  0.00    +0.000 A 
ATOM      9  C   UNL     1     105.155 124.060 140.426  0.00  0.00    +0.000 A 
ATOM     10  C   UNL     1     105.902 125.289 140.144  0.00  0.00    +0.000 A 
ATOM     11  C   UNL     1     104.603 123.490 140.201  0.00  0.00    +0.000 C 
ATOM     12  C   UNL     1     106.119 124.579 141.430  0.00  0.00    +0.000 A 
ATOM     13  C   UNL     1     105.542 123.988 141.189  0.00  0.00    +0.000 A 
ENDROOT
BRANCH   5  15
ATOM     14  O   UNL     1     102.249 122.996 136.756  0.00  0.00    +0.000 OA
ATOM     15  C   UNL     1     103.861 123.883 138.413  0.00  0.00    +0.000 A 
ATOM     16  C   UNL     1     103.052 123.998 138.521  0.00  0.00    +0.000 A 
ATOM     17  C   UNL     1     104.133 123.471 137.752  0.00  0.00    +0.000 A 
ATOM     18  C   UNL     1     102.514 123.703 137.969  0.00  0.00    +0.000 A 
ATOM     19  C   UNL     1     103.596 123.175 137.199  0.00  0.00    +0.000 A 
ATOM     20  C   UNL     1     102.787 123.291 137.308  0.00  0.00    +0.000 A 
ENDBRANCH   5  15
BRANCH   6  21
ATOM     21  O   UNL     1     106.851 125.804 141.127  0.00  0.00    +0.000 OA
BRANCH  21  30
ATOM     22  O   UNL     1     105.947 126.835 141.531  0.00  0.00    +0.000 OA
ATOM     23  O   UNL     1     107.376 127.320 143.492  0.00  0.00    +0.000 OA
ATOM     24  O   UNL     1     105.997 128.188 143.242  0.00  0.00    +0.000 OA
ATOM     25  O   UNL     1     107.804 126.128 142.435  0.00  0.00    +0.000 OA
ATOM     26  C   UNL     1     106.900 127.158 142.839  0.00  0.00    +0.000 C 
ATOM     27  C   UNL     1     106.210 127.592 142.714  0.00  0.00    +0.000 C 
ATOM     28  C   UNL     1     107.114 126.562 142.310  0.00  0.00    +0.000 C 
ATOM     29  C   UNL     1     105.734 127.431 142.060  0.00  0.00    +0.000 C 
ATOM     30  C   UNL     1     106.638 126.400 141.656  0.00  0.00    +0.000 C 
BRANCH  29  32
ATOM     31  O   UNL     1     104.915 128.233 141.207  0.00  0.00    +0.000 OA
ATOM     32  C   UNL     1     105.044 127.864 141.934  0.00  0.00    +0.000 C 
ENDBRANCH  29  32
ENDBRANCH  21  30
ENDBRANCH   6  21
TORSDOF 4
ENDMDL
MODEL 2
REMARK VINA RESULT:      -9.7      4.280      7.137
REMARK  Name = 42608127
REMARK  4 active torsions:
REMARK  status: ('A' for Active; 'I' for Inactive)
REMARK    1  A    between atoms: O_2  and  C_16
REMARK    2  A    between atoms: O_2  and  C_19
REMARK    3  A    between atoms: C_15  and  C_17
REMARK    4  A    between atoms: C_18  and  C_25
REMARK                            x       y       z     vdW  Elec       q    Type
REMARK                         _______ _______ _______ _____ _____    ______ ____
ROOT
ATOM      1  O   UNL     1     106.532 125.609 145.963  0.00  0.00    +0.000 OA
ATOM      2  O   UNL     1     107.026 124.869 146.718  0.00  0.00    +0.000 OA
ATOM      3  O   UNL     1     105.544 128.320 146.113  0.00  0.00    +0.000 OA
ATOM      4  O   UNL     1     106.116 127.671 147.268  0.00  0.00    +0.000 OA
ATOM      5  C   UNL     1     106.743 125.643 146.760  0.00  0.00    +0.000 C 
ATOM      6  C   UNL     1     105.600 126.892 144.389  0.00  0.00    +0.000 A 
ATOM      7  C   UNL     1     106.605 126.331 147.195  0.00  0.00    +0.000 C 
ATOM      8  C   UNL     1     106.182 126.262 145.602  0.00  0.00    +0.000 A 
ATOM      9  C   UNL     1     106.043 126.950 146.036  0.00  0.00    +0.000 A 
ATOM     10  C   UNL     1     105.965 126.214 144.771  0.00  0.00    +0.000 A 
ATOM     11  C   UNL     1     106.255 126.984 146.833  0.00  0.00    +0.000 C 
ATOM     12  C   UNL     1     105.456 127.607 144.841  0.00  0.00    +0.000 A 
ATOM     13  C   UNL     1     105.679 127.636 145.671  0.00  0.00    +0.000 A 
ENDROOT
BRANCH   5  15
ATOM     14  O   UNL     1     108.042 124.214 149.436  0.00  0.00    +0.000 OA
ATOM     15  C   UNL     1     107.068 125.286 147.429  0.00  0.00    +0.000 A 
ATOM     16  C   UNL     1     106.579 124.902 147.971  0.00  0.00    +0.000 A 
ATOM     17  C   UNL     1     107.883 125.312 147.556  0.00  0.00    +0.000 A 
ATOM     18  C   UNL     1     106.903 124.545 148.640  0.00  0.00    +0.000 A 
ATOM     19  C   UNL     1     108.208 124.955 148.226  0.00  0.00    +0.000 A 
ATOM     20  C   UNL     1     107.718 124.571 148.767  0.00  0.00    +0.000 A 
ENDBRANCH   5  15
BRANCH   6  21
ATOM     21  O   UNL     1     105.390 126.855 143.592  0.00  0.00    +0.000 OA
BRANCH  21  30
ATOM     22  O   UNL     1     106.652 127.190 143.013  0.00  0.00    +0.000 OA
ATOM     23  O   UNL     1     105.512 128.649 141.371  0.00  0.00    +0.000 OA
ATOM     24  O   UNL     1     107.154 128.498 141.340  0.00  0.00    +0.000 OA
ATOM     25  O   UNL     1     104.629 127.827 142.497  0.00  0.00    +0.000 OA
ATOM     26  C   UNL     1     105.892 128.163 141.918  0.00  0.00    +0.000 C 
ATOM     27  C   UNL     1     106.713 128.087 141.903  0.00  0.00    +0.000 C 
ATOM     28  C   UNL     1     105.450 127.752 142.481  0.00  0.00    +0.000 C 
ATOM     29  C   UNL     1     107.093 127.601 142.450  0.00  0.00    +0.000 C 
ATOM     30  C   UNL     1     105.830 127.266 143.029  0.00  0.00    +0.000 C 
BRANCH  29  32
ATOM     31  O   UNL     1     108.259 126.775 142.429  0.00  0.00    +0.000 OA
ATOM     32  C   UNL     1     107.914 127.525 142.435  0.00  0.00    +0.000 C 
ENDBRANCH  29  32
ENDBRANCH  21  30
ENDBRANCH   6  21
TORSDOF 4
ENDMDL
MODEL 3
REMARK VINA RESULT:      -9.6      1.751      2.410
REMARK  Name = 42608127
REMARK  4 active torsions:
REMARK  status: ('A' for Active; 'I' for Inactive)
REMARK    1  A    between atoms: O_2  and  C_16
REMARK    2  A    between atoms: O_2  and  C_19
REMARK    3  A    between atoms: C_15  and  C_17
REMARK    4  A    between atoms: C_18  and  C_25
REMARK                            x       y       z     vdW  Elec       q    Type
REMARK                         _______ _______ _______ _____ _____    ______ ____
ROOT
ATOM      1  O   UNL     1     105.215 125.017 139.423  0.00  0.00    +0.000 OA
ATOM      2  O   UNL     1     104.309 124.898 138.698  0.00  0.00    +0.000 OA
ATOM      3  O   UNL     1     106.740 123.221 141.095  0.00  0.00    +0.000 OA
ATOM      4  O   UNL     1     105.642 122.739 140.293  0.00  0.00    +0.000 OA
ATOM      5  C   UNL     1     104.745 124.386 139.175  0.00  0.00    +0.000 C 
ATOM      6  C   UNL     1     106.950 125.426 140.770  0.00  0.00    +0.000 A 
ATOM      7  C   UNL     1     104.887 123.626 139.465  0.00  0.00    +0.000 C 
ATOM      8  C   UNL     1     105.827 124.888 139.960  0.00  0.00    +0.000 A 
ATOM      9  C   UNL     1     105.970 124.129 140.250  0.00  0.00    +0.000 A 
ATOM     10  C   UNL     1     106.311 125.554 140.210  0.00  0.00    +0.000 A 
ATOM     11  C   UNL     1     105.500 123.498 140.003  0.00  0.00    +0.000 C 
ATOM     12  C   UNL     1     107.099 124.637 141.071  0.00  0.00    +0.000 A 
ATOM     13  C   UNL     1     106.605 123.983 140.810  0.00  0.00    +0.000 A 
ENDROOT
BRANCH   5  15
ATOM     14  O   UNL     1     102.244 123.223 137.363  0.00  0.00    +0.000 OA
ATOM     15  C   UNL     1     104.119 124.095 138.723  0.00  0.00    +0.000 A 
ATOM     16  C   UNL     1     103.350 124.118 139.018  0.00  0.00    +0.000 A 
ATOM     17  C   UNL     1     104.264 123.781 137.973  0.00  0.00    +0.000 A 
ATOM     18  C   UNL     1     102.725 123.828 138.565  0.00  0.00    +0.000 A 
ATOM     19  C   UNL     1     103.639 123.490 137.519  0.00  0.00    +0.000 A 
ATOM     20  C   UNL     1     102.869 123.514 137.816  0.00  0.00    +0.000 A 
ENDBRANCH   5  15
BRANCH   6  21
ATOM     21  O   UNL     1     107.419 126.059 141.015  0.00  0.00    +0.000 OA
BRANCH  21  30
ATOM     22  O   UNL     1     108.412 126.041 139.988  0.00  0.00    +0.000 OA
ATOM     23  O   UNL     1     110.181 126.342 141.692  0.00  0.00    +0.000 OA
ATOM     24  O   UNL     1     110.584 126.223 140.098  0.00  0.00    +0.000 OA
ATOM     25  O   UNL     1     108.598 126.260 142.151  0.00  0.00    +0.000 OA
ATOM     26  C   UNL     1     109.592 126.242 141.124  0.00  0.00    +0.000 C 
ATOM     27  C   UNL     1     109.793 126.182 140.327  0.00  0.00    +0.000 C 
ATOM     28  C   UNL     1     108.800 126.201 141.354  0.00  0.00    +0.000 C 
ATOM     29  C   UNL     1     109.204 126.082 139.759  0.00  0.00    +0.000 C 
ATOM     30  C   UNL     1     108.211 126.100 140.786  0.00  0.00    +0.000 C 
BRANCH  29  32
ATOM     31  O   UNL     1     108.990 126.461 138.398  0.00  0.00    +0.000 OA
ATOM     32  C   UNL     1     109.405 126.022 138.961  0.00  0.00    +0.000 C 
ENDBRANCH  29  32
ENDBRANCH  21  30
ENDBRANCH   6  21
TORSDOF 4
ENDMDL
MODEL 4
REMARK VINA RESULT:      -9.5      8.056      9.456
REMARK  Name = 42608127
REMARK  4 active torsions:
REMARK  status: ('A' for Active; 'I' for Inactive)
REMARK    1  A    between atoms: O_2  and  C_16
REMARK    2  A    between atoms: O_2  and  C_19
REMARK    3  A    between atoms: C_15  and  C_17
REMARK    4  A    between atoms: C_18  and  C_25
REMARK                            x       y       z     vdW  Elec       q    Type
REMARK                         _______ _______ _______ _____ _____    ______ ____
ROOT
ATOM      1  O   UNL     1     112.358 127.124 136.148  0.00  0.00    +0.000 OA
ATOM      2  O   UNL     1     112.749 126.131 136.620  0.00  0.00    +0.000 OA
ATOM      3  O   UNL     1     113.569 129.633 135.382  0.00  0.00    +0.000 OA
ATOM      4  O   UNL     1     114.357 128.572 135.959  0.00  0.00    +0.000 OA
ATOM      5  C   UNL     1     113.093 126.848 136.401  0.00  0.00    +0.000 C 
ATOM      6  C   UNL     1     111.441 128.949 135.241  0.00  0.00    +0.000 A 
ATOM      7  C   UNL     1     113.760 127.331 136.339  0.00  0.00    +0.000 C 
ATOM      8  C   UNL     1     112.290 127.883 135.832  0.00  0.00    +0.000 A 
ATOM      9  C   UNL     1     112.956 128.366 135.769  0.00  0.00    +0.000 A 
ATOM     10  C   UNL     1     111.519 128.159 135.571  0.00  0.00    +0.000 A 
ATOM     11  C   UNL     1     113.691 128.090 136.022  0.00  0.00    +0.000 C 
ATOM     12  C   UNL     1     112.134 129.451 135.175  0.00  0.00    +0.000 A 
ATOM     13  C   UNL     1     112.898 129.157 135.441  0.00  0.00    +0.000 A 
ENDROOT
BRANCH   5  15
ATOM     14  O   UNL     1     114.951 124.458 137.716  0.00  0.00    +0.000 OA
ATOM     15  C   UNL     1     113.558 126.251 136.730  0.00  0.00    +0.000 A 
ATOM     16  C   UNL     1     113.629 126.186 137.549  0.00  0.00    +0.000 A 
ATOM     17  C   UNL     1     113.951 125.717 136.239  0.00  0.00    +0.000 A 
ATOM     18  C   UNL     1     114.093 125.589 137.878  0.00  0.00    +0.000 A 
ATOM     19  C   UNL     1     114.416 125.119 136.568  0.00  0.00    +0.000 A 
ATOM     20  C   UNL     1     114.487 125.055 137.387  0.00  0.00    +0.000 A 
ENDBRANCH   5  15
BRANCH   6  21
ATOM     21  O   UNL     1     110.705 129.222 134.988  0.00  0.00    +0.000 OA
BRANCH  21  30
ATOM     22  O   UNL     1     110.351 129.933 136.176  0.00  0.00    +0.000 OA
ATOM     23  O   UNL     1     108.009 129.171 135.934  0.00  0.00    +0.000 OA
ATOM     24  O   UNL     1     108.435 130.135 137.202  0.00  0.00    +0.000 OA
ATOM     25  O   UNL     1     109.144 128.714 134.827  0.00  0.00    +0.000 OA
ATOM     26  C   UNL     1     108.789 129.425 136.015  0.00  0.00    +0.000 C 
ATOM     27  C   UNL     1     109.002 129.907 136.649  0.00  0.00    +0.000 C 
ATOM     28  C   UNL     1     109.356 129.196 135.461  0.00  0.00    +0.000 C 
ATOM     29  C   UNL     1     109.783 130.161 136.729  0.00  0.00    +0.000 C 
ATOM     30  C   UNL     1     110.137 129.450 135.541  0.00  0.00    +0.000 C 
BRANCH  29  32
ATOM     31  O   UNL     1     110.398 131.351 137.226  0.00  0.00    +0.000 OA
ATOM     32  C   UNL     1     109.997 130.643 137.363  0.00  0.00    +0.000 C 
ENDBRANCH  29  32
ENDBRANCH  21  30
ENDBRANCH   6  21
TORSDOF 4
ENDMDL
MODEL 5
REMARK VINA RESULT:      -9.5      8.112      9.757
REMARK  Name = 42608127
REMARK  4 active torsions:
REMARK  status: ('A' for Active; 'I' for Inactive)
REMARK    1  A    between atoms: O_2  and  C_16
REMARK    2  A    between atoms: O_2  and  C_19
REMARK    3  A    between atoms: C_15  and  C_17
REMARK    4  A    between atoms: C_18  and  C_25
REMARK                            x       y       z     vdW  Elec       q    Type
REMARK                         _______ _______ _______ _____ _____    ______ ____
ROOT
ATOM      1  O   UNL     1     113.079 128.033 135.715  0.00  0.00    +0.000 OA
ATOM      2  O   UNL     1     114.086 128.618 135.784  0.00  0.00    +0.000 OA
ATOM      3  O   UNL     1     110.427 128.648 134.747  0.00  0.00    +0.000 OA
ATOM      4  O   UNL     1     111.485 129.625 134.688  0.00  0.00    +0.000 OA
ATOM      5  C   UNL     1     113.329 128.792 135.508  0.00  0.00    +0.000 C 
ATOM      6  C   UNL     1     111.237 126.770 135.659  0.00  0.00    +0.000 A 
ATOM      7  C   UNL     1     112.798 129.323 135.166  0.00  0.00    +0.000 C 
ATOM      8  C   UNL     1     112.298 127.806 135.579  0.00  0.00    +0.000 A 
ATOM      9  C   UNL     1     111.766 128.336 135.236  0.00  0.00    +0.000 A 
ATOM     10  C   UNL     1     112.049 127.013 135.798  0.00  0.00    +0.000 A 
ATOM     11  C   UNL     1     112.016 129.095 135.030  0.00  0.00    +0.000 C 
ATOM     12  C   UNL     1     110.684 127.322 135.303  0.00  0.00    +0.000 A 
ATOM     13  C   UNL     1     110.951 128.111 135.090  0.00  0.00    +0.000 A 
ENDROOT
BRANCH   5  15
ATOM     14  O   UNL     1     115.710 131.071 135.344  0.00  0.00    +0.000 OA
ATOM     15  C   UNL     1     113.924 129.362 135.467  0.00  0.00    +0.000 A 
ATOM     16  C   UNL     1     114.051 129.872 136.102  0.00  0.00    +0.000 A 
ATOM     17  C   UNL     1     114.392 129.421 134.791  0.00  0.00    +0.000 A 
ATOM     18  C   UNL     1     114.646 130.442 136.061  0.00  0.00    +0.000 A 
ATOM     19  C   UNL     1     114.988 129.991 134.749  0.00  0.00    +0.000 A 
ATOM     20  C   UNL     1     115.115 130.501 135.385  0.00  0.00    +0.000 A 
ENDBRANCH   5  15
BRANCH   6  21
ATOM     21  O   UNL     1     110.989 126.010 135.866  0.00  0.00    +0.000 OA
BRANCH  21  30
ATOM     22  O   UNL     1     110.499 126.288 137.180  0.00  0.00    +0.000 OA
ATOM     23  O   UNL     1     111.547 124.206 138.011  0.00  0.00    +0.000 OA
ATOM     24  O   UNL     1     110.708 125.178 139.046  0.00  0.00    +0.000 OA
ATOM     25  O   UNL     1     111.688 124.622 136.421  0.00  0.00    +0.000 OA
ATOM     26  C   UNL     1     111.197 124.900 137.734  0.00  0.00    +0.000 C 
ATOM     27  C   UNL     1     110.778 125.385 138.252  0.00  0.00    +0.000 C 
ATOM     28  C   UNL     1     111.268 125.108 136.938  0.00  0.00    +0.000 C 
ATOM     29  C   UNL     1     110.429 126.080 137.974  0.00  0.00    +0.000 C 
ATOM     30  C   UNL     1     110.919 125.802 136.661  0.00  0.00    +0.000 C 
BRANCH  29  32
ATOM     31  O   UNL     1     109.234 126.787 138.312  0.00  0.00    +0.000 OA
ATOM     32  C   UNL     1     110.009 126.566 138.492  0.00  0.00    +0.000 C 
ENDBRANCH  29  32
ENDBRANCH  21  30
ENDBRANCH   6  21
TORSDOF 4
ENDMDL
MODEL 6
REMARK VINA RESULT:      -9.4      6.943      8.275
REMARK  Name = 42608127
REMARK  4 active torsions:
REMARK  status: ('A' for Active; 'I' for Inactive)
REMARK    1  A    between atoms: O_2  and  C_16
REMARK    2  A    between atoms: O_2  and  C_19
REMARK    3  A    between atoms: C_15  and  C_17
REMARK    4  A    between atoms: C_18  and  C_25
REMARK                            x       y       z     vdW  Elec       q    Type
REMARK                         _______ _______ _______ _____ _____    ______ ____
ROOT
ATOM      1  O   UNL     1     111.852 126.406 136.300  0.00  0.00    +0.000 OA
ATOM      2  O   UNL     1     112.929 125.957 136.294  0.00  0.00    +0.000 OA
ATOM      3  O   UNL     1     109.553 126.174 138.034  0.00  0.00    +0.000 OA
ATOM      4  O   UNL     1     110.775 125.462 138.319  0.00  0.00    +0.000 OA
ATOM      5  C   UNL     1     112.272 125.891 136.789  0.00  0.00    +0.000 C 
ATOM      6  C   UNL     1     109.835 127.356 136.153  0.00  0.00    +0.000 A 
ATOM      7  C   UNL     1     111.913 125.576 137.462  0.00  0.00    +0.000 C 
ATOM      8  C   UNL     1     111.073 126.606 136.484  0.00  0.00    +0.000 A 
ATOM      9  C   UNL     1     110.714 126.292 137.157  0.00  0.00    +0.000 A 
ATOM     10  C   UNL     1     110.646 127.144 135.966  0.00  0.00    +0.000 A 
ATOM     11  C   UNL     1     111.134 125.777 137.646  0.00  0.00    +0.000 C 
ATOM     12  C   UNL     1     109.461 127.029 136.853  0.00  0.00    +0.000 A 
ATOM     13  C   UNL     1     109.904 126.493 137.359  0.00  0.00    +0.000 A 
ENDROOT
BRANCH   5  15
ATOM     14  O   UNL     1     115.040 124.239 137.495  0.00  0.00    +0.000 OA
ATOM     15  C   UNL     1     112.964 125.478 136.965  0.00  0.00    +0.000 A 
ATOM     16  C   UNL     1     113.073 124.713 136.677  0.00  0.00    +0.000 A 
ATOM     17  C   UNL     1     113.547 125.830 137.430  0.00  0.00    +0.000 A 
ATOM     18  C   UNL     1     113.765 124.300 136.853  0.00  0.00    +0.000 A 
ATOM     19  C   UNL     1     114.240 125.417 137.607  0.00  0.00    +0.000 A 
ATOM     20  C   UNL     1     114.348 124.652 137.318  0.00  0.00    +0.000 A 
ENDBRANCH   5  15
BRANCH   6  21
ATOM     21  O   UNL     1     109.417 127.871 135.662  0.00  0.00    +0.000 OA
BRANCH  21  30
ATOM     22  O   UNL     1     110.023 129.101 136.066  0.00  0.00    +0.000 OA
ATOM     23  O   UNL     1     107.804 130.197 136.056  0.00  0.00    +0.000 OA
ATOM     24  O   UNL     1     109.150 131.061 136.463  0.00  0.00    +0.000 OA
ATOM     25  O   UNL     1     107.938 128.602 135.656  0.00  0.00    +0.000 OA
ATOM     26  C   UNL     1     108.544 129.832 136.060  0.00  0.00    +0.000 C 
ATOM     27  C   UNL     1     109.216 130.264 136.263  0.00  0.00    +0.000 C 
ATOM     28  C   UNL     1     108.610 129.034 135.859  0.00  0.00    +0.000 C 
ATOM     29  C   UNL     1     109.956 129.898 136.266  0.00  0.00    +0.000 C 
ATOM     30  C   UNL     1     109.350 128.669 135.862  0.00  0.00    +0.000 C 
BRANCH  29  32
ATOM     31  O   UNL     1     111.301 130.294 135.991  0.00  0.00    +0.000 OA
ATOM     32  C   UNL     1     110.629 130.330 136.469  0.00  0.00    +0.000 C 
ENDBRANCH  29  32
ENDBRANCH  21  30
ENDBRANCH   6  21
TORSDOF 4
ENDMDL
MODEL 7
REMARK VINA RESULT:      -9.3      7.538     10.198
REMARK  Name = 42608127
REMARK  4 active torsions:
REMARK  status: ('A' for Active; 'I' for Inactive)
REMARK    1  A    between atoms: O_2  and  C_16
REMARK    2  A    between atoms: O_2  and  C_19
REMARK    3  A    between atoms: C_15  and  C_17
REMARK    4  A    between atoms: C_18  and  C_25
REMARK                            x       y       z     vdW  Elec       q    Type
REMARK                         _______ _______ _______ _____ _____    ______ ____
ROOT
ATOM      1  O   UNL     1     113.421 128.166 139.936  0.00  0.00    +0.000 OA
ATOM      2  O   UNL     1     114.053 128.860 140.629  0.00  0.00    +0.000 OA
ATOM      3  O   UNL     1     111.703 128.580 137.651  0.00  0.00    +0.000 OA
ATOM      4  O   UNL     1     112.358 129.689 138.300  0.00  0.00    +0.000 OA
ATOM      5  C   UNL     1     113.562 128.977 139.976  0.00  0.00    +0.000 C 
ATOM      6  C   UNL     1     112.272 126.692 138.712  0.00  0.00    +0.000 A 
ATOM      7  C   UNL     1     113.208 129.486 139.431  0.00  0.00    +0.000 C 
ATOM      8  C   UNL     1     112.926 127.862 139.351  0.00  0.00    +0.000 A 
ATOM      9  C   UNL     1     112.571 128.369 138.806  0.00  0.00    +0.000 A 
ATOM     10  C   UNL     1     112.787 127.014 139.320  0.00  0.00    +0.000 A 
ATOM     11  C   UNL     1     112.712 129.181 138.846  0.00  0.00    +0.000 C 
ATOM     12  C   UNL     1     111.903 127.220 138.145  0.00  0.00    +0.000 A 
ATOM     13  C   UNL     1     112.054 128.065 138.192  0.00  0.00    +0.000 A 
ENDROOT
BRANCH   5  15
ATOM     14  O   UNL     1     115.032 131.556 141.420  0.00  0.00    +0.000 OA
ATOM     15  C   UNL     1     113.930 129.622 140.337  0.00  0.00    +0.000 A 
ATOM     16  C   UNL     1     114.658 129.891 140.060  0.00  0.00    +0.000 A 
ATOM     17  C   UNL     1     113.568 129.998 140.976  0.00  0.00    +0.000 A 
ATOM     18  C   UNL     1     115.026 130.535 140.421  0.00  0.00    +0.000 A 
ATOM     19  C   UNL     1     113.935 130.643 141.338  0.00  0.00    +0.000 A 
ATOM     20  C   UNL     1     114.664 130.911 141.060  0.00  0.00    +0.000 A 
ENDBRANCH   5  15
BRANCH   6  21
ATOM     21  O   UNL     1     112.132 125.879 138.675  0.00  0.00    +0.000 OA
BRANCH  21  30
ATOM     22  O   UNL     1     113.295 125.501 137.936  0.00  0.00    +0.000 OA
ATOM     23  O   UNL     1     111.934 123.921 136.602  0.00  0.00    +0.000 OA
ATOM     24  O   UNL     1     113.550 124.069 136.308  0.00  0.00    +0.000 OA
ATOM     25  O   UNL     1     111.225 124.826 137.786  0.00  0.00    +0.000 OA
ATOM     26  C   UNL     1     112.388 124.448 137.047  0.00  0.00    +0.000 C 
ATOM     27  C   UNL     1     113.195 124.521 136.900  0.00  0.00    +0.000 C 
ATOM     28  C   UNL     1     112.032 124.900 137.639  0.00  0.00    +0.000 C 
ATOM     29  C   UNL     1     113.649 125.048 137.344  0.00  0.00    +0.000 C 
ATOM     30  C   UNL     1     112.486 125.426 138.083  0.00  0.00    +0.000 C 
BRANCH  29  32
ATOM     31  O   UNL     1     114.998 125.047 137.817  0.00  0.00    +0.000 OA
ATOM     32  C   UNL     1     114.458 125.122 137.197  0.00  0.00    +0.000 C 
ENDBRANCH  29  32
ENDBRANCH  21  30
ENDBRANCH   6  21
TORSDOF 4
ENDMDL
MODEL 8
REMARK VINA RESULT:      -9.3      3.851      6.152
REMARK  Name = 42608127
REMARK  4 active torsions:
REMARK  status: ('A' for Active; 'I' for Inactive)
REMARK    1  A    between atoms: O_2  and  C_16
REMARK    2  A    between atoms: O_2  and  C_19
REMARK    3  A    between atoms: C_15  and  C_17
REMARK    4  A    between atoms: C_18  and  C_25
REMARK                            x       y       z     vdW  Elec       q    Type
REMARK                         _______ _______ _______ _____ _____    ______ ____
ROOT
ATOM      1  O   UNL     1     103.291 130.243 142.448  0.00  0.00    +0.000 OA
ATOM      2  O   UNL     1     102.719 131.245 142.621  0.00  0.00    +0.000 OA
ATOM      3  O   UNL     1     103.576 128.414 140.230  0.00  0.00    +0.000 OA
ATOM      4  O   UNL     1     102.768 129.603 140.114  0.00  0.00    +0.000 OA
ATOM      5  C   UNL     1     102.801 130.722 141.988  0.00  0.00    +0.000 C 
ATOM      6  C   UNL     1     104.449 128.338 142.291  0.00  0.00    +0.000 A 
ATOM      7  C   UNL     1     102.626 130.509 141.210  0.00  0.00    +0.000 C 
ATOM      8  C   UNL     1     103.607 129.551 142.129  0.00  0.00    +0.000 A 
ATOM      9  C   UNL     1     103.433 129.337 141.351  0.00  0.00    +0.000 A 
ATOM     10  C   UNL     1     104.117 129.060 142.617  0.00  0.00    +0.000 A 
ATOM     11  C   UNL     1     102.943 129.816 140.892  0.00  0.00    +0.000 C 
ATOM     12  C   UNL     1     104.267 128.116 141.481  0.00  0.00    +0.000 A 
ATOM     13  C   UNL     1     103.756 128.619 141.008  0.00  0.00    +0.000 A 
ENDROOT
BRANCH   5  15
ATOM     14  O   UNL     1     100.939 133.427 141.662  0.00  0.00    +0.000 OA
ATOM     15  C   UNL     1     102.336 131.398 141.907  0.00  0.00    +0.000 A 
ATOM     16  C   UNL     1     101.533 131.372 142.094  0.00  0.00    +0.000 A 
ATOM     17  C   UNL     1     102.673 132.101 141.638  0.00  0.00    +0.000 A 
ATOM     18  C   UNL     1     101.067 132.048 142.013  0.00  0.00    +0.000 A 
ATOM     19  C   UNL     1     102.208 132.778 141.556  0.00  0.00    +0.000 A 
ATOM     20  C   UNL     1     101.405 132.751 141.744  0.00  0.00    +0.000 A 
ENDBRANCH   5  15
BRANCH   6  21
ATOM     21  O   UNL     1     104.939 127.861 142.752  0.00  0.00    +0.000 OA
BRANCH  21  30
ATOM     22  O   UNL     1     106.135 128.506 142.312  0.00  0.00    +0.000 OA
ATOM     23  O   UNL     1     107.414 126.432 142.746  0.00  0.00    +0.000 OA
ATOM     24  O   UNL     1     108.183 127.768 142.162  0.00  0.00    +0.000 OA
ATOM     25  O   UNL     1     105.791 126.478 143.042  0.00  0.00    +0.000 OA
ATOM     26  C   UNL     1     106.988 127.123 142.602  0.00  0.00    +0.000 C 
ATOM     27  C   UNL     1     107.373 127.791 142.310  0.00  0.00    +0.000 C 
ATOM     28  C   UNL     1     106.176 127.146 142.750  0.00  0.00    +0.000 C 
ATOM     29  C   UNL     1     106.946 128.482 142.165  0.00  0.00    +0.000 C 
ATOM     30  C   UNL     1     105.750 127.837 142.605  0.00  0.00    +0.000 C 
BRANCH  29  32
ATOM     31  O   UNL     1     107.194 129.399 141.097  0.00  0.00    +0.000 OA
ATOM     32  C   UNL     1     107.331 129.151 141.872  0.00  0.00    +0.000 C 
ENDBRANCH  29  32
ENDBRANCH  21  30
ENDBRANCH   6  21
TORSDOF 4
ENDMDL
MODEL 9
REMARK VINA RESULT:      -9.3      6.805      7.932
REMARK  Name = 42608127
REMARK  4 active torsions:
REMARK  status: ('A' for Active; 'I' for Inactive)
REMARK    1  A    between atoms: O_2  and  C_16
REMARK    2  A    between atoms: O_2  and  C_19
REMARK    3  A    between atoms: C_15  and  C_17
REMARK    4  A    between atoms: C_18  and  C_25
REMARK                            x       y       z     vdW  Elec       q    Type
REMARK                         _______ _______ _______ _____ _____    ______ ____
ROOT
ATOM      1  O   UNL     1     109.896 126.960 136.237  0.00  0.00    +0.000 OA
ATOM      2  O   UNL     1     110.162 125.890 136.619  0.00  0.00    +0.000 OA
ATOM      3  O   UNL     1     111.308 129.014 134.776  0.00  0.00    +0.000 OA
ATOM      4  O   UNL     1     111.944 127.761 135.101  0.00  0.00    +0.000 OA
ATOM      5  C   UNL     1     110.564 126.477 136.202  0.00  0.00    +0.000 C 
ATOM      6  C   UNL     1     109.218 128.985 135.580  0.00  0.00    +0.000 A 
ATOM      7  C   UNL     1     111.247 126.744 135.823  0.00  0.00    +0.000 C 
ATOM      8  C   UNL     1     109.911 127.709 135.893  0.00  0.00    +0.000 A 
ATOM      9  C   UNL     1     110.594 127.976 135.515  0.00  0.00    +0.000 A 
ATOM     10  C   UNL     1     109.209 128.203 135.937  0.00  0.00    +0.000 A 
ATOM     11  C   UNL     1     111.262 127.493 135.479  0.00  0.00    +0.000 C 
ATOM     12  C   UNL     1     109.928 129.263 135.186  0.00  0.00    +0.000 A 
ATOM     13  C   UNL     1     110.621 128.755 135.153  0.00  0.00    +0.000 A 
ENDROOT
BRANCH   5  15
ATOM     14  O   UNL     1     112.074 123.630 136.914  0.00  0.00    +0.000 OA
ATOM     15  C   UNL     1     110.941 125.765 136.380  0.00  0.00    +0.000 A 
ATOM     16  C   UNL     1     111.306 125.663 137.113  0.00  0.00    +0.000 A 
ATOM     17  C   UNL     1     110.955 125.155 135.825  0.00  0.00    +0.000 A 
ATOM     18  C   UNL     1     111.683 124.951 137.291  0.00  0.00    +0.000 A 
ATOM     19  C   UNL     1     111.332 124.443 136.002  0.00  0.00    +0.000 A 
ATOM     20  C   UNL     1     111.696 124.341 136.736  0.00  0.00    +0.000 A 
ENDBRANCH   5  15
BRANCH   6  21
ATOM     21  O   UNL     1     108.549 129.466 135.617  0.00  0.00    +0.000 OA
BRANCH  21  30
ATOM     22  O   UNL     1     108.802 130.063 136.890  0.00  0.00    +0.000 OA
ATOM     23  O   UNL     1     108.003 132.241 136.027  0.00  0.00    +0.000 OA
ATOM     24  O   UNL     1     108.522 132.112 137.587  0.00  0.00    +0.000 OA
ATOM     25  O   UNL     1     108.016 130.918 135.042  0.00  0.00    +0.000 OA
ATOM     26  C   UNL     1     108.269 131.515 136.315  0.00  0.00    +0.000 C 
ATOM     27  C   UNL     1     108.529 131.451 137.095  0.00  0.00    +0.000 C 
ATOM     28  C   UNL     1     108.276 130.854 135.822  0.00  0.00    +0.000 C 
ATOM     29  C   UNL     1     108.795 130.725 137.383  0.00  0.00    +0.000 C 
ATOM     30  C   UNL     1     108.542 130.128 136.109  0.00  0.00    +0.000 C 
BRANCH  29  32
ATOM     31  O   UNL     1     108.739 130.077 138.655  0.00  0.00    +0.000 OA
ATOM     32  C   UNL     1     109.055 130.660 138.163  0.00  0.00    +0.000 C 
ENDBRANCH  29  32
ENDBRANCH  21  30
ENDBRANCH   6  21
TORSDOF 4
ENDMDL
MODEL 10
REMARK VINA RESULT:      -9.2      6.878      8.401
REMARK  Name = 42608127
REMARK  4 active torsions:
REMARK  status: ('A' for Active; 'I' for Inactive)
REMARK    1  A    between atoms: O_2  and  C_16
REMARK    2  A    between atoms: O_2  and  C_19
REMARK    3  A    between atoms: C_15  and  C_17
REMARK    4  A    between atoms: C_18  and  C_25
REMARK                            x       y       z     vdW  Elec       q    Type
REMARK                         _______ _______ _______ _____ _____    ______ ____
ROOT
ATOM      1  O   UNL     1     113.646 126.375 139.314  0.00  0.00    +0.000 OA
ATOM      2  O   UNL     1     114.395 126.027 138.489  0.00  0.00    +0.000 OA
ATOM      3  O   UNL     1     110.769 126.524 139.527  0.00  0.00    +0.000 OA
ATOM      4  O   UNL     1     111.402 126.029 138.330  0.00  0.00    +0.000 OA
ATOM      5  C   UNL     1     113.573 126.070 138.551  0.00  0.00    +0.000 C 
ATOM      6  C   UNL     1     112.361 127.081 141.000  0.00  0.00    +0.000 A 
ATOM      7  C   UNL     1     112.825 125.954 138.222  0.00  0.00    +0.000 C 
ATOM      8  C   UNL     1     112.972 126.564 139.748  0.00  0.00    +0.000 A 
ATOM      9  C   UNL     1     112.223 126.449 139.421  0.00  0.00    +0.000 A 
ATOM     10  C   UNL     1     113.061 126.881 140.543  0.00  0.00    +0.000 A 
ATOM     11  C   UNL     1     112.150 126.144 138.658  0.00  0.00    +0.000 C 
ATOM     12  C   UNL     1     111.583 126.961 140.659  0.00  0.00    +0.000 A 
ATOM     13  C   UNL     1     111.513 126.642 139.863  0.00  0.00    +0.000 A 
ENDROOT
BRANCH   5  15
ATOM     14  O   UNL     1     114.962 124.928 135.783  0.00  0.00    +0.000 OA
ATOM     15  C   UNL     1     113.920 125.784 137.859  0.00  0.00    +0.000 A 
ATOM     16  C   UNL     1     114.191 125.006 137.824  0.00  0.00    +0.000 A 
ATOM     17  C   UNL     1     113.996 126.277 137.202  0.00  0.00    +0.000 A 
ATOM     18  C   UNL     1     114.539 124.720 137.132  0.00  0.00    +0.000 A 
ATOM     19  C   UNL     1     114.343 125.992 136.510  0.00  0.00    +0.000 A 
ATOM     20  C   UNL     1     114.615 125.213 136.475  0.00  0.00    +0.000 A 
ENDBRANCH   5  15
BRANCH   6  21
ATOM     21  O   UNL     1     112.438 127.385 141.763  0.00  0.00    +0.000 OA
BRANCH  21  30
ATOM     22  O   UNL     1     112.871 128.708 141.437  0.00  0.00    +0.000 OA
ATOM     23  O   UNL     1     111.353 129.630 143.161  0.00  0.00    +0.000 OA
ATOM     24  O   UNL     1     112.292 130.644 142.261  0.00  0.00    +0.000 OA
ATOM     25  O   UNL     1     111.426 128.000 142.912  0.00  0.00    +0.000 OA
ATOM     26  C   UNL     1     111.859 129.322 142.587  0.00  0.00    +0.000 C 
ATOM     27  C   UNL     1     112.328 129.829 142.137  0.00  0.00    +0.000 C 
ATOM     28  C   UNL     1     111.895 128.507 142.463  0.00  0.00    +0.000 C 
ATOM     29  C   UNL     1     112.834 129.522 141.562  0.00  0.00    +0.000 C 
ATOM     30  C   UNL     1     112.401 128.200 141.888  0.00  0.00    +0.000 C 
BRANCH  29  32
ATOM     31  O   UNL     1     114.121 129.911 141.076  0.00  0.00    +0.000 OA
ATOM     32  C   UNL     1     113.304 130.029 141.112  0.00  0.00    +0.000 C 
ENDBRANCH  29  32
ENDBRANCH  21  30
ENDBRANCH   6  21
TORSDOF 4
ENDMDL
