MODEL 1
REMARK VINA RESULT:     -10.3      0.000      0.000
REMARK  Name = 14054266
REMARK  6 active torsions:
REMARK  status: ('A' for Active; 'I' for Inactive)
REMARK    1  A    between atoms: O_2  and  C_21
REMARK    2  A    between atoms: O_2  and  C_28
REMARK    3  A    between atoms: O_7  and  C_26
REMARK    4  A    between atoms: O_7  and  C_29
REMARK    5  A    between atoms: C_20  and  C_24
REMARK    6  A    between atoms: C_35  and  C_37
REMARK                            x       y       z     vdW  Elec       q    Type
REMARK                         _______ _______ _______ _____ _____    ______ ____
ROOT
ATOM      1  O   UNL     1     113.413 126.257 138.787  0.00  0.00    +0.000 OA
ATOM      2  O   UNL     1     110.662 126.396 139.659  0.00  0.00    +0.000 OA
ATOM      3  O   UNL     1     111.012 125.804 138.391  0.00  0.00    +0.000 OA
ATOM      4  C   UNL     1     112.536 127.096 140.664  0.00  0.00    +0.000 A 
ATOM      5  C   UNL     1     112.372 125.735 137.959  0.00  0.00    +0.000 A 
ATOM      6  C   UNL     1     112.052 126.326 139.219  0.00  0.00    +0.000 A 
ATOM      7  C   UNL     1     113.116 126.864 140.073  0.00  0.00    +0.000 A 
ATOM      8  C   UNL     1     112.853 126.478 139.352  0.00  0.00    +0.000 A 
ATOM      9  C   UNL     1     111.704 126.938 140.527  0.00  0.00    +0.000 A 
ATOM     10  C   UNL     1     111.812 125.955 138.523  0.00  0.00    +0.000 A 
ATOM     11  C   UNL     1     113.172 125.886 138.091  0.00  0.00    +0.000 A 
ATOM     12  C   UNL     1     111.460 126.551 139.800  0.00  0.00    +0.000 A 
ENDROOT
BRANCH  11  15
ATOM     13  O   UNL     1     114.919 126.577 135.937  0.00  0.00    +0.000 OA
ATOM     14  O   UNL     1     115.412 125.005 135.833  0.00  0.00    +0.000 OA
ATOM     15  C   UNL     1     113.732 125.666 137.527  0.00  0.00    +0.000 A 
ATOM     16  C   UNL     1     114.046 126.231 137.014  0.00  0.00    +0.000 A 
ATOM     17  C   UNL     1     113.978 124.880 137.474  0.00  0.00    +0.000 A 
ATOM     18  C   UNL     1     114.606 126.011 136.450  0.00  0.00    +0.000 A 
ATOM     19  C   UNL     1     114.538 124.660 136.910  0.00  0.00    +0.000 A 
ATOM     20  C   UNL     1     114.852 125.226 136.398  0.00  0.00    +0.000 A 
ENDBRANCH  11  15
BRANCH   4  21
ATOM     21  O   UNL     1     112.780 127.467 141.361  0.00  0.00    +0.000 OA
BRANCH  21  30
ATOM     22  O   UNL     1     113.148 128.744 140.835  0.00  0.00    +0.000 OA
ATOM     23  O   UNL     1     111.999 129.853 142.725  0.00  0.00    +0.000 OA
ATOM     24  O   UNL     1     112.750 130.760 141.571  0.00  0.00    +0.000 OA
ATOM     25  O   UNL     1     112.014 128.207 142.621  0.00  0.00    +0.000 OA
ATOM     26  C   UNL     1     112.382 129.484 142.096  0.00  0.00    +0.000 C 
ATOM     27  C   UNL     1     112.758 129.936 141.518  0.00  0.00    +0.000 C 
ATOM     28  C   UNL     1     112.389 128.660 142.043  0.00  0.00    +0.000 C 
ATOM     29  C   UNL     1     113.141 129.567 140.888  0.00  0.00    +0.000 C 
ATOM     30  C   UNL     1     112.773 128.290 141.413  0.00  0.00    +0.000 C 
BRANCH  29  32
ATOM     31  O   UNL     1     114.323 129.924 140.169  0.00  0.00    +0.000 OA
ATOM     32  C   UNL     1     113.516 130.020 140.310  0.00  0.00    +0.000 C 
ENDBRANCH  29  32
ENDBRANCH  21  30
ENDBRANCH   4  21
BRANCH   5  33
ATOM     33  O   UNL     1     112.132 125.364 137.263  0.00  0.00    +0.000 OA
BRANCH  33  41
ATOM     34  O   UNL     1     111.589 126.572 136.730  0.00  0.00    +0.000 OA
ATOM     35  O   UNL     1     110.128 125.256 135.227  0.00  0.00    +0.000 OA
ATOM     36  O   UNL     1     111.158 124.485 136.261  0.00  0.00    +0.000 OA
ATOM     37  O   UNL     1     110.072 126.905 135.196  0.00  0.00    +0.000 OA
ATOM     38  C   UNL     1     110.615 125.695 135.728  0.00  0.00    +0.000 C 
ATOM     39  C   UNL     1     111.130 125.309 136.245  0.00  0.00    +0.000 C 
ATOM     40  C   UNL     1     110.587 126.519 135.713  0.00  0.00    +0.000 C 
ATOM     41  C   UNL     1     111.617 125.748 136.746  0.00  0.00    +0.000 C 
ATOM     42  C   UNL     1     111.074 126.958 136.213  0.00  0.00    +0.000 C 
ENDBRANCH  33  41
ENDBRANCH   5  33
TORSDOF 6
ENDMDL
MODEL 2
REMARK VINA RESULT:     -10.2      7.023      9.388
REMARK  Name = 14054266
REMARK  6 active torsions:
REMARK  status: ('A' for Active; 'I' for Inactive)
REMARK    1  A    between atoms: O_2  and  C_21
REMARK    2  A    between atoms: O_2  and  C_28
REMARK    3  A    between atoms: O_7  and  C_26
REMARK    4  A    between atoms: O_7  and  C_29
REMARK    5  A    between atoms: C_20  and  C_24
REMARK    6  A    between atoms: C_35  and  C_37
REMARK                            x       y       z     vdW  Elec       q    Type
REMARK                         _______ _______ _______ _____ _____    ______ ____
ROOT
ATOM      1  O   UNL     1     105.046 127.441 142.637  0.00  0.00    +0.000 OA
ATOM      2  O   UNL     1     107.871 126.852 142.485  0.00  0.00    +0.000 OA
ATOM      3  O   UNL     1     107.344 128.103 141.998  0.00  0.00    +0.000 OA
ATOM      4  C   UNL     1     106.177 125.627 143.288  0.00  0.00    +0.000 A 
ATOM      5  C   UNL     1     105.948 128.396 142.073  0.00  0.00    +0.000 A 
ATOM      6  C   UNL     1     106.443 127.149 142.562  0.00  0.00    +0.000 A 
ATOM      7  C   UNL     1     105.523 126.166 143.142  0.00  0.00    +0.000 A 
ATOM      8  C   UNL     1     105.677 126.927 142.775  0.00  0.00    +0.000 A 
ATOM      9  C   UNL     1     106.974 125.856 143.067  0.00  0.00    +0.000 A 
ATOM     10  C   UNL     1     106.578 127.883 142.211  0.00  0.00    +0.000 A 
ATOM     11  C   UNL     1     105.182 128.175 142.286  0.00  0.00    +0.000 A 
ATOM     12  C   UNL     1     107.108 126.622 142.701  0.00  0.00    +0.000 A 
ENDROOT
BRANCH  11  15
ATOM     13  O   UNL     1     103.247 129.295 140.505  0.00  0.00    +0.000 OA
ATOM     14  O   UNL     1     102.659 130.229 141.731  0.00  0.00    +0.000 OA
ATOM     15  C   UNL     1     104.551 128.689 142.147  0.00  0.00    +0.000 A 
ATOM     16  C   UNL     1     104.214 128.736 141.396  0.00  0.00    +0.000 A 
ATOM     17  C   UNL     1     104.257 129.156 142.761  0.00  0.00    +0.000 A 
ATOM     18  C   UNL     1     103.584 129.249 141.257  0.00  0.00    +0.000 A 
ATOM     19  C   UNL     1     103.627 129.669 142.622  0.00  0.00    +0.000 A 
ATOM     20  C   UNL     1     103.290 129.716 141.870  0.00  0.00    +0.000 A 
ENDBRANCH  11  15
BRANCH   4  21
ATOM     21  O   UNL     1     106.038 124.892 143.640  0.00  0.00    +0.000 OA
BRANCH  21  30
ATOM     22  O   UNL     1     106.339 125.268 144.986  0.00  0.00    +0.000 OA
ATOM     23  O   UNL     1     104.471 123.863 145.795  0.00  0.00    +0.000 OA
ATOM     24  O   UNL     1     105.394 124.706 146.870  0.00  0.00    +0.000 OA
ATOM     25  O   UNL     1     104.792 123.955 144.180  0.00  0.00    +0.000 OA
ATOM     26  C   UNL     1     105.093 124.331 145.526  0.00  0.00    +0.000 C 
ATOM     27  C   UNL     1     105.556 124.753 146.063  0.00  0.00    +0.000 C 
ATOM     28  C   UNL     1     105.254 124.377 144.717  0.00  0.00    +0.000 C 
ATOM     29  C   UNL     1     106.179 125.221 145.793  0.00  0.00    +0.000 C 
ATOM     30  C   UNL     1     105.878 124.846 144.447  0.00  0.00    +0.000 C 
BRANCH  29  32
ATOM     31  O   UNL     1     107.449 125.489 146.391  0.00  0.00    +0.000 OA
ATOM     32  C   UNL     1     106.640 125.643 146.330  0.00  0.00    +0.000 C 
ENDBRANCH  29  32
ENDBRANCH  21  30
ENDBRANCH   4  21
BRANCH   5  33
ATOM     33  O   UNL     1     106.083 129.130 141.722  0.00  0.00    +0.000 OA
BRANCH  33  41
ATOM     34  O   UNL     1     106.654 129.695 142.902  0.00  0.00    +0.000 OA
ATOM     35  O   UNL     1     107.984 131.254 141.515  0.00  0.00    +0.000 OA
ATOM     36  O   UNL     1     106.969 130.169 140.796  0.00  0.00    +0.000 OA
ATOM     37  O   UNL     1     108.111 131.299 143.159  0.00  0.00    +0.000 OA
ATOM     38  C   UNL     1     107.540 130.734 141.977  0.00  0.00    +0.000 C 
ATOM     39  C   UNL     1     107.033 130.192 141.618  0.00  0.00    +0.000 C 
ATOM     40  C   UNL     1     107.604 130.757 142.800  0.00  0.00    +0.000 C 
ATOM     41  C   UNL     1     106.590 129.672 142.080  0.00  0.00    +0.000 C 
ATOM     42  C   UNL     1     107.161 130.237 143.262  0.00  0.00    +0.000 C 
ENDBRANCH  33  41
ENDBRANCH   5  33
TORSDOF 6
ENDMDL
MODEL 3
REMARK VINA RESULT:     -10.2      1.836      5.843
REMARK  Name = 14054266
REMARK  6 active torsions:
REMARK  status: ('A' for Active; 'I' for Inactive)
REMARK    1  A    between atoms: O_2  and  C_21
REMARK    2  A    between atoms: O_2  and  C_28
REMARK    3  A    between atoms: O_7  and  C_26
REMARK    4  A    between atoms: O_7  and  C_29
REMARK    5  A    between atoms: C_20  and  C_24
REMARK    6  A    between atoms: C_35  and  C_37
REMARK                            x       y       z     vdW  Elec       q    Type
REMARK                         _______ _______ _______ _____ _____    ______ ____
ROOT
ATOM      1  O   UNL     1     112.784 128.501 138.264  0.00  0.00    +0.000 OA
ATOM      2  O   UNL     1     113.811 127.135 140.593  0.00  0.00    +0.000 OA
ATOM      3  O   UNL     1     114.104 128.527 140.357  0.00  0.00    +0.000 OA
ATOM      4  C   UNL     1     112.524 126.381 138.922  0.00  0.00    +0.000 A 
ATOM      5  C   UNL     1     113.597 129.204 139.205  0.00  0.00    +0.000 A 
ATOM      6  C   UNL     1     113.291 127.824 139.415  0.00  0.00    +0.000 A 
ATOM      7  C   UNL     1     112.458 127.098 138.453  0.00  0.00    +0.000 A 
ATOM      8  C   UNL     1     112.851 127.815 138.717  0.00  0.00    +0.000 A 
ATOM      9  C   UNL     1     112.982 126.390 139.648  0.00  0.00    +0.000 A 
ATOM     10  C   UNL     1     113.664 128.519 139.659  0.00  0.00    +0.000 A 
ATOM     11  C   UNL     1     113.156 129.195 138.508  0.00  0.00    +0.000 A 
ATOM     12  C   UNL     1     113.368 127.116 139.896  0.00  0.00    +0.000 A 
ENDROOT
BRANCH  11  15
ATOM     13  O   UNL     1     111.620 131.437 137.623  0.00  0.00    +0.000 OA
ATOM     14  O   UNL     1     112.887 131.938 136.693  0.00  0.00    +0.000 OA
ATOM     15  C   UNL     1     113.089 129.881 138.054  0.00  0.00    +0.000 A 
ATOM     16  C   UNL     1     112.389 130.316 138.065  0.00  0.00    +0.000 A 
ATOM     17  C   UNL     1     113.723 130.132 137.589  0.00  0.00    +0.000 A 
ATOM     18  C   UNL     1     112.321 131.002 137.612  0.00  0.00    +0.000 A 
ATOM     19  C   UNL     1     113.655 130.817 137.135  0.00  0.00    +0.000 A 
ATOM     20  C   UNL     1     112.954 131.252 137.147  0.00  0.00    +0.000 A 
ENDBRANCH  11  15
BRANCH   4  21
ATOM     21  O   UNL     1     112.150 125.688 138.675  0.00  0.00    +0.000 OA
BRANCH  21  30
ATOM     22  O   UNL     1     113.247 125.241 137.876  0.00  0.00    +0.000 OA
ATOM     23  O   UNL     1     111.670 124.108 136.343  0.00  0.00    +0.000 OA
ATOM     24  O   UNL     1     113.292 124.039 136.055  0.00  0.00    +0.000 OA
ATOM     25  O   UNL     1     111.098 124.932 137.653  0.00  0.00    +0.000 OA
ATOM     26  C   UNL     1     112.195 124.485 136.854  0.00  0.00    +0.000 C 
ATOM     27  C   UNL     1     113.007 124.451 136.710  0.00  0.00    +0.000 C 
ATOM     28  C   UNL     1     111.909 124.898 137.509  0.00  0.00    +0.000 C 
ATOM     29  C   UNL     1     113.533 124.829 137.221  0.00  0.00    +0.000 C 
ATOM     30  C   UNL     1     112.435 125.276 138.020  0.00  0.00    +0.000 C 
BRANCH  29  32
ATOM     31  O   UNL     1     114.857 124.531 137.667  0.00  0.00    +0.000 OA
ATOM     32  C   UNL     1     114.344 124.794 137.077  0.00  0.00    +0.000 C 
ENDBRANCH  29  32
ENDBRANCH  21  30
ENDBRANCH   4  21
BRANCH   5  33
ATOM     33  O   UNL     1     113.969 129.898 139.449  0.00  0.00    +0.000 OA
BRANCH  33  41
ATOM     34  O   UNL     1     113.031 130.116 140.503  0.00  0.00    +0.000 OA
ATOM     35  O   UNL     1     114.701 131.486 141.710  0.00  0.00    +0.000 OA
ATOM     36  O   UNL     1     115.084 130.811 140.253  0.00  0.00    +0.000 OA
ATOM     37  O   UNL     1     113.204 131.247 142.361  0.00  0.00    +0.000 OA
ATOM     38  C   UNL     1     114.144 131.030 141.308  0.00  0.00    +0.000 C 
ATOM     39  C   UNL     1     114.336 130.692 140.579  0.00  0.00    +0.000 C 
ATOM     40  C   UNL     1     113.396 130.910 141.633  0.00  0.00    +0.000 C 
ATOM     41  C   UNL     1     113.779 130.236 140.177  0.00  0.00    +0.000 C 
ATOM     42  C   UNL     1     112.839 130.453 141.231  0.00  0.00    +0.000 C 
ENDBRANCH  33  41
ENDBRANCH   5  33
TORSDOF 6
ENDMDL
MODEL 4
REMARK VINA RESULT:     -10.1      1.548      2.701
REMARK  Name = 14054266
REMARK  6 active torsions:
REMARK  status: ('A' for Active; 'I' for Inactive)
REMARK    1  A    between atoms: O_2  and  C_21
REMARK    2  A    between atoms: O_2  and  C_28
REMARK    3  A    between atoms: O_7  and  C_26
REMARK    4  A    between atoms: O_7  and  C_29
REMARK    5  A    between atoms: C_20  and  C_24
REMARK    6  A    between atoms: C_35  and  C_37
REMARK                            x       y       z     vdW  Elec       q    Type
REMARK                         _______ _______ _______ _____ _____    ______ ____
ROOT
ATOM      1  O   UNL     1     113.001 128.539 138.110  0.00  0.00    +0.000 OA
ATOM      2  O   UNL     1     112.912 126.398 140.048  0.00  0.00    +0.000 OA
ATOM      3  O   UNL     1     112.277 126.263 138.760  0.00  0.00    +0.000 OA
ATOM      4  C   UNL     1     113.865 128.421 140.167  0.00  0.00    +0.000 A 
ATOM      5  C   UNL     1     112.321 127.321 137.801  0.00  0.00    +0.000 A 
ATOM      6  C   UNL     1     112.957 127.481 139.069  0.00  0.00    +0.000 A 
ATOM      7  C   UNL     1     113.656 128.728 139.392  0.00  0.00    +0.000 A 
ATOM      8  C   UNL     1     113.199 128.240 138.853  0.00  0.00    +0.000 A 
ATOM      9  C   UNL     1     113.614 127.631 140.393  0.00  0.00    +0.000 A 
ATOM     10  C   UNL     1     112.518 127.021 138.543  0.00  0.00    +0.000 A 
ATOM     11  C   UNL     1     112.562 128.080 137.584  0.00  0.00    +0.000 A 
ATOM     12  C   UNL     1     113.158 127.158 139.840  0.00  0.00    +0.000 A 
ENDROOT
BRANCH  11  15
ATOM     13  O   UNL     1     113.318 128.795 134.922  0.00  0.00    +0.000 OA
ATOM     14  O   UNL     1     111.771 129.277 134.612  0.00  0.00    +0.000 OA
ATOM     15  C   UNL     1     112.364 128.379 136.841  0.00  0.00    +0.000 A 
ATOM     16  C   UNL     1     112.940 128.438 136.253  0.00  0.00    +0.000 A 
ATOM     17  C   UNL     1     111.590 128.620 136.686  0.00  0.00    +0.000 A 
ATOM     18  C   UNL     1     112.743 128.737 135.510  0.00  0.00    +0.000 A 
ATOM     19  C   UNL     1     111.393 128.919 135.943  0.00  0.00    +0.000 A 
ATOM     20  C   UNL     1     111.969 128.977 135.355  0.00  0.00    +0.000 A 
ENDBRANCH  11  15
BRANCH   4  21
ATOM     21  O   UNL     1     114.305 128.883 140.692  0.00  0.00    +0.000 OA
BRANCH  21  30
ATOM     22  O   UNL     1     113.225 129.447 141.439  0.00  0.00    +0.000 OA
ATOM     23  O   UNL     1     114.364 131.643 141.429  0.00  0.00    +0.000 OA
ATOM     24  O   UNL     1     112.906 131.474 142.179  0.00  0.00    +0.000 OA
ATOM     25  O   UNL     1     115.065 130.348 140.686  0.00  0.00    +0.000 OA
ATOM     26  C   UNL     1     113.985 130.911 141.432  0.00  0.00    +0.000 C 
ATOM     27  C   UNL     1     113.255 130.826 141.807  0.00  0.00    +0.000 C 
ATOM     28  C   UNL     1     114.335 130.263 141.060  0.00  0.00    +0.000 C 
ATOM     29  C   UNL     1     112.875 130.094 141.810  0.00  0.00    +0.000 C 
ATOM     30  C   UNL     1     113.955 129.530 141.063  0.00  0.00    +0.000 C 
BRANCH  29  32
ATOM     31  O   UNL     1     112.049 129.446 142.780  0.00  0.00    +0.000 OA
ATOM     32  C   UNL     1     112.146 130.010 142.185  0.00  0.00    +0.000 C 
ENDBRANCH  29  32
ENDBRANCH  21  30
ENDBRANCH   4  21
BRANCH   5  33
ATOM     33  O   UNL     1     111.882 126.862 137.274  0.00  0.00    +0.000 OA
BRANCH  33  41
ATOM     34  O   UNL     1     112.984 126.005 136.974  0.00  0.00    +0.000 OA
ATOM     35  O   UNL     1     111.413 124.192 136.367  0.00  0.00    +0.000 OA
ATOM     36  O   UNL     1     110.833 125.654 136.870  0.00  0.00    +0.000 OA
ATOM     37  O   UNL     1     113.040 123.940 136.269  0.00  0.00    +0.000 OA
ATOM     38  C   UNL     1     111.937 124.797 136.570  0.00  0.00    +0.000 C 
ATOM     39  C   UNL     1     111.646 125.527 136.821  0.00  0.00    +0.000 C 
ATOM     40  C   UNL     1     112.750 124.671 136.520  0.00  0.00    +0.000 C 
ATOM     41  C   UNL     1     112.170 126.131 137.023  0.00  0.00    +0.000 C 
ATOM     42  C   UNL     1     113.274 125.275 136.723  0.00  0.00    +0.000 C 
ENDBRANCH  33  41
ENDBRANCH   5  33
TORSDOF 6
ENDMDL
MODEL 5
REMARK VINA RESULT:     -10.0      2.629      4.661
REMARK  Name = 14054266
REMARK  6 active torsions:
REMARK  status: ('A' for Active; 'I' for Inactive)
REMARK    1  A    between atoms: O_2  and  C_21
REMARK    2  A    between atoms: O_2  and  C_28
REMARK    3  A    between atoms: O_7  and  C_26
REMARK    4  A    between atoms: O_7  and  C_29
REMARK    5  A    between atoms: C_20  and  C_24
REMARK    6  A    between atoms: C_35  and  C_37
REMARK                            x       y       z     vdW  Elec       q    Type
REMARK                         _______ _______ _______ _____ _____    ______ ____
ROOT
ATOM      1  O   UNL     1     111.163 127.870 138.305  0.00  0.00    +0.000 OA
ATOM      2  O   UNL     1     110.569 127.264 135.543  0.00  0.00    +0.000 OA
ATOM      3  O   UNL     1     111.665 126.622 136.227  0.00  0.00    +0.000 OA
ATOM      4  C   UNL     1     109.563 128.671 136.966  0.00  0.00    +0.000 A 
ATOM      5  C   UNL     1     111.959 126.921 137.593  0.00  0.00    +0.000 A 
ATOM      6  C   UNL     1     110.868 127.571 136.939  0.00  0.00    +0.000 A 
ATOM      7  C   UNL     1     110.048 128.545 137.664  0.00  0.00    +0.000 A 
ATOM      8  C   UNL     1     110.700 127.987 137.632  0.00  0.00    +0.000 A 
ATOM      9  C   UNL     1     109.737 128.239 136.245  0.00  0.00    +0.000 A 
ATOM     10  C   UNL     1     111.498 127.038 136.919  0.00  0.00    +0.000 A 
ATOM     11  C   UNL     1     111.792 127.337 138.286  0.00  0.00    +0.000 A 
ATOM     12  C   UNL     1     110.394 127.685 136.231  0.00  0.00    +0.000 A 
ENDROOT
BRANCH  11  15
ATOM     13  O   UNL     1     112.125 126.216 140.894  0.00  0.00    +0.000 OA
ATOM     14  O   UNL     1     113.640 126.866 140.979  0.00  0.00    +0.000 OA
ATOM     15  C   UNL     1     112.254 127.219 138.959  0.00  0.00    +0.000 A 
ATOM     16  C   UNL     1     111.959 126.777 139.590  0.00  0.00    +0.000 A 
ATOM     17  C   UNL     1     113.011 127.544 139.001  0.00  0.00    +0.000 A 
ATOM     18  C   UNL     1     112.420 126.659 140.263  0.00  0.00    +0.000 A 
ATOM     19  C   UNL     1     113.472 127.426 139.675  0.00  0.00    +0.000 A 
ATOM     20  C   UNL     1     113.177 126.984 140.305  0.00  0.00    +0.000 A 
ENDBRANCH  11  15
BRANCH   4  21
ATOM     21  O   UNL     1     108.934 129.206 136.988  0.00  0.00    +0.000 OA
BRANCH  21  30
ATOM     22  O   UNL     1     109.669 130.412 136.774  0.00  0.00    +0.000 OA
ATOM     23  O   UNL     1     107.899 131.220 135.246  0.00  0.00    +0.000 OA
ATOM     24  O   UNL     1     109.224 132.157 135.541  0.00  0.00    +0.000 OA
ATOM     25  O   UNL     1     107.753 129.745 135.969  0.00  0.00    +0.000 OA
ATOM     26  C   UNL     1     108.489 130.951 135.755  0.00  0.00    +0.000 C 
ATOM     27  C   UNL     1     109.152 131.419 135.903  0.00  0.00    +0.000 C 
ATOM     28  C   UNL     1     108.416 130.213 136.117  0.00  0.00    +0.000 C 
ATOM     29  C   UNL     1     109.742 131.150 136.413  0.00  0.00    +0.000 C 
ATOM     30  C   UNL     1     109.007 129.943 136.627  0.00  0.00    +0.000 C 
BRANCH  29  32
ATOM     31  O   UNL     1     110.625 131.789 137.337  0.00  0.00    +0.000 OA
ATOM     32  C   UNL     1     110.404 131.618 136.560  0.00  0.00    +0.000 C 
ENDBRANCH  29  32
ENDBRANCH  21  30
ENDBRANCH   4  21
BRANCH   5  33
ATOM     33  O   UNL     1     112.588 126.388 137.573  0.00  0.00    +0.000 OA
BRANCH  33  41
ATOM     34  O   UNL     1     111.736 125.242 137.599  0.00  0.00    +0.000 OA
ATOM     35  O   UNL     1     113.476 123.918 136.440  0.00  0.00    +0.000 OA
ATOM     36  O   UNL     1     113.749 125.506 136.801  0.00  0.00    +0.000 OA
ATOM     37  O   UNL     1     112.042 123.214 136.853  0.00  0.00    +0.000 OA
ATOM     38  C   UNL     1     112.896 124.360 136.827  0.00  0.00    +0.000 C 
ATOM     39  C   UNL     1     113.033 125.153 137.007  0.00  0.00    +0.000 C 
ATOM     40  C   UNL     1     112.179 124.008 137.033  0.00  0.00    +0.000 C 
ATOM     41  C   UNL     1     112.453 125.595 137.393  0.00  0.00    +0.000 C 
ATOM     42  C   UNL     1     111.599 124.449 137.420  0.00  0.00    +0.000 C 
ENDBRANCH  33  41
ENDBRANCH   5  33
TORSDOF 6
ENDMDL
MODEL 6
REMARK VINA RESULT:      -9.9      2.741      5.903
REMARK  Name = 14054266
REMARK  6 active torsions:
REMARK  status: ('A' for Active; 'I' for Inactive)
REMARK    1  A    between atoms: O_2  and  C_21
REMARK    2  A    between atoms: O_2  and  C_28
REMARK    3  A    between atoms: O_7  and  C_26
REMARK    4  A    between atoms: O_7  and  C_29
REMARK    5  A    between atoms: C_20  and  C_24
REMARK    6  A    between atoms: C_35  and  C_37
REMARK                            x       y       z     vdW  Elec       q    Type
REMARK                         _______ _______ _______ _____ _____    ______ ____
ROOT
ATOM      1  O   UNL     1     110.923 128.613 136.758  0.00  0.00    +0.000 OA
ATOM      2  O   UNL     1     111.717 127.761 139.402  0.00  0.00    +0.000 OA
ATOM      3  O   UNL     1     110.602 128.655 139.212  0.00  0.00    +0.000 OA
ATOM      4  C   UNL     1     112.578 127.254 137.398  0.00  0.00    +0.000 A 
ATOM      5  C   UNL     1     110.208 129.077 137.904  0.00  0.00    +0.000 A 
ATOM      6  C   UNL     1     111.317 128.191 138.065  0.00  0.00    +0.000 A 
ATOM      7  C   UNL     1     112.054 127.711 136.893  0.00  0.00    +0.000 A 
ATOM      8  C   UNL     1     111.424 128.176 137.247  0.00  0.00    +0.000 A 
ATOM      9  C   UNL     1     112.467 127.269 138.249  0.00  0.00    +0.000 A 
ATOM     10  C   UNL     1     110.709 128.641 138.394  0.00  0.00    +0.000 A 
ATOM     11  C   UNL     1     110.316 129.063 137.087  0.00  0.00    +0.000 A 
ATOM     12  C   UNL     1     111.832 127.740 138.585  0.00  0.00    +0.000 A 
ENDROOT
BRANCH  11  15
ATOM     13  O   UNL     1     107.798 129.378 135.770  0.00  0.00    +0.000 OA
ATOM     14  O   UNL     1     108.312 130.809 135.130  0.00  0.00    +0.000 OA
ATOM     15  C   UNL     1     109.815 129.500 136.597  0.00  0.00    +0.000 A 
ATOM     16  C   UNL     1     109.057 129.221 136.428  0.00  0.00    +0.000 A 
ATOM     17  C   UNL     1     110.071 130.216 136.277  0.00  0.00    +0.000 A 
ATOM     18  C   UNL     1     108.556 129.657 135.939  0.00  0.00    +0.000 A 
ATOM     19  C   UNL     1     109.570 130.652 135.789  0.00  0.00    +0.000 A 
ATOM     20  C   UNL     1     108.813 130.372 135.620  0.00  0.00    +0.000 A 
ENDBRANCH  11  15
BRANCH   4  21
ATOM     21  O   UNL     1     113.186 126.804 137.066  0.00  0.00    +0.000 OA
BRANCH  21  30
ATOM     22  O   UNL     1     112.403 125.641 136.791  0.00  0.00    +0.000 OA
ATOM     23  O   UNL     1     114.332 124.205 137.372  0.00  0.00    +0.000 OA
ATOM     24  O   UNL     1     112.907 123.521 136.904  0.00  0.00    +0.000 OA
ATOM     25  O   UNL     1     114.473 125.847 137.453  0.00  0.00    +0.000 OA
ATOM     26  C   UNL     1     113.690 124.683 137.178  0.00  0.00    +0.000 C 
ATOM     27  C   UNL     1     112.976 124.342 136.944  0.00  0.00    +0.000 C 
ATOM     28  C   UNL     1     113.759 125.505 137.219  0.00  0.00    +0.000 C 
ATOM     29  C   UNL     1     112.333 124.820 136.751  0.00  0.00    +0.000 C 
ATOM     30  C   UNL     1     113.116 125.984 137.025  0.00  0.00    +0.000 C 
BRANCH  29  32
ATOM     31  O   UNL     1     111.259 124.715 135.814  0.00  0.00    +0.000 OA
ATOM     32  C   UNL     1     111.620 124.478 136.517  0.00  0.00    +0.000 C 
ENDBRANCH  29  32
ENDBRANCH  21  30
ENDBRANCH   4  21
BRANCH   5  33
ATOM     33  O   UNL     1     109.601 129.528 138.233  0.00  0.00    +0.000 OA
BRANCH  33  41
ATOM     34  O   UNL     1     110.502 130.519 138.728  0.00  0.00    +0.000 OA
ATOM     35  O   UNL     1     108.851 131.159 140.457  0.00  0.00    +0.000 OA
ATOM     36  O   UNL     1     108.500 129.954 139.386  0.00  0.00    +0.000 OA
ATOM     37  O   UNL     1     110.304 131.938 140.375  0.00  0.00    +0.000 OA
ATOM     38  C   UNL     1     109.402 130.946 139.881  0.00  0.00    +0.000 C 
ATOM     39  C   UNL     1     109.225 130.343 139.346  0.00  0.00    +0.000 C 
ATOM     40  C   UNL     1     110.128 131.335 139.839  0.00  0.00    +0.000 C 
ATOM     41  C   UNL     1     109.776 130.130 138.769  0.00  0.00    +0.000 C 
ATOM     42  C   UNL     1     110.678 131.122 139.263  0.00  0.00    +0.000 C 
ENDBRANCH  33  41
ENDBRANCH   5  33
TORSDOF 6
ENDMDL
MODEL 7
REMARK VINA RESULT:      -9.8      2.506      4.898
REMARK  Name = 14054266
REMARK  6 active torsions:
REMARK  status: ('A' for Active; 'I' for Inactive)
REMARK    1  A    between atoms: O_2  and  C_21
REMARK    2  A    between atoms: O_2  and  C_28
REMARK    3  A    between atoms: O_7  and  C_26
REMARK    4  A    between atoms: O_7  and  C_29
REMARK    5  A    between atoms: C_20  and  C_24
REMARK    6  A    between atoms: C_35  and  C_37
REMARK                            x       y       z     vdW  Elec       q    Type
REMARK                         _______ _______ _______ _____ _____    ______ ____
ROOT
ATOM      1  O   UNL     1     112.375 127.771 136.663  0.00  0.00    +0.000 OA
ATOM      2  O   UNL     1     112.009 129.873 138.611  0.00  0.00    +0.000 OA
ATOM      3  O   UNL     1     112.700 128.654 138.953  0.00  0.00    +0.000 OA
ATOM      4  C   UNL     1     111.368 129.756 136.468  0.00  0.00    +0.000 A 
ATOM      5  C   UNL     1     112.882 127.614 137.990  0.00  0.00    +0.000 A 
ATOM      6  C   UNL     1     112.194 128.811 137.626  0.00  0.00    +0.000 A 
ATOM      7  C   UNL     1     111.672 128.978 136.266  0.00  0.00    +0.000 A 
ATOM      8  C   UNL     1     112.085 128.517 136.862  0.00  0.00    +0.000 A 
ATOM      9  C   UNL     1     111.481 130.062 137.262  0.00  0.00    +0.000 A 
ATOM     10  C   UNL     1     112.592 128.360 138.190  0.00  0.00    +0.000 A 
ATOM     11  C   UNL     1     112.774 127.319 137.227  0.00  0.00    +0.000 A 
ATOM     12  C   UNL     1     111.896 129.587 137.845  0.00  0.00    +0.000 A 
ENDROOT
BRANCH  11  15
ATOM     13  O   UNL     1     112.321 124.545 136.713  0.00  0.00    +0.000 OA
ATOM     14  O   UNL     1     113.933 124.334 136.432  0.00  0.00    +0.000 OA
ATOM     15  C   UNL     1     113.064 126.573 137.028  0.00  0.00    +0.000 A 
ATOM     16  C   UNL     1     112.548 125.932 136.970  0.00  0.00    +0.000 A 
ATOM     17  C   UNL     1     113.870 126.468 136.888  0.00  0.00    +0.000 A 
ATOM     18  C   UNL     1     112.837 125.186 136.771  0.00  0.00    +0.000 A 
ATOM     19  C   UNL     1     114.159 125.722 136.689  0.00  0.00    +0.000 A 
ATOM     20  C   UNL     1     113.643 125.080 136.631  0.00  0.00    +0.000 A 
ENDBRANCH  11  15
BRANCH   4  21
ATOM     21  O   UNL     1     110.970 130.206 135.902  0.00  0.00    +0.000 OA
BRANCH  21  30
ATOM     22  O   UNL     1     109.735 129.489 135.849  0.00  0.00    +0.000 OA
ATOM     23  O   UNL     1     108.493 131.629 135.872  0.00  0.00    +0.000 OA
ATOM     24  O   UNL     1     107.672 130.200 135.811  0.00  0.00    +0.000 OA
ATOM     25  O   UNL     1     110.142 131.633 135.917  0.00  0.00    +0.000 OA
ATOM     26  C   UNL     1     108.906 130.916 135.864  0.00  0.00    +0.000 C 
ATOM     27  C   UNL     1     108.496 130.201 135.834  0.00  0.00    +0.000 C 
ATOM     28  C   UNL     1     109.732 130.918 135.887  0.00  0.00    +0.000 C 
ATOM     29  C   UNL     1     108.911 129.488 135.826  0.00  0.00    +0.000 C 
ATOM     30  C   UNL     1     110.146 130.204 135.879  0.00  0.00    +0.000 C 
BRANCH  29  32
ATOM     31  O   UNL     1     108.572 128.229 136.411  0.00  0.00    +0.000 OA
ATOM     32  C   UNL     1     108.500 128.773 135.795  0.00  0.00    +0.000 C 
ENDBRANCH  29  32
ENDBRANCH  21  30
ENDBRANCH   4  21
BRANCH   5  33
ATOM     33  O   UNL     1     113.280 127.162 138.554  0.00  0.00    +0.000 OA
BRANCH  33  41
ATOM     34  O   UNL     1     112.091 126.828 139.271  0.00  0.00    +0.000 OA
ATOM     35  O   UNL     1     113.408 126.611 141.356  0.00  0.00    +0.000 OA
ATOM     36  O   UNL     1     114.159 127.018 139.943  0.00  0.00    +0.000 OA
ATOM     37  O   UNL     1     111.779 126.348 141.378  0.00  0.00    +0.000 OA
ATOM     38  C   UNL     1     112.969 126.683 140.661  0.00  0.00    +0.000 C 
ATOM     39  C   UNL     1     113.345 126.887 139.955  0.00  0.00    +0.000 C 
ATOM     40  C   UNL     1     112.155 126.552 140.672  0.00  0.00    +0.000 C 
ATOM     41  C   UNL     1     112.906 126.959 139.260  0.00  0.00    +0.000 C 
ATOM     42  C   UNL     1     111.716 126.624 139.977  0.00  0.00    +0.000 C 
ENDBRANCH  33  41
ENDBRANCH   5  33
TORSDOF 6
ENDMDL
MODEL 8
REMARK VINA RESULT:      -9.8      2.728      4.528
REMARK  Name = 14054266
REMARK  6 active torsions:
REMARK  status: ('A' for Active; 'I' for Inactive)
REMARK    1  A    between atoms: O_2  and  C_21
REMARK    2  A    between atoms: O_2  and  C_28
REMARK    3  A    between atoms: O_7  and  C_26
REMARK    4  A    between atoms: O_7  and  C_29
REMARK    5  A    between atoms: C_20  and  C_24
REMARK    6  A    between atoms: C_35  and  C_37
REMARK                            x       y       z     vdW  Elec       q    Type
REMARK                         _______ _______ _______ _____ _____    ______ ____
ROOT
ATOM      1  O   UNL     1     112.150 128.450 138.198  0.00  0.00    +0.000 OA
ATOM      2  O   UNL     1     112.512 128.305 135.335  0.00  0.00    +0.000 OA
ATOM      3  O   UNL     1     112.913 127.216 136.192  0.00  0.00    +0.000 OA
ATOM      4  C   UNL     1     111.647 129.934 136.605  0.00  0.00    +0.000 A 
ATOM      5  C   UNL     1     112.735 127.287 137.608  0.00  0.00    +0.000 A 
ATOM      6  C   UNL     1     112.329 128.379 136.782  0.00  0.00    +0.000 A 
ATOM      7  C   UNL     1     111.729 129.574 137.381  0.00  0.00    +0.000 A 
ATOM      8  C   UNL     1     112.074 128.791 137.450  0.00  0.00    +0.000 A 
ATOM      9  C   UNL     1     111.912 129.506 135.909  0.00  0.00    +0.000 A 
ATOM     10  C   UNL     1     112.659 127.627 136.860  0.00  0.00    +0.000 A 
ATOM     11  C   UNL     1     112.481 127.698 138.276  0.00  0.00    +0.000 A 
ATOM     12  C   UNL     1     112.255 128.724 135.998  0.00  0.00    +0.000 A 
ENDROOT
BRANCH  11  15
ATOM     13  O   UNL     1     111.314 126.364 140.519  0.00  0.00    +0.000 OA
ATOM     14  O   UNL     1     112.784 126.334 141.266  0.00  0.00    +0.000 OA
ATOM     15  C   UNL     1     112.557 127.357 139.024  0.00  0.00    +0.000 A 
ATOM     16  C   UNL     1     111.898 127.031 139.398  0.00  0.00    +0.000 A 
ATOM     17  C   UNL     1     113.292 127.342 139.398  0.00  0.00    +0.000 A 
ATOM     18  C   UNL     1     111.973 126.690 140.145  0.00  0.00    +0.000 A 
ATOM     19  C   UNL     1     113.367 127.001 140.145  0.00  0.00    +0.000 A 
ATOM     20  C   UNL     1     112.708 126.675 140.518  0.00  0.00    +0.000 A 
ENDBRANCH  11  15
BRANCH   4  21
ATOM     21  O   UNL     1     111.316 130.687 136.529  0.00  0.00    +0.000 OA
BRANCH  21  30
ATOM     22  O   UNL     1     109.967 130.267 136.321  0.00  0.00    +0.000 OA
ATOM     23  O   UNL     1     109.163 132.182 137.665  0.00  0.00    +0.000 OA
ATOM     24  O   UNL     1     108.082 131.124 137.010  0.00  0.00    +0.000 OA
ATOM     25  O   UNL     1     110.780 131.965 137.425  0.00  0.00    +0.000 OA
ATOM     26  C   UNL     1     109.430 131.544 137.218  0.00  0.00    +0.000 C 
ATOM     27  C   UNL     1     108.890 131.014 136.890  0.00  0.00    +0.000 C 
ATOM     28  C   UNL     1     110.240 131.435 137.097  0.00  0.00    +0.000 C 
ATOM     29  C   UNL     1     109.158 130.375 136.441  0.00  0.00    +0.000 C 
ATOM     30  C   UNL     1     110.508 130.796 136.649  0.00  0.00    +0.000 C 
BRANCH  29  32
ATOM     31  O   UNL     1     108.632 129.689 135.304  0.00  0.00    +0.000 OA
ATOM     32  C   UNL     1     108.618 129.846 136.114  0.00  0.00    +0.000 C 
ENDBRANCH  29  32
ENDBRANCH  21  30
ENDBRANCH   4  21
BRANCH   5  33
ATOM     33  O   UNL     1     113.065 126.535 137.687  0.00  0.00    +0.000 OA
BRANCH  33  41
ATOM     34  O   UNL     1     111.905 125.884 137.167  0.00  0.00    +0.000 OA
ATOM     35  O   UNL     1     113.297 123.965 136.459  0.00  0.00    +0.000 OA
ATOM     36  O   UNL     1     113.994 125.256 137.215  0.00  0.00    +0.000 OA
ATOM     37  O   UNL     1     111.672 123.954 136.176  0.00  0.00    +0.000 OA
ATOM     38  C   UNL     1     112.833 124.604 136.695  0.00  0.00    +0.000 C 
ATOM     39  C   UNL     1     113.182 125.250 137.073  0.00  0.00    +0.000 C 
ATOM     40  C   UNL     1     112.020 124.599 136.554  0.00  0.00    +0.000 C 
ATOM     41  C   UNL     1     112.718 125.890 137.309  0.00  0.00    +0.000 C 
ATOM     42  C   UNL     1     111.556 125.239 136.790  0.00  0.00    +0.000 C 
ENDBRANCH  33  41
ENDBRANCH   5  33
TORSDOF 6
ENDMDL
MODEL 9
REMARK VINA RESULT:      -9.8      3.229      5.147
REMARK  Name = 14054266
REMARK  6 active torsions:
REMARK  status: ('A' for Active; 'I' for Inactive)
REMARK    1  A    between atoms: O_2  and  C_21
REMARK    2  A    between atoms: O_2  and  C_28
REMARK    3  A    between atoms: O_7  and  C_26
REMARK    4  A    between atoms: O_7  and  C_29
REMARK    5  A    between atoms: C_20  and  C_24
REMARK    6  A    between atoms: C_35  and  C_37
REMARK                            x       y       z     vdW  Elec       q    Type
REMARK                         _______ _______ _______ _____ _____    ______ ____
ROOT
ATOM      1  O   UNL     1     111.964 129.378 135.579  0.00  0.00    +0.000 OA
ATOM      2  O   UNL     1     110.313 127.071 136.123  0.00  0.00    +0.000 OA
ATOM      3  O   UNL     1     111.750 126.993 136.208  0.00  0.00    +0.000 OA
ATOM      4  C   UNL     1     109.741 129.156 135.539  0.00  0.00    +0.000 A 
ATOM      5  C   UNL     1     112.568 128.134 135.939  0.00  0.00    +0.000 A 
ATOM      6  C   UNL     1     111.147 128.237 135.848  0.00  0.00    +0.000 A 
ATOM      7  C   UNL     1     110.522 129.511 135.479  0.00  0.00    +0.000 A 
ATOM      8  C   UNL     1     111.217 129.032 135.638  0.00  0.00    +0.000 A 
ATOM      9  C   UNL     1     109.667 128.329 135.757  0.00  0.00    +0.000 A 
ATOM     10  C   UNL     1     111.822 127.788 135.998  0.00  0.00    +0.000 A 
ATOM     11  C   UNL     1     112.640 128.928 135.730  0.00  0.00    +0.000 A 
ATOM     12  C   UNL     1     110.374 127.866 135.912  0.00  0.00    +0.000 A 
ENDROOT
BRANCH  11  15
ATOM     13  O   UNL     1     114.674 130.624 136.804  0.00  0.00    +0.000 OA
ATOM     14  O   UNL     1     115.627 130.310 135.494  0.00  0.00    +0.000 OA
ATOM     15  C   UNL     1     113.387 129.274 135.671  0.00  0.00    +0.000 A 
ATOM     16  C   UNL     1     113.657 129.776 136.266  0.00  0.00    +0.000 A 
ATOM     17  C   UNL     1     113.863 129.117 135.016  0.00  0.00    +0.000 A 
ATOM     18  C   UNL     1     114.403 130.122 136.208  0.00  0.00    +0.000 A 
ATOM     19  C   UNL     1     114.610 129.462 134.958  0.00  0.00    +0.000 A 
ATOM     20  C   UNL     1     114.880 129.965 135.553  0.00  0.00    +0.000 A 
ENDBRANCH  11  15
BRANCH   4  21
ATOM     21  O   UNL     1     109.067 129.608 135.388  0.00  0.00    +0.000 OA
BRANCH  21  30
ATOM     22  O   UNL     1     109.006 130.115 136.722  0.00  0.00    +0.000 OA
ATOM     23  O   UNL     1     107.809 132.120 135.905  0.00  0.00    +0.000 OA
ATOM     24  O   UNL     1     108.147 131.960 137.511  0.00  0.00    +0.000 OA
ATOM     25  O   UNL     1     108.268 130.945 134.843  0.00  0.00    +0.000 OA
ATOM     26  C   UNL     1     108.208 131.453 136.177  0.00  0.00    +0.000 C 
ATOM     27  C   UNL     1     108.377 131.371 136.980  0.00  0.00    +0.000 C 
ATOM     28  C   UNL     1     108.438 130.864 135.646  0.00  0.00    +0.000 C 
ATOM     29  C   UNL     1     108.776 130.703 137.253  0.00  0.00    +0.000 C 
ATOM     30  C   UNL     1     108.837 130.195 135.918  0.00  0.00    +0.000 C 
BRANCH  29  32
ATOM     31  O   UNL     1     108.620 129.998 138.486  0.00  0.00    +0.000 OA
ATOM     32  C   UNL     1     108.945 130.622 138.056  0.00  0.00    +0.000 C 
ENDBRANCH  29  32
ENDBRANCH  21  30
ENDBRANCH   4  21
BRANCH   5  33
ATOM     33  O   UNL     1     113.243 127.684 136.090  0.00  0.00    +0.000 OA
BRANCH  33  41
ATOM     34  O   UNL     1     113.018 127.654 137.499  0.00  0.00    +0.000 OA
ATOM     35  O   UNL     1     114.263 125.520 137.654  0.00  0.00    +0.000 OA
ATOM     36  O   UNL     1     114.074 126.262 136.191  0.00  0.00    +0.000 OA
ATOM     37  O   UNL     1     113.623 126.202 139.013  0.00  0.00    +0.000 OA
ATOM     38  C   UNL     1     113.848 126.232 137.602  0.00  0.00    +0.000 C 
ATOM     39  C   UNL     1     113.754 126.602 136.871  0.00  0.00    +0.000 C 
ATOM     40  C   UNL     1     113.528 126.572 138.282  0.00  0.00    +0.000 C 
ATOM     41  C   UNL     1     113.339 127.313 136.820  0.00  0.00    +0.000 C 
ATOM     42  C   UNL     1     113.113 127.284 138.230  0.00  0.00    +0.000 C 
ENDBRANCH  33  41
ENDBRANCH   5  33
TORSDOF 6
ENDMDL
MODEL 10
REMARK VINA RESULT:      -9.7      2.361      5.706
REMARK  Name = 14054266
REMARK  6 active torsions:
REMARK  status: ('A' for Active; 'I' for Inactive)
REMARK    1  A    between atoms: O_2  and  C_21
REMARK    2  A    between atoms: O_2  and  C_28
REMARK    3  A    between atoms: O_7  and  C_26
REMARK    4  A    between atoms: O_7  and  C_29
REMARK    5  A    between atoms: C_20  and  C_24
REMARK    6  A    between atoms: C_35  and  C_37
REMARK                            x       y       z     vdW  Elec       q    Type
REMARK                         _______ _______ _______ _____ _____    ______ ____
ROOT
ATOM      1  O   UNL     1     113.029 128.517 138.454  0.00  0.00    +0.000 OA
ATOM      2  O   UNL     1     111.550 128.938 136.009  0.00  0.00    +0.000 OA
ATOM      3  O   UNL     1     111.391 129.823 137.136  0.00  0.00    +0.000 OA
ATOM      4  C   UNL     1     113.038 127.354 136.547  0.00  0.00    +0.000 A 
ATOM      5  C   UNL     1     112.122 129.616 138.346  0.00  0.00    +0.000 A 
ATOM      6  C   UNL     1     112.298 128.725 137.244  0.00  0.00    +0.000 A 
ATOM      7  C   UNL     1     113.227 127.596 137.349  0.00  0.00    +0.000 A 
ATOM      8  C   UNL     1     112.844 128.289 137.683  0.00  0.00    +0.000 A 
ATOM      9  C   UNL     1     112.470 127.806 136.089  0.00  0.00    +0.000 A 
ATOM     10  C   UNL     1     111.937 129.388 137.576  0.00  0.00    +0.000 A 
ATOM     11  C   UNL     1     112.668 129.181 138.786  0.00  0.00    +0.000 A 
ATOM     12  C   UNL     1     112.097 128.496 136.440  0.00  0.00    +0.000 A 
ENDROOT
BRANCH  11  15
ATOM     13  O   UNL     1     112.417 128.801 141.607  0.00  0.00    +0.000 OA
ATOM     14  O   UNL     1     113.407 130.095 141.869  0.00  0.00    +0.000 OA
ATOM     15  C   UNL     1     112.853 129.410 139.557  0.00  0.00    +0.000 A 
ATOM     16  C   UNL     1     112.543 128.992 140.197  0.00  0.00    +0.000 A 
ATOM     17  C   UNL     1     113.348 130.056 139.688  0.00  0.00    +0.000 A 
ATOM     18  C   UNL     1     112.727 129.219 140.967  0.00  0.00    +0.000 A 
ATOM     19  C   UNL     1     113.532 130.284 140.458  0.00  0.00    +0.000 A 
ATOM     20  C   UNL     1     113.222 129.866 141.098  0.00  0.00    +0.000 A 
ENDBRANCH  11  15
BRANCH   4  21
ATOM     21  O   UNL     1     113.401 126.689 136.218  0.00  0.00    +0.000 OA
BRANCH  21  30
ATOM     22  O   UNL     1     112.323 125.755 136.299  0.00  0.00    +0.000 OA
ATOM     23  O   UNL     1     113.881 124.028 137.142  0.00  0.00    +0.000 OA
ATOM     24  O   UNL     1     112.284 123.670 136.942  0.00  0.00    +0.000 OA
ATOM     25  O   UNL     1     114.440 125.537 136.780  0.00  0.00    +0.000 OA
ATOM     26  C   UNL     1     113.362 124.603 136.861  0.00  0.00    +0.000 C 
ATOM     27  C   UNL     1     112.563 124.425 136.761  0.00  0.00    +0.000 C 
ATOM     28  C   UNL     1     113.641 125.359 136.680  0.00  0.00    +0.000 C 
ATOM     29  C   UNL     1     112.043 125.001 136.480  0.00  0.00    +0.000 C 
ATOM     30  C   UNL     1     113.122 125.935 136.399  0.00  0.00    +0.000 C 
BRANCH  29  32
ATOM     31  O   UNL     1     110.868 124.997 135.666  0.00  0.00    +0.000 OA
ATOM     32  C   UNL     1     111.245 124.822 136.380  0.00  0.00    +0.000 C 
ENDBRANCH  29  32
ENDBRANCH  21  30
ENDBRANCH   4  21
BRANCH   5  33
ATOM     33  O   UNL     1     111.761 130.280 138.678  0.00  0.00    +0.000 OA
BRANCH  33  41
ATOM     34  O   UNL     1     110.512 129.607 138.840  0.00  0.00    +0.000 OA
ATOM     35  O   UNL     1     109.337 131.785 138.836  0.00  0.00    +0.000 OA
ATOM     36  O   UNL     1     110.978 131.732 138.675  0.00  0.00    +0.000 OA
ATOM     37  O   UNL     1     108.479 130.385 139.000  0.00  0.00    +0.000 OA
ATOM     38  C   UNL     1     109.728 131.059 138.837  0.00  0.00    +0.000 C 
ATOM     39  C   UNL     1     110.549 131.033 138.757  0.00  0.00    +0.000 C 
ATOM     40  C   UNL     1     109.299 130.359 138.919  0.00  0.00    +0.000 C 
ATOM     41  C   UNL     1     110.941 130.307 138.758  0.00  0.00    +0.000 C 
ATOM     42  C   UNL     1     109.691 129.633 138.920  0.00  0.00    +0.000 C 
ENDBRANCH  33  41
ENDBRANCH   5  33
TORSDOF 6
ENDMDL
