MODEL 1
REMARK VINA RESULT:      -9.5      0.000      0.000
REMARK  Name = 14777890
REMARK  4 active torsions:
REMARK  status: ('A' for Active; 'I' for Inactive)
REMARK    1  A    between atoms: S_1  and  O_3
REMARK    2  A    between atoms: O_3  and  C_15
REMARK    3  A    between atoms: O_6  and  C_26
REMARK    4  A    between atoms: C_13  and  C_16
REMARK                            x       y       z     vdW  Elec       q    Type
REMARK                         _______ _______ _______ _____ _____    ______ ____
ROOT
ATOM      1  O   UNL     1     105.643 124.382 147.709  0.00  0.00    +0.000 OA
ATOM      2  O   UNL     1     108.162 125.605 146.997  0.00  0.00    +0.000 OA
ATOM      3  O   UNL     1     107.049 125.605 146.080  0.00  0.00    +0.000 OA
ATOM      4  O   UNL     1     107.847 124.343 149.612  0.00  0.00    +0.000 OA
ATOM      5  C   UNL     1     106.889 124.987 147.357  0.00  0.00    +0.000 A 
ATOM      6  C   UNL     1     105.334 124.593 146.973  0.00  0.00    +0.000 A 
ATOM      7  C   UNL     1     106.421 124.579 147.900  0.00  0.00    +0.000 A 
ATOM      8  C   UNL     1     105.802 125.001 146.430  0.00  0.00    +0.000 A 
ATOM      9  C   UNL     1     106.580 125.197 146.623  0.00  0.00    +0.000 A 
ATOM     10  C   UNL     1     107.701 125.197 147.546  0.00  0.00    +0.000 A 
ATOM     11  C   UNL     1     106.732 124.354 148.670  0.00  0.00    +0.000 A 
ATOM     12  C   UNL     1     108.029 124.981 148.310  0.00  0.00    +0.000 A 
ATOM     13  C   UNL     1     107.541 124.556 148.875  0.00  0.00    +0.000 A 
ENDROOT
BRANCH   6  15
ATOM     14  O   UNL     1     103.449 122.766 145.843  0.00  0.00    +0.000 OA
ATOM     15  C   UNL     1     104.556 124.396 146.781  0.00  0.00    +0.000 A 
ATOM     16  C   UNL     1     104.392 123.679 146.408  0.00  0.00    +0.000 A 
ATOM     17  C   UNL     1     103.942 124.916 146.964  0.00  0.00    +0.000 A 
ATOM     18  C   UNL     1     103.613 123.483 146.216  0.00  0.00    +0.000 A 
ATOM     19  C   UNL     1     103.164 124.719 146.772  0.00  0.00    +0.000 A 
ATOM     20  C   UNL     1     103.000 124.002 146.399  0.00  0.00    +0.000 A 
BRANCH  20  21
ATOM     21  O   UNL     1     102.221 123.806 146.208  0.00  0.00    +0.000 OA
ATOM     22  C   UNL     1     101.603 124.046 146.697  0.00  0.00    +0.000 C 
ENDBRANCH  20  21
ENDBRANCH   6  15
BRANCH   8  23
ATOM     23  O   UNL     1     105.493 125.211 145.695  0.00  0.00    +0.000 OA
BRANCH  23  24
ATOM     24  S   UNL     1     105.996 125.474 145.096  0.00  0.00    +0.000 S 
ATOM     25  O   UNL     1     106.499 125.736 144.497  0.00  0.00    +0.000 OA
ATOM     26  O   UNL     1     105.800 126.255 145.274  0.00  0.00    +0.000 OA
ATOM     27  O   UNL     1     106.192 124.692 144.918  0.00  0.00    +0.000 OA
ENDBRANCH  23  24
ENDBRANCH   8  23
TORSDOF 4
ENDMDL
MODEL 2
REMARK VINA RESULT:      -8.5     12.229     12.988
REMARK  Name = 14777890
REMARK  4 active torsions:
REMARK  status: ('A' for Active; 'I' for Inactive)
REMARK    1  A    between atoms: S_1  and  O_3
REMARK    2  A    between atoms: O_3  and  C_15
REMARK    3  A    between atoms: O_6  and  C_26
REMARK    4  A    between atoms: C_13  and  C_16
REMARK                            x       y       z     vdW  Elec       q    Type
REMARK                         _______ _______ _______ _____ _____    ______ ____
ROOT
ATOM      1  O   UNL     1     112.991 126.644 136.550  0.00  0.00    +0.000 OA
ATOM      2  O   UNL     1     112.231 123.860 136.414  0.00  0.00    +0.000 OA
ATOM      3  O   UNL     1     111.314 124.902 136.021  0.00  0.00    +0.000 OA
ATOM      4  O   UNL     1     114.895 124.595 137.359  0.00  0.00    +0.000 OA
ATOM      5  C   UNL     1     112.616 125.267 136.483  0.00  0.00    +0.000 A 
ATOM      6  C   UNL     1     112.247 126.860 136.264  0.00  0.00    +0.000 A 
ATOM      7  C   UNL     1     113.175 125.848 136.659  0.00  0.00    +0.000 A 
ATOM      8  C   UNL     1     111.688 126.280 136.088  0.00  0.00    +0.000 A 
ATOM      9  C   UNL     1     111.873 125.483 136.197  0.00  0.00    +0.000 A 
ATOM     10  C   UNL     1     112.796 124.434 136.593  0.00  0.00    +0.000 A 
ATOM     11  C   UNL     1     113.953 125.635 136.957  0.00  0.00    +0.000 A 
ATOM     12  C   UNL     1     113.568 124.203 136.890  0.00  0.00    +0.000 A 
ATOM     13  C   UNL     1     114.150 124.807 137.073  0.00  0.00    +0.000 A 
ENDROOT
BRANCH   6  15
ATOM     14  O   UNL     1     112.320 129.220 134.653  0.00  0.00    +0.000 OA
ATOM     15  C   UNL     1     112.064 127.657 136.154  0.00  0.00    +0.000 A 
ATOM     16  C   UNL     1     112.284 128.040 135.458  0.00  0.00    +0.000 A 
ATOM     17  C   UNL     1     111.659 128.071 136.743  0.00  0.00    +0.000 A 
ATOM     18  C   UNL     1     112.100 128.837 135.350  0.00  0.00    +0.000 A 
ATOM     19  C   UNL     1     111.475 128.868 136.634  0.00  0.00    +0.000 A 
ATOM     20  C   UNL     1     111.696 129.251 135.937  0.00  0.00    +0.000 A 
BRANCH  20  21
ATOM     21  O   UNL     1     111.511 130.048 135.829  0.00  0.00    +0.000 OA
ATOM     22  C   UNL     1     111.096 130.458 136.411  0.00  0.00    +0.000 C 
ENDBRANCH  20  21
ENDBRANCH   6  15
BRANCH   8  23
ATOM     23  O   UNL     1     110.946 126.496 135.802  0.00  0.00    +0.000 OA
BRANCH  23  24
ATOM     24  S   UNL     1     110.463 125.932 135.442  0.00  0.00    +0.000 S 
ATOM     25  O   UNL     1     109.979 125.369 135.082  0.00  0.00    +0.000 OA
ATOM     26  O   UNL     1     110.887 126.017 134.740  0.00  0.00    +0.000 OA
ATOM     27  O   UNL     1     110.038 125.848 136.144  0.00  0.00    +0.000 OA
ENDBRANCH  23  24
ENDBRANCH   8  23
TORSDOF 4
ENDMDL
MODEL 3
REMARK VINA RESULT:      -8.5      1.261      4.219
REMARK  Name = 14777890
REMARK  4 active torsions:
REMARK  status: ('A' for Active; 'I' for Inactive)
REMARK    1  A    between atoms: S_1  and  O_3
REMARK    2  A    between atoms: O_3  and  C_15
REMARK    3  A    between atoms: O_6  and  C_26
REMARK    4  A    between atoms: C_13  and  C_16
REMARK                            x       y       z     vdW  Elec       q    Type
REMARK                         _______ _______ _______ _____ _____    ______ ____
ROOT
ATOM      1  O   UNL     1     103.754 124.778 147.945  0.00  0.00    +0.000 OA
ATOM      2  O   UNL     1     101.936 123.860 145.895  0.00  0.00    +0.000 OA
ATOM      3  O   UNL     1     103.359 123.904 145.664  0.00  0.00    +0.000 OA
ATOM      4  O   UNL     1     100.893 124.719 148.485  0.00  0.00    +0.000 OA
ATOM      5  C   UNL     1     102.854 124.325 146.932  0.00  0.00    +0.000 A 
ATOM      6  C   UNL     1     104.391 124.649 147.437  0.00  0.00    +0.000 A 
ATOM      7  C   UNL     1     102.986 124.616 147.692  0.00  0.00    +0.000 A 
ATOM      8  C   UNL     1     104.260 124.357 146.676  0.00  0.00    +0.000 A 
ATOM      9  C   UNL     1     103.491 124.195 146.424  0.00  0.00    +0.000 A 
ATOM     10  C   UNL     1     102.058 124.152 146.658  0.00  0.00    +0.000 A 
ATOM     11  C   UNL     1     102.330 124.755 148.231  0.00  0.00    +0.000 A 
ATOM     12  C   UNL     1     101.391 124.284 147.182  0.00  0.00    +0.000 A 
ATOM     13  C   UNL     1     101.528 124.588 147.974  0.00  0.00    +0.000 A 
ENDROOT
BRANCH   6  15
ATOM     14  O   UNL     1     106.546 126.494 147.784  0.00  0.00    +0.000 OA
ATOM     15  C   UNL     1     105.160 124.811 147.689  0.00  0.00    +0.000 A 
ATOM     16  C   UNL     1     105.468 125.572 147.610  0.00  0.00    +0.000 A 
ATOM     17  C   UNL     1     105.619 124.212 148.022  0.00  0.00    +0.000 A 
ATOM     18  C   UNL     1     106.237 125.733 147.863  0.00  0.00    +0.000 A 
ATOM     19  C   UNL     1     106.387 124.374 148.275  0.00  0.00    +0.000 A 
ATOM     20  C   UNL     1     106.696 125.135 148.196  0.00  0.00    +0.000 A 
BRANCH  20  21
ATOM     21  O   UNL     1     107.465 125.296 148.449  0.00  0.00    +0.000 OA
ATOM     22  C   UNL     1     107.923 124.698 148.785  0.00  0.00    +0.000 C 
ENDBRANCH  20  21
ENDBRANCH   6  15
BRANCH   8  23
ATOM     23  O   UNL     1     104.896 124.228 146.169  0.00  0.00    +0.000 OA
BRANCH  23  24
ATOM     24  S   UNL     1     104.764 124.113 145.362  0.00  0.00    +0.000 S 
ATOM     25  O   UNL     1     104.632 123.998 144.556  0.00  0.00    +0.000 OA
ATOM     26  O   UNL     1     104.839 123.298 145.466  0.00  0.00    +0.000 OA
ATOM     27  O   UNL     1     104.689 124.928 145.258  0.00  0.00    +0.000 OA
ENDBRANCH  23  24
ENDBRANCH   8  23
TORSDOF 4
ENDMDL
MODEL 4
REMARK VINA RESULT:      -8.4      7.443      8.541
REMARK  Name = 14777890
REMARK  4 active torsions:
REMARK  status: ('A' for Active; 'I' for Inactive)
REMARK    1  A    between atoms: S_1  and  O_3
REMARK    2  A    between atoms: O_3  and  C_15
REMARK    3  A    between atoms: O_6  and  C_26
REMARK    4  A    between atoms: C_13  and  C_16
REMARK                            x       y       z     vdW  Elec       q    Type
REMARK                         _______ _______ _______ _____ _____    ______ ____
ROOT
ATOM      1  O   UNL     1     103.462 130.299 142.301  0.00  0.00    +0.000 OA
ATOM      2  O   UNL     1     104.182 127.854 140.939  0.00  0.00    +0.000 OA
ATOM      3  O   UNL     1     103.217 128.765 140.374  0.00  0.00    +0.000 OA
ATOM      4  O   UNL     1     105.417 128.507 143.505  0.00  0.00    +0.000 OA
ATOM      5  C   UNL     1     103.818 129.089 141.628  0.00  0.00    +0.000 A 
ATOM      6  C   UNL     1     102.941 130.486 141.688  0.00  0.00    +0.000 A 
ATOM      7  C   UNL     1     103.900 129.601 142.271  0.00  0.00    +0.000 A 
ATOM      8  C   UNL     1     102.860 129.975 141.045  0.00  0.00    +0.000 A 
ATOM      9  C   UNL     1     103.299 129.277 141.016  0.00  0.00    +0.000 A 
ATOM     10  C   UNL     1     104.270 128.359 141.586  0.00  0.00    +0.000 A 
ATOM     11  C   UNL     1     104.438 129.416 142.915  0.00  0.00    +0.000 A 
ATOM     12  C   UNL     1     104.813 128.159 142.221  0.00  0.00    +0.000 A 
ATOM     13  C   UNL     1     104.897 128.691 142.890  0.00  0.00    +0.000 A 
ENDROOT
BRANCH   6  15
ATOM     14  O   UNL     1     102.704 133.285 141.163  0.00  0.00    +0.000 OA
ATOM     15  C   UNL     1     102.503 131.184 141.718  0.00  0.00    +0.000 A 
ATOM     16  C   UNL     1     102.823 131.886 141.425  0.00  0.00    +0.000 A 
ATOM     17  C   UNL     1     101.744 131.180 142.042  0.00  0.00    +0.000 A 
ATOM     18  C   UNL     1     102.384 132.584 141.456  0.00  0.00    +0.000 A 
ATOM     19  C   UNL     1     101.306 131.879 142.073  0.00  0.00    +0.000 A 
ATOM     20  C   UNL     1     101.626 132.580 141.780  0.00  0.00    +0.000 A 
BRANCH  20  21
ATOM     21  O   UNL     1     101.187 133.278 141.811  0.00  0.00    +0.000 OA
ATOM     22  C   UNL     1     100.710 133.437 142.464  0.00  0.00    +0.000 C 
ENDBRANCH  20  21
ENDBRANCH   6  15
BRANCH   8  23
ATOM     23  O   UNL     1     102.341 130.162 140.433  0.00  0.00    +0.000 OA
BRANCH  23  24
ATOM     24  S   UNL     1     102.387 129.758 139.715  0.00  0.00    +0.000 S 
ATOM     25  O   UNL     1     102.433 129.355 138.997  0.00  0.00    +0.000 OA
ATOM     26  O   UNL     1     102.974 130.279 139.461  0.00  0.00    +0.000 OA
ATOM     27  O   UNL     1     101.800 129.238 139.970  0.00  0.00    +0.000 OA
ENDBRANCH  23  24
ENDBRANCH   8  23
TORSDOF 4
ENDMDL
MODEL 5
REMARK VINA RESULT:      -8.2      2.022      4.033
REMARK  Name = 14777890
REMARK  4 active torsions:
REMARK  status: ('A' for Active; 'I' for Inactive)
REMARK    1  A    between atoms: S_1  and  O_3
REMARK    2  A    between atoms: O_3  and  C_15
REMARK    3  A    between atoms: O_6  and  C_26
REMARK    4  A    between atoms: C_13  and  C_16
REMARK                            x       y       z     vdW  Elec       q    Type
REMARK                         _______ _______ _______ _____ _____    ______ ____
ROOT
ATOM      1  O   UNL     1     106.490 126.961 146.540  0.00  0.00    +0.000 OA
ATOM      2  O   UNL     1     105.114 126.988 144.000  0.00  0.00    +0.000 OA
ATOM      3  O   UNL     1     105.469 125.746 144.641  0.00  0.00    +0.000 OA
ATOM      4  O   UNL     1     105.805 129.508 145.305  0.00  0.00    +0.000 OA
ATOM      5  C   UNL     1     105.810 126.975 145.284  0.00  0.00    +0.000 A 
ATOM      6  C   UNL     1     106.490 126.135 146.531  0.00  0.00    +0.000 A 
ATOM      7  C   UNL     1     106.150 127.380 145.917  0.00  0.00    +0.000 A 
ATOM      8  C   UNL     1     106.150 125.730 145.898  0.00  0.00    +0.000 A 
ATOM      9  C   UNL     1     105.810 126.151 145.274  0.00  0.00    +0.000 A 
ATOM     10  C   UNL     1     105.452 127.401 144.629  0.00  0.00    +0.000 A 
ATOM     11  C   UNL     1     106.156 128.240 145.938  0.00  0.00    +0.000 A 
ATOM     12  C   UNL     1     105.449 128.260 144.633  0.00  0.00    +0.000 A 
ATOM     13  C   UNL     1     105.803 128.682 145.292  0.00  0.00    +0.000 A 
ENDROOT
BRANCH   6  15
ATOM     14  O   UNL     1     108.784 124.953 147.759  0.00  0.00    +0.000 OA
ATOM     15  C   UNL     1     106.831 125.716 147.154  0.00  0.00    +0.000 A 
ATOM     16  C   UNL     1     107.638 125.544 147.144  0.00  0.00    +0.000 A 
ATOM     17  C   UNL     1     106.363 125.469 147.788  0.00  0.00    +0.000 A 
ATOM     18  C   UNL     1     107.977 125.125 147.769  0.00  0.00    +0.000 A 
ATOM     19  C   UNL     1     106.704 125.049 148.412  0.00  0.00    +0.000 A 
ATOM     20  C   UNL     1     107.511 124.877 148.402  0.00  0.00    +0.000 A 
BRANCH  20  21
ATOM     21  O   UNL     1     107.850 124.458 149.026  0.00  0.00    +0.000 OA
ATOM     22  C   UNL     1     107.372 124.130 149.612  0.00  0.00    +0.000 C 
ENDBRANCH  20  21
ENDBRANCH   6  15
BRANCH   8  23
ATOM     23  O   UNL     1     106.150 124.906 145.888  0.00  0.00    +0.000 OA
BRANCH  23  24
ATOM     24  S   UNL     1     105.686 124.500 145.340  0.00  0.00    +0.000 S 
ATOM     25  O   UNL     1     105.221 124.094 144.792  0.00  0.00    +0.000 OA
ATOM     26  O   UNL     1     105.028 124.592 145.829  0.00  0.00    +0.000 OA
ATOM     27  O   UNL     1     106.344 124.407 144.851  0.00  0.00    +0.000 OA
ENDBRANCH  23  24
ENDBRANCH   8  23
TORSDOF 4
ENDMDL
MODEL 6
REMARK VINA RESULT:      -8.2     12.271     13.474
REMARK  Name = 14777890
REMARK  4 active torsions:
REMARK  status: ('A' for Active; 'I' for Inactive)
REMARK    1  A    between atoms: S_1  and  O_3
REMARK    2  A    between atoms: O_3  and  C_15
REMARK    3  A    between atoms: O_6  and  C_26
REMARK    4  A    between atoms: C_13  and  C_16
REMARK                            x       y       z     vdW  Elec       q    Type
REMARK                         _______ _______ _______ _____ _____    ______ ____
ROOT
ATOM      1  O   UNL     1     111.927 127.217 135.862  0.00  0.00    +0.000 OA
ATOM      2  O   UNL     1     111.672 124.393 136.418  0.00  0.00    +0.000 OA
ATOM      3  O   UNL     1     112.761 125.164 136.965  0.00  0.00    +0.000 OA
ATOM      4  O   UNL     1     109.702 125.724 134.722  0.00  0.00    +0.000 OA
ATOM      5  C   UNL     1     111.800 125.820 136.136  0.00  0.00    +0.000 A 
ATOM      6  C   UNL     1     112.611 127.245 136.324  0.00  0.00    +0.000 A 
ATOM      7  C   UNL     1     111.522 126.504 135.769  0.00  0.00    +0.000 A 
ATOM      8  C   UNL     1     112.889 126.560 136.691  0.00  0.00    +0.000 A 
ATOM      9  C   UNL     1     112.483 125.848 136.597  0.00  0.00    +0.000 A 
ATOM     10  C   UNL     1     111.387 125.072 136.046  0.00  0.00    +0.000 A 
ATOM     11  C   UNL     1     110.811 126.488 135.286  0.00  0.00    +0.000 A 
ATOM     12  C   UNL     1     110.675 125.036 135.567  0.00  0.00    +0.000 A 
ATOM     13  C   UNL     1     110.385 125.749 135.185  0.00  0.00    +0.000 A 
ENDROOT
BRANCH   6  15
ATOM     14  O   UNL     1     114.521 129.149 135.380  0.00  0.00    +0.000 OA
ATOM     15  C   UNL     1     113.016 127.957 136.417  0.00  0.00    +0.000 A 
ATOM     16  C   UNL     1     113.567 128.197 135.851  0.00  0.00    +0.000 A 
ATOM     17  C   UNL     1     112.870 128.431 137.078  0.00  0.00    +0.000 A 
ATOM     18  C   UNL     1     113.971 128.910 135.946  0.00  0.00    +0.000 A 
ATOM     19  C   UNL     1     113.275 129.143 137.171  0.00  0.00    +0.000 A 
ATOM     20  C   UNL     1     113.825 129.383 136.605  0.00  0.00    +0.000 A 
BRANCH  20  21
ATOM     21  O   UNL     1     114.230 130.096 136.700  0.00  0.00    +0.000 OA
ATOM     22  C   UNL     1     114.050 130.592 137.333  0.00  0.00    +0.000 C 
ENDBRANCH  20  21
ENDBRANCH   6  15
BRANCH   8  23
ATOM     23  O   UNL     1     113.572 126.589 137.152  0.00  0.00    +0.000 OA
BRANCH  23  24
ATOM     24  S   UNL     1     113.949 125.889 137.375  0.00  0.00    +0.000 S 
ATOM     25  O   UNL     1     114.325 125.190 137.597  0.00  0.00    +0.000 OA
ATOM     26  O   UNL     1     113.574 125.921 138.109  0.00  0.00    +0.000 OA
ATOM     27  O   UNL     1     114.323 125.857 136.640  0.00  0.00    +0.000 OA
ENDBRANCH  23  24
ENDBRANCH   8  23
TORSDOF 4
ENDMDL
MODEL 7
REMARK VINA RESULT:      -8.2      9.098     10.689
REMARK  Name = 14777890
REMARK  4 active torsions:
REMARK  status: ('A' for Active; 'I' for Inactive)
REMARK    1  A    between atoms: S_1  and  O_3
REMARK    2  A    between atoms: O_3  and  C_15
REMARK    3  A    between atoms: O_6  and  C_26
REMARK    4  A    between atoms: C_13  and  C_16
REMARK                            x       y       z     vdW  Elec       q    Type
REMARK                         _______ _______ _______ _____ _____    ______ ____
ROOT
ATOM      1  O   UNL     1     111.435 131.817 145.320  0.00  0.00    +0.000 OA
ATOM      2  O   UNL     1     111.961 132.441 142.548  0.00  0.00    +0.000 OA
ATOM      3  O   UNL     1     111.908 133.479 143.548  0.00  0.00    +0.000 OA
ATOM      4  O   UNL     1     111.529 129.668 143.357  0.00  0.00    +0.000 OA
ATOM      5  C   UNL     1     111.695 132.125 143.949  0.00  0.00    +0.000 A 
ATOM      6  C   UNL     1     111.490 132.619 145.510  0.00  0.00    +0.000 A 
ATOM      7  C   UNL     1     111.538 131.571 144.540  0.00  0.00    +0.000 A 
ATOM      8  C   UNL     1     111.648 133.173 144.919  0.00  0.00    +0.000 A 
ATOM      9  C   UNL     1     111.750 132.925 144.139  0.00  0.00    +0.000 A 
ATOM     10  C   UNL     1     111.804 131.879 143.132  0.00  0.00    +0.000 A 
ATOM     11  C   UNL     1     111.479 130.733 144.354  0.00  0.00    +0.000 A 
ATOM     12  C   UNL     1     111.748 131.047 142.929  0.00  0.00    +0.000 A 
ATOM     13  C   UNL     1     111.584 130.470 143.544  0.00  0.00    +0.000 A 
ENDROOT
BRANCH   6  15
ATOM     14  O   UNL     1     109.798 133.592 147.597  0.00  0.00    +0.000 OA
ATOM     15  C   UNL     1     111.388 132.865 146.290  0.00  0.00    +0.000 A 
ATOM     16  C   UNL     1     110.644 133.105 146.553  0.00  0.00    +0.000 A 
ATOM     17  C   UNL     1     112.031 132.871 146.809  0.00  0.00    +0.000 A 
ATOM     18  C   UNL     1     110.542 133.352 147.334  0.00  0.00    +0.000 A 
ATOM     19  C   UNL     1     111.928 133.117 147.589  0.00  0.00    +0.000 A 
ATOM     20  C   UNL     1     111.184 133.358 147.852  0.00  0.00    +0.000 A 
BRANCH  20  21
ATOM     21  O   UNL     1     111.083 133.604 148.633  0.00  0.00    +0.000 OA
ATOM     22  C   UNL     1     111.655 133.427 149.199  0.00  0.00    +0.000 C 
ENDBRANCH  20  21
ENDBRANCH   6  15
BRANCH   8  23
ATOM     23  O   UNL     1     111.703 133.973 145.109  0.00  0.00    +0.000 OA
BRANCH  23  24
ATOM     24  S   UNL     1     111.717 134.539 144.509  0.00  0.00    +0.000 S 
ATOM     25  O   UNL     1     111.731 135.105 143.909  0.00  0.00    +0.000 OA
ATOM     26  O   UNL     1     110.894 134.506 144.459  0.00  0.00    +0.000 OA
ATOM     27  O   UNL     1     112.540 134.572 144.559  0.00  0.00    +0.000 OA
ENDBRANCH  23  24
ENDBRANCH   8  23
TORSDOF 4
ENDMDL
MODEL 8
REMARK VINA RESULT:      -8.1      1.591      2.946
REMARK  Name = 14777890
REMARK  4 active torsions:
REMARK  status: ('A' for Active; 'I' for Inactive)
REMARK    1  A    between atoms: S_1  and  O_3
REMARK    2  A    between atoms: O_3  and  C_15
REMARK    3  A    between atoms: O_6  and  C_26
REMARK    4  A    between atoms: C_13  and  C_16
REMARK                            x       y       z     vdW  Elec       q    Type
REMARK                         _______ _______ _______ _____ _____    ______ ____
ROOT
ATOM      1  O   UNL     1     106.750 125.227 146.780  0.00  0.00    +0.000 OA
ATOM      2  O   UNL     1     105.517 124.340 149.238  0.00  0.00    +0.000 OA
ATOM      3  O   UNL     1     104.721 124.655 148.077  0.00  0.00    +0.000 OA
ATOM      4  O   UNL     1     108.421 124.607 149.084  0.00  0.00    +0.000 OA
ATOM      5  C   UNL     1     106.141 124.788 147.996  0.00  0.00    +0.000 A 
ATOM      6  C   UNL     1     106.005 125.284 146.429  0.00  0.00    +0.000 A 
ATOM      7  C   UNL     1     106.817 124.978 147.564  0.00  0.00    +0.000 A 
ATOM      8  C   UNL     1     105.329 125.094 146.861  0.00  0.00    +0.000 A 
ATOM      9  C   UNL     1     105.397 124.846 147.645  0.00  0.00    +0.000 A 
ATOM     10  C   UNL     1     106.199 124.528 148.814  0.00  0.00    +0.000 A 
ATOM     11  C   UNL     1     107.598 124.922 147.919  0.00  0.00    +0.000 A 
ATOM     12  C   UNL     1     106.971 124.466 149.185  0.00  0.00    +0.000 A 
ATOM     13  C   UNL     1     107.675 124.664 148.735  0.00  0.00    +0.000 A 
ENDROOT
BRANCH   6  15
ATOM     14  O   UNL     1     106.037 124.693 143.633  0.00  0.00    +0.000 OA
ATOM     15  C   UNL     1     105.938 125.533 145.645  0.00  0.00    +0.000 A 
ATOM     16  C   UNL     1     106.021 124.988 145.031  0.00  0.00    +0.000 A 
ATOM     17  C   UNL     1     105.788 126.327 145.476  0.00  0.00    +0.000 A 
ATOM     18  C   UNL     1     105.954 125.238 144.247  0.00  0.00    +0.000 A 
ATOM     19  C   UNL     1     105.721 126.575 144.692  0.00  0.00    +0.000 A 
ATOM     20  C   UNL     1     105.804 126.031 144.078  0.00  0.00    +0.000 A 
BRANCH  20  21
ATOM     21  O   UNL     1     105.737 126.280 143.294  0.00  0.00    +0.000 OA
ATOM     22  C   UNL     1     105.701 127.085 143.118  0.00  0.00    +0.000 C 
ENDBRANCH  20  21
ENDBRANCH   6  15
BRANCH   8  23
ATOM     23  O   UNL     1     104.586 125.152 146.510  0.00  0.00    +0.000 OA
BRANCH  23  24
ATOM     24  S   UNL     1     103.941 124.759 146.842  0.00  0.00    +0.000 S 
ATOM     25  O   UNL     1     103.296 124.366 147.174  0.00  0.00    +0.000 OA
ATOM     26  O   UNL     1     104.199 124.051 146.505  0.00  0.00    +0.000 OA
ATOM     27  O   UNL     1     103.683 125.467 147.178  0.00  0.00    +0.000 OA
ENDBRANCH  23  24
ENDBRANCH   8  23
TORSDOF 4
ENDMDL
MODEL 9
REMARK VINA RESULT:      -8.1      1.297      3.898
REMARK  Name = 14777890
REMARK  4 active torsions:
REMARK  status: ('A' for Active; 'I' for Inactive)
REMARK    1  A    between atoms: S_1  and  O_3
REMARK    2  A    between atoms: O_3  and  C_15
REMARK    3  A    between atoms: O_6  and  C_26
REMARK    4  A    between atoms: C_13  and  C_16
REMARK                            x       y       z     vdW  Elec       q    Type
REMARK                         _______ _______ _______ _____ _____    ______ ____
ROOT
ATOM      1  O   UNL     1     104.680 124.968 146.903  0.00  0.00    +0.000 OA
ATOM      2  O   UNL     1     103.400 123.042 145.170  0.00  0.00    +0.000 OA
ATOM      3  O   UNL     1     104.568 123.770 144.740  0.00  0.00    +0.000 OA
ATOM      4  O   UNL     1     102.324 123.536 147.841  0.00  0.00    +0.000 OA
ATOM      5  C   UNL     1     104.046 124.016 146.047  0.00  0.00    +0.000 A 
ATOM      6  C   UNL     1     105.240 125.122 146.316  0.00  0.00    +0.000 A 
ATOM      7  C   UNL     1     104.083 124.415 146.768  0.00  0.00    +0.000 A 
ATOM      8  C   UNL     1     105.202 124.723 145.595  0.00  0.00    +0.000 A 
ATOM      9  C   UNL     1     104.605 124.170 145.461  0.00  0.00    +0.000 A 
ATOM     10  C   UNL     1     103.429 123.437 145.894  0.00  0.00    +0.000 A 
ATOM     11  C   UNL     1     103.506 124.263 147.386  0.00  0.00    +0.000 A 
ATOM     12  C   UNL     1     102.843 123.272 146.501  0.00  0.00    +0.000 A 
ATOM     13  C   UNL     1     102.882 123.688 147.252  0.00  0.00    +0.000 A 
ENDROOT
BRANCH   6  15
ATOM     14  O   UNL     1     107.884 125.747 147.203  0.00  0.00    +0.000 OA
ATOM     15  C   UNL     1     105.836 125.676 146.451  0.00  0.00    +0.000 A 
ATOM     16  C   UNL     1     106.562 125.434 146.760  0.00  0.00    +0.000 A 
ATOM     17  C   UNL     1     105.706 126.473 146.277  0.00  0.00    +0.000 A 
ATOM     18  C   UNL     1     107.158 125.989 146.895  0.00  0.00    +0.000 A 
ATOM     19  C   UNL     1     106.303 127.026 146.413  0.00  0.00    +0.000 A 
ATOM     20  C   UNL     1     107.028 126.784 146.721  0.00  0.00    +0.000 A 
BRANCH  20  21
ATOM     21  O   UNL     1     107.624 127.339 146.856  0.00  0.00    +0.000 OA
ATOM     22  C   UNL     1     107.585 128.082 146.502  0.00  0.00    +0.000 C 
ENDBRANCH  20  21
ENDBRANCH   6  15
BRANCH   8  23
ATOM     23  O   UNL     1     105.762 124.877 145.009  0.00  0.00    +0.000 OA
BRANCH  23  24
ATOM     24  S   UNL     1     105.613 124.655 144.229  0.00  0.00    +0.000 S 
ATOM     25  O   UNL     1     105.465 124.433 143.448  0.00  0.00    +0.000 OA
ATOM     26  O   UNL     1     105.142 125.325 144.128  0.00  0.00    +0.000 OA
ATOM     27  O   UNL     1     106.084 123.985 144.330  0.00  0.00    +0.000 OA
ENDBRANCH  23  24
ENDBRANCH   8  23
TORSDOF 4
ENDMDL
MODEL 10
REMARK VINA RESULT:      -8.1      1.634      4.471
REMARK  Name = 14777890
REMARK  4 active torsions:
REMARK  status: ('A' for Active; 'I' for Inactive)
REMARK    1  A    between atoms: S_1  and  O_3
REMARK    2  A    between atoms: O_3  and  C_15
REMARK    3  A    between atoms: O_6  and  C_26
REMARK    4  A    between atoms: C_13  and  C_16
REMARK                            x       y       z     vdW  Elec       q    Type
REMARK                         _______ _______ _______ _____ _____    ______ ____
ROOT
ATOM      1  O   UNL     1     104.438 124.275 146.830  0.00  0.00    +0.000 OA
ATOM      2  O   UNL     1     101.798 125.054 147.711  0.00  0.00    +0.000 OA
ATOM      3  O   UNL     1     102.975 125.722 148.207  0.00  0.00    +0.000 OA
ATOM      4  O   UNL     1     102.106 122.879 145.785  0.00  0.00    +0.000 OA
ATOM      5  C   UNL     1     103.131 124.660 147.265  0.00  0.00    +0.000 A 
ATOM      6  C   UNL     1     104.769 124.857 147.314  0.00  0.00    +0.000 A 
ATOM      7  C   UNL     1     103.619 124.177 146.806  0.00  0.00    +0.000 A 
ATOM      8  C   UNL     1     104.282 125.339 147.773  0.00  0.00    +0.000 A 
ATOM      9  C   UNL     1     103.463 125.240 147.748  0.00  0.00    +0.000 A 
ATOM     10  C   UNL     1     102.277 124.567 147.248  0.00  0.00    +0.000 A 
ATOM     11  C   UNL     1     103.285 123.569 146.299  0.00  0.00    +0.000 A 
ATOM     12  C   UNL     1     101.926 123.964 146.747  0.00  0.00    +0.000 A 
ATOM     13  C   UNL     1     102.434 123.461 146.269  0.00  0.00    +0.000 A 
ENDROOT
BRANCH   6  15
ATOM     14  O   UNL     1     107.179 125.851 146.143  0.00  0.00    +0.000 OA
ATOM     15  C   UNL     1     105.588 124.955 147.338  0.00  0.00    +0.000 A 
ATOM     16  C   UNL     1     105.974 125.354 146.728  0.00  0.00    +0.000 A 
ATOM     17  C   UNL     1     106.020 124.653 147.973  0.00  0.00    +0.000 A 
ATOM     18  C   UNL     1     106.793 125.452 146.753  0.00  0.00    +0.000 A 
ATOM     19  C   UNL     1     106.839 124.751 147.997  0.00  0.00    +0.000 A 
ATOM     20  C   UNL     1     107.225 125.150 147.387  0.00  0.00    +0.000 A 
BRANCH  20  21
ATOM     21  O   UNL     1     108.044 125.248 147.412  0.00  0.00    +0.000 OA
ATOM     22  C   UNL     1     108.480 124.925 148.033  0.00  0.00    +0.000 C 
ENDBRANCH  20  21
ENDBRANCH   6  15
BRANCH   8  23
ATOM     23  O   UNL     1     104.613 125.919 148.255  0.00  0.00    +0.000 OA
BRANCH  23  24
ATOM     24  S   UNL     1     104.136 126.512 148.575  0.00  0.00    +0.000 S 
ATOM     25  O   UNL     1     103.659 127.105 148.894  0.00  0.00    +0.000 OA
ATOM     26  O   UNL     1     104.095 126.096 149.286  0.00  0.00    +0.000 OA
ATOM     27  O   UNL     1     104.176 126.928 147.863  0.00  0.00    +0.000 OA
ENDBRANCH  23  24
ENDBRANCH   8  23
TORSDOF 4
ENDMDL
