MODEL 1
REMARK VINA RESULT:      -9.5      0.000      0.000
REMARK  Name = 44258369
REMARK  4 active torsions:
REMARK  status: ('A' for Active; 'I' for Inactive)
REMARK    1  A    between atoms: O_7  and  C_20
REMARK    2  A    between atoms: C_14  and  C_17
REMARK    3  A    between atoms: C_16  and  C_18
REMARK    4  A    between atoms: C_25  and  C_27
REMARK                            x       y       z     vdW  Elec       q    Type
REMARK                         _______ _______ _______ _____ _____    ______ ____
ROOT
ATOM      1  O   UNL     1     110.529 127.462 136.118  0.00  0.00    +0.000 OA
ATOM      2  O   UNL     1     107.991 128.817 135.805  0.00  0.00    +0.000 OA
ATOM      3  O   UNL     1     108.006 127.380 135.930  0.00  0.00    +0.000 OA
ATOM      4  C   UNL     1     110.458 128.907 135.987  0.00  0.00    +0.000 A 
ATOM      5  C   UNL     1     110.068 128.180 136.020  0.00  0.00    +0.000 A 
ATOM      6  C   UNL     1     110.026 129.603 135.893  0.00  0.00    +0.000 A 
ATOM      7  C   UNL     1     109.246 128.150 135.959  0.00  0.00    +0.000 A 
ATOM      8  C   UNL     1     109.203 129.573 135.833  0.00  0.00    +0.000 A 
ATOM      9  C   UNL     1     108.814 128.847 135.866  0.00  0.00    +0.000 A 
ATOM     10  C   UNL     1     108.828 127.401 135.992  0.00  0.00    +0.000 A 
ATOM     11  C   UNL     1     110.129 126.702 136.153  0.00  0.00    +0.000 A 
ATOM     12  C   UNL     1     109.273 126.671 136.090  0.00  0.00    +0.000 A 
ENDROOT
BRANCH   4  19
ATOM     13  O   UNL     1     111.638 128.954 136.791  0.00  0.00    +0.000 OA
ATOM     14  O   UNL     1     111.385 128.933 134.623  0.00  0.00    +0.000 OA
ATOM     15  O   UNL     1     113.030 128.993 134.744  0.00  0.00    +0.000 OA
ATOM     16  O   UNL     1     113.747 129.027 136.230  0.00  0.00    +0.000 OA
ATOM     17  C   UNL     1     111.744 128.950 135.366  0.00  0.00    +0.000 C 
ATOM     18  C   UNL     1     112.566 128.980 135.427  0.00  0.00    +0.000 C 
ATOM     19  C   UNL     1     111.280 128.937 136.048  0.00  0.00    +0.000 C 
ATOM     20  C   UNL     1     112.924 128.997 136.169  0.00  0.00    +0.000 C 
ATOM     21  C   UNL     1     112.461 128.984 136.852  0.00  0.00    +0.000 C 
BRANCH  21  23
ATOM     22  O   UNL     1     112.370 129.180 138.265  0.00  0.00    +0.000 OA
ATOM     23  C   UNL     1     112.819 129.001 137.595  0.00  0.00    +0.000 C 
ENDBRANCH  21  23
ENDBRANCH   4  19
BRANCH  11  26
ATOM     24  O   UNL     1     111.404 124.792 137.854  0.00  0.00    +0.000 OA
ATOM     25  O   UNL     1     111.868 123.924 136.529  0.00  0.00    +0.000 OA
ATOM     26  C   UNL     1     110.564 126.008 136.247  0.00  0.00    +0.000 A 
ATOM     27  C   UNL     1     110.767 125.747 137.003  0.00  0.00    +0.000 A 
ATOM     28  C   UNL     1     110.796 125.573 135.585  0.00  0.00    +0.000 A 
ATOM     29  C   UNL     1     111.201 125.053 137.098  0.00  0.00    +0.000 A 
ATOM     30  C   UNL     1     111.231 124.878 135.679  0.00  0.00    +0.000 A 
ATOM     31  C   UNL     1     111.434 124.618 136.435  0.00  0.00    +0.000 A 
ENDBRANCH  11  26
BRANCH   6  32
ATOM     32  O   UNL     1     110.416 130.330 135.861  0.00  0.00    +0.000 OA
ATOM     33  C   UNL     1     109.984 131.031 135.902  0.00  0.00    +0.000 C 
ENDBRANCH   6  32
TORSDOF 4
ENDMDL
MODEL 2
REMARK VINA RESULT:      -9.4      1.915      4.394
REMARK  Name = 44258369
REMARK  4 active torsions:
REMARK  status: ('A' for Active; 'I' for Inactive)
REMARK    1  A    between atoms: O_7  and  C_20
REMARK    2  A    between atoms: C_14  and  C_17
REMARK    3  A    between atoms: C_16  and  C_18
REMARK    4  A    between atoms: C_25  and  C_27
REMARK                            x       y       z     vdW  Elec       q    Type
REMARK                         _______ _______ _______ _____ _____    ______ ____
ROOT
ATOM      1  O   UNL     1     112.385 126.900 136.327  0.00  0.00    +0.000 OA
ATOM      2  O   UNL     1     110.290 125.264 135.183  0.00  0.00    +0.000 OA
ATOM      3  O   UNL     1     110.376 126.655 134.806  0.00  0.00    +0.000 OA
ATOM      4  C   UNL     1     112.254 125.496 136.673  0.00  0.00    +0.000 A 
ATOM      5  C   UNL     1     111.980 126.147 136.246  0.00  0.00    +0.000 A 
ATOM      6  C   UNL     1     111.872 124.768 136.602  0.00  0.00    +0.000 A 
ATOM      7  C   UNL     1     111.326 126.070 135.750  0.00  0.00    +0.000 A 
ATOM      8  C   UNL     1     111.218 124.691 136.106  0.00  0.00    +0.000 A 
ATOM      9  C   UNL     1     110.945 125.342 135.680  0.00  0.00    +0.000 A 
ATOM     10  C   UNL     1     111.031 126.741 135.300  0.00  0.00    +0.000 A 
ATOM     11  C   UNL     1     112.106 127.583 135.886  0.00  0.00    +0.000 A 
ATOM     12  C   UNL     1     111.424 127.502 135.369  0.00  0.00    +0.000 A 
ENDROOT
BRANCH   4  19
ATOM     13  O   UNL     1     112.814 125.878 137.930  0.00  0.00    +0.000 OA
ATOM     14  O   UNL     1     113.748 125.040 136.143  0.00  0.00    +0.000 OA
ATOM     15  O   UNL     1     115.057 125.194 137.136  0.00  0.00    +0.000 OA
ATOM     16  O   UNL     1     114.871 125.804 138.658  0.00  0.00    +0.000 OA
ATOM     17  C   UNL     1     113.655 125.345 136.905  0.00  0.00    +0.000 C 
ATOM     18  C   UNL     1     114.309 125.422 137.401  0.00  0.00    +0.000 C 
ATOM     19  C   UNL     1     112.907 125.573 137.169  0.00  0.00    +0.000 C 
ATOM     20  C   UNL     1     114.216 125.727 138.161  0.00  0.00    +0.000 C 
ATOM     21  C   UNL     1     113.469 125.955 138.427  0.00  0.00    +0.000 C 
BRANCH  21  23
ATOM     22  O   UNL     1     112.660 126.160 139.587  0.00  0.00    +0.000 OA
ATOM     23  C   UNL     1     113.376 126.259 139.187  0.00  0.00    +0.000 C 
ENDBRANCH  21  23
ENDBRANCH   4  19
BRANCH  11  26
ATOM     24  O   UNL     1     114.183 129.375 135.085  0.00  0.00    +0.000 OA
ATOM     25  O   UNL     1     113.638 130.490 136.172  0.00  0.00    +0.000 OA
ATOM     26  C   UNL     1     112.489 128.310 135.958  0.00  0.00    +0.000 A 
ATOM     27  C   UNL     1     113.144 128.479 135.486  0.00  0.00    +0.000 A 
ATOM     28  C   UNL     1     112.217 128.868 136.501  0.00  0.00    +0.000 A 
ATOM     29  C   UNL     1     113.528 129.206 135.557  0.00  0.00    +0.000 A 
ATOM     30  C   UNL     1     112.600 129.595 136.573  0.00  0.00    +0.000 A 
ATOM     31  C   UNL     1     113.255 129.764 136.101  0.00  0.00    +0.000 A 
ENDBRANCH  11  26
BRANCH   6  32
ATOM     32  O   UNL     1     112.146 124.116 137.029  0.00  0.00    +0.000 OA
ATOM     33  C   UNL     1     111.719 123.410 137.021  0.00  0.00    +0.000 C 
ENDBRANCH   6  32
TORSDOF 4
ENDMDL
MODEL 3
REMARK VINA RESULT:      -9.4      1.834      5.199
REMARK  Name = 44258369
REMARK  4 active torsions:
REMARK  status: ('A' for Active; 'I' for Inactive)
REMARK    1  A    between atoms: O_7  and  C_20
REMARK    2  A    between atoms: C_14  and  C_17
REMARK    3  A    between atoms: C_16  and  C_18
REMARK    4  A    between atoms: C_25  and  C_27
REMARK                            x       y       z     vdW  Elec       q    Type
REMARK                         _______ _______ _______ _____ _____    ______ ____
ROOT
ATOM      1  O   UNL     1     112.709 126.585 136.593  0.00  0.00    +0.000 OA
ATOM      2  O   UNL     1     114.498 124.315 136.746  0.00  0.00    +0.000 OA
ATOM      3  O   UNL     1     115.053 125.630 136.529  0.00  0.00    +0.000 OA
ATOM      4  C   UNL     1     112.203 125.241 136.810  0.00  0.00    +0.000 A 
ATOM      5  C   UNL     1     112.848 125.743 136.692  0.00  0.00    +0.000 A 
ATOM      6  C   UNL     1     112.324 124.431 136.907  0.00  0.00    +0.000 A 
ATOM      7  C   UNL     1     113.612 125.435 136.671  0.00  0.00    +0.000 A 
ATOM      8  C   UNL     1     113.089 124.122 136.885  0.00  0.00    +0.000 A 
ATOM      9  C   UNL     1     113.733 124.624 136.767  0.00  0.00    +0.000 A 
ATOM     10  C   UNL     1     114.291 125.947 136.549  0.00  0.00    +0.000 A 
ATOM     11  C   UNL     1     113.376 127.113 136.470  0.00  0.00    +0.000 A 
ATOM     12  C   UNL     1     114.172 126.792 136.448  0.00  0.00    +0.000 A 
ENDROOT
BRANCH   4  19
ATOM     13  O   UNL     1     111.019 125.662 136.130  0.00  0.00    +0.000 OA
ATOM     14  O   UNL     1     111.512 125.632 138.256  0.00  0.00    +0.000 OA
ATOM     15  O   UNL     1     109.983 126.249 138.299  0.00  0.00    +0.000 OA
ATOM     16  O   UNL     1     109.143 126.475 136.896  0.00  0.00    +0.000 OA
ATOM     17  C   UNL     1     111.093 125.745 137.554  0.00  0.00    +0.000 C 
ATOM     18  C   UNL     1     110.328 126.054 137.576  0.00  0.00    +0.000 C 
ATOM     19  C   UNL     1     111.439 125.549 136.832  0.00  0.00    +0.000 C 
ATOM     20  C   UNL     1     109.909 126.166 136.875  0.00  0.00    +0.000 C 
ATOM     21  C   UNL     1     110.254 125.970 136.151  0.00  0.00    +0.000 C 
BRANCH  21  23
ATOM     22  O   UNL     1     110.075 125.697 134.760  0.00  0.00    +0.000 OA
ATOM     23  C   UNL     1     109.836 126.083 135.450  0.00  0.00    +0.000 C 
ENDBRANCH  21  23
ENDBRANCH   4  19
BRANCH  11  26
ATOM     24  O   UNL     1     112.838 129.350 134.775  0.00  0.00    +0.000 OA
ATOM     25  O   UNL     1     112.881 130.353 136.085  0.00  0.00    +0.000 OA
ATOM     26  C   UNL     1     113.252 127.923 136.374  0.00  0.00    +0.000 A 
ATOM     27  C   UNL     1     113.107 128.232 135.623  0.00  0.00    +0.000 A 
ATOM     28  C   UNL     1     113.273 128.425 137.028  0.00  0.00    +0.000 A 
ATOM     29  C   UNL     1     112.983 129.042 135.526  0.00  0.00    +0.000 A 
ATOM     30  C   UNL     1     113.150 129.235 136.932  0.00  0.00    +0.000 A 
ATOM     31  C   UNL     1     113.005 129.544 136.181  0.00  0.00    +0.000 A 
ENDBRANCH  11  26
BRANCH   6  32
ATOM     32  O   UNL     1     111.680 123.929 137.024  0.00  0.00    +0.000 OA
ATOM     33  C   UNL     1     111.792 123.112 137.046  0.00  0.00    +0.000 C 
ENDBRANCH   6  32
TORSDOF 4
ENDMDL
MODEL 4
REMARK VINA RESULT:      -9.4      1.731      2.575
REMARK  Name = 44258369
REMARK  4 active torsions:
REMARK  status: ('A' for Active; 'I' for Inactive)
REMARK    1  A    between atoms: O_7  and  C_20
REMARK    2  A    between atoms: C_14  and  C_17
REMARK    3  A    between atoms: C_16  and  C_18
REMARK    4  A    between atoms: C_25  and  C_27
REMARK                            x       y       z     vdW  Elec       q    Type
REMARK                         _______ _______ _______ _____ _____    ______ ____
ROOT
ATOM      1  O   UNL     1     112.163 126.777 136.218  0.00  0.00    +0.000 OA
ATOM      2  O   UNL     1     109.732 126.124 134.789  0.00  0.00    +0.000 OA
ATOM      3  O   UNL     1     110.553 125.052 135.300  0.00  0.00    +0.000 OA
ATOM      4  C   UNL     1     111.301 127.817 135.684  0.00  0.00    +0.000 A 
ATOM      5  C   UNL     1     111.455 127.013 135.793  0.00  0.00    +0.000 A 
ATOM      6  C   UNL     1     110.624 128.056 135.277  0.00  0.00    +0.000 A 
ATOM      7  C   UNL     1     110.932 126.449 135.495  0.00  0.00    +0.000 A 
ATOM      8  C   UNL     1     110.102 127.491 134.979  0.00  0.00    +0.000 A 
ATOM      9  C   UNL     1     110.256 126.689 135.088  0.00  0.00    +0.000 A 
ATOM     10  C   UNL     1     111.081 125.610 135.601  0.00  0.00    +0.000 A 
ATOM     11  C   UNL     1     112.329 125.942 136.335  0.00  0.00    +0.000 A 
ATOM     12  C   UNL     1     111.785 125.354 136.024  0.00  0.00    +0.000 A 
ENDROOT
BRANCH   4  19
ATOM     13  O   UNL     1     112.481 128.610 135.539  0.00  0.00    +0.000 OA
ATOM     14  O   UNL     1     111.032 128.488 137.167  0.00  0.00    +0.000 OA
ATOM     15  O   UNL     1     112.077 129.616 137.764  0.00  0.00    +0.000 OA
ATOM     16  O   UNL     1     113.392 130.074 136.877  0.00  0.00    +0.000 OA
ATOM     17  C   UNL     1     111.689 128.717 136.724  0.00  0.00    +0.000 C 
ATOM     18  C   UNL     1     112.212 129.281 137.022  0.00  0.00    +0.000 C 
ATOM     19  C   UNL     1     111.823 128.381 135.982  0.00  0.00    +0.000 C 
ATOM     20  C   UNL     1     112.869 129.509 136.579  0.00  0.00    +0.000 C 
ATOM     21  C   UNL     1     113.004 129.174 135.837  0.00  0.00    +0.000 C 
BRANCH  21  23
ATOM     22  O   UNL     1     113.740 129.147 134.612  0.00  0.00    +0.000 OA
ATOM     23  C   UNL     1     113.660 129.402 135.394  0.00  0.00    +0.000 C 
ENDBRANCH  21  23
ENDBRANCH   4  19
BRANCH  11  26
ATOM     24  O   UNL     1     115.084 125.181 136.324  0.00  0.00    +0.000 OA
ATOM     25  O   UNL     1     115.039 124.997 137.963  0.00  0.00    +0.000 OA
ATOM     26  C   UNL     1     113.006 125.706 136.742  0.00  0.00    +0.000 A 
ATOM     27  C   UNL     1     113.706 125.561 136.330  0.00  0.00    +0.000 A 
ATOM     28  C   UNL     1     112.985 125.614 137.561  0.00  0.00    +0.000 A 
ATOM     29  C   UNL     1     114.384 125.325 136.736  0.00  0.00    +0.000 A 
ATOM     30  C   UNL     1     113.662 125.378 137.969  0.00  0.00    +0.000 A 
ATOM     31  C   UNL     1     114.362 125.233 137.556  0.00  0.00    +0.000 A 
ENDBRANCH  11  26
BRANCH   6  32
ATOM     32  O   UNL     1     110.470 128.860 135.169  0.00  0.00    +0.000 OA
ATOM     33  C   UNL     1     109.865 129.098 134.662  0.00  0.00    +0.000 C 
ENDBRANCH   6  32
TORSDOF 4
ENDMDL
MODEL 5
REMARK VINA RESULT:      -9.2      1.373      3.821
REMARK  Name = 44258369
REMARK  4 active torsions:
REMARK  status: ('A' for Active; 'I' for Inactive)
REMARK    1  A    between atoms: O_7  and  C_20
REMARK    2  A    between atoms: C_14  and  C_17
REMARK    3  A    between atoms: C_16  and  C_18
REMARK    4  A    between atoms: C_25  and  C_27
REMARK                            x       y       z     vdW  Elec       q    Type
REMARK                         _______ _______ _______ _____ _____    ______ ____
ROOT
ATOM      1  O   UNL     1     111.370 127.262 136.006  0.00  0.00    +0.000 OA
ATOM      2  O   UNL     1     111.684 124.385 135.929  0.00  0.00    +0.000 OA
ATOM      3  O   UNL     1     110.481 124.972 135.391  0.00  0.00    +0.000 OA
ATOM      4  C   UNL     1     112.562 126.620 136.534  0.00  0.00    +0.000 A 
ATOM      5  C   UNL     1     111.824 126.551 136.170  0.00  0.00    +0.000 A 
ATOM      6  C   UNL     1     113.006 125.944 136.696  0.00  0.00    +0.000 A 
ATOM      7  C   UNL     1     111.531 125.806 135.968  0.00  0.00    +0.000 A 
ATOM      8  C   UNL     1     112.714 125.200 136.494  0.00  0.00    +0.000 A 
ATOM      9  C   UNL     1     111.977 125.131 136.131  0.00  0.00    +0.000 A 
ATOM     10  C   UNL     1     110.765 125.721 135.589  0.00  0.00    +0.000 A 
ATOM     11  C   UNL     1     110.601 127.196 135.628  0.00  0.00    +0.000 A 
ATOM     12  C   UNL     1     110.297 126.421 135.418  0.00  0.00    +0.000 A 
ENDROOT
BRANCH   4  19
ATOM     13  O   UNL     1     113.260 127.814 136.174  0.00  0.00    +0.000 OA
ATOM     14  O   UNL     1     112.334 127.210 138.058  0.00  0.00    +0.000 OA
ATOM     15  O   UNL     1     112.919 128.699 138.461  0.00  0.00    +0.000 OA
ATOM     16  O   UNL     1     113.731 129.599 137.340  0.00  0.00    +0.000 OA
ATOM     17  C   UNL     1     112.740 127.660 137.497  0.00  0.00    +0.000 C 
ATOM     18  C   UNL     1     113.033 128.404 137.698  0.00  0.00    +0.000 C 
ATOM     19  C   UNL     1     112.853 127.364 136.735  0.00  0.00    +0.000 C 
ATOM     20  C   UNL     1     113.438 128.853 137.138  0.00  0.00    +0.000 C 
ATOM     21  C   UNL     1     113.552 128.559 136.376  0.00  0.00    +0.000 C 
BRANCH  21  23
ATOM     22  O   UNL     1     114.505 128.646 135.315  0.00  0.00    +0.000 OA
ATOM     23  C   UNL     1     113.957 129.008 135.816  0.00  0.00    +0.000 C 
ENDBRANCH  21  23
ENDBRANCH   4  19
BRANCH  11  26
ATOM     24  O   UNL     1     108.560 129.053 136.373  0.00  0.00    +0.000 OA
ATOM     25  O   UNL     1     108.829 129.904 134.985  0.00  0.00    +0.000 OA
ATOM     26  C   UNL     1     110.158 127.873 135.467  0.00  0.00    +0.000 A 
ATOM     27  C   UNL     1     109.581 128.125 136.000  0.00  0.00    +0.000 A 
ATOM     28  C   UNL     1     110.292 128.299 134.773  0.00  0.00    +0.000 A 
ATOM     29  C   UNL     1     109.137 128.802 135.840  0.00  0.00    +0.000 A 
ATOM     30  C   UNL     1     109.849 128.976 134.612  0.00  0.00    +0.000 A 
ATOM     31  C   UNL     1     109.272 129.228 135.145  0.00  0.00    +0.000 A 
ENDBRANCH  11  26
BRANCH   6  32
ATOM     32  O   UNL     1     113.744 126.014 137.060  0.00  0.00    +0.000 OA
ATOM     33  C   UNL     1     114.241 125.358 137.110  0.00  0.00    +0.000 C 
ENDBRANCH   6  32
TORSDOF 4
ENDMDL
MODEL 6
REMARK VINA RESULT:      -9.2     11.790     13.130
REMARK  Name = 44258369
REMARK  4 active torsions:
REMARK  status: ('A' for Active; 'I' for Inactive)
REMARK    1  A    between atoms: O_7  and  C_20
REMARK    2  A    between atoms: C_14  and  C_17
REMARK    3  A    between atoms: C_16  and  C_18
REMARK    4  A    between atoms: C_25  and  C_27
REMARK                            x       y       z     vdW  Elec       q    Type
REMARK                         _______ _______ _______ _____ _____    ______ ____
ROOT
ATOM      1  O   UNL     1     104.134 125.715 147.205  0.00  0.00    +0.000 OA
ATOM      2  O   UNL     1     102.248 123.522 147.090  0.00  0.00    +0.000 OA
ATOM      3  O   UNL     1     102.049 124.566 148.067  0.00  0.00    +0.000 OA
ATOM      4  C   UNL     1     104.287 124.640 146.240  0.00  0.00    +0.000 A 
ATOM      5  C   UNL     1     103.860 124.977 146.862  0.00  0.00    +0.000 A 
ATOM      6  C   UNL     1     104.034 123.931 145.903  0.00  0.00    +0.000 A 
ATOM      7  C   UNL     1     103.181 124.604 147.145  0.00  0.00    +0.000 A 
ATOM      8  C   UNL     1     103.354 123.559 146.186  0.00  0.00    +0.000 A 
ATOM      9  C   UNL     1     102.928 123.895 146.806  0.00  0.00    +0.000 A 
ATOM     10  C   UNL     1     102.728 124.945 147.790  0.00  0.00    +0.000 A 
ATOM     11  C   UNL     1     103.694 126.071 147.852  0.00  0.00    +0.000 A 
ATOM     12  C   UNL     1     102.986 125.683 148.147  0.00  0.00    +0.000 A 
ENDROOT
BRANCH   4  19
ATOM     13  O   UNL     1     104.905 125.603 145.385  0.00  0.00    +0.000 OA
ATOM     14  O   UNL     1     105.769 124.202 146.819  0.00  0.00    +0.000 OA
ATOM     15  O   UNL     1     107.128 124.946 146.253  0.00  0.00    +0.000 OA
ATOM     16  O   UNL     1     107.006 126.129 145.108  0.00  0.00    +0.000 OA
ATOM     17  C   UNL     1     105.707 124.793 146.246  0.00  0.00    +0.000 C 
ATOM     18  C   UNL     1     106.387 125.166 145.963  0.00  0.00    +0.000 C 
ATOM     19  C   UNL     1     104.966 125.012 145.958  0.00  0.00    +0.000 C 
ATOM     20  C   UNL     1     106.325 125.756 145.391  0.00  0.00    +0.000 C 
ATOM     21  C   UNL     1     105.584 125.976 145.102  0.00  0.00    +0.000 C 
BRANCH  21  23
ATOM     22  O   UNL     1     105.223 126.387 143.781  0.00  0.00    +0.000 OA
ATOM     23  C   UNL     1     105.523 126.566 144.530  0.00  0.00    +0.000 C 
ENDBRANCH  21  23
ENDBRANCH   4  19
BRANCH  11  26
ATOM     24  O   UNL     1     105.446 127.486 149.612  0.00  0.00    +0.000 OA
ATOM     25  O   UNL     1     104.716 128.906 149.196  0.00  0.00    +0.000 OA
ATOM     26  C   UNL     1     103.949 126.780 148.188  0.00  0.00    +0.000 A 
ATOM     27  C   UNL     1     104.569 126.779 148.732  0.00  0.00    +0.000 A 
ATOM     28  C   UNL     1     103.585 127.490 147.980  0.00  0.00    +0.000 A 
ATOM     29  C   UNL     1     104.826 127.487 149.068  0.00  0.00    +0.000 A 
ATOM     30  C   UNL     1     103.840 128.199 148.316  0.00  0.00    +0.000 A 
ATOM     31  C   UNL     1     104.461 128.198 148.860  0.00  0.00    +0.000 A 
ENDBRANCH  11  26
BRANCH   6  32
ATOM     32  O   UNL     1     104.461 123.594 145.282  0.00  0.00    +0.000 OA
ATOM     33  C   UNL     1     104.141 122.964 144.856  0.00  0.00    +0.000 C 
ENDBRANCH   6  32
TORSDOF 4
ENDMDL
MODEL 7
REMARK VINA RESULT:      -9.1      2.272      5.198
REMARK  Name = 44258369
REMARK  4 active torsions:
REMARK  status: ('A' for Active; 'I' for Inactive)
REMARK    1  A    between atoms: O_7  and  C_20
REMARK    2  A    between atoms: C_14  and  C_17
REMARK    3  A    between atoms: C_16  and  C_18
REMARK    4  A    between atoms: C_25  and  C_27
REMARK                            x       y       z     vdW  Elec       q    Type
REMARK                         _______ _______ _______ _____ _____    ______ ____
ROOT
ATOM      1  O   UNL     1     112.695 126.392 138.547  0.00  0.00    +0.000 OA
ATOM      2  O   UNL     1     113.975 124.434 136.843  0.00  0.00    +0.000 OA
ATOM      3  O   UNL     1     114.772 125.144 137.814  0.00  0.00    +0.000 OA
ATOM      4  C   UNL     1     111.939 125.650 137.553  0.00  0.00    +0.000 A 
ATOM      5  C   UNL     1     112.662 125.806 137.920  0.00  0.00    +0.000 A 
ATOM      6  C   UNL     1     111.895 125.089 136.950  0.00  0.00    +0.000 A 
ATOM      7  C   UNL     1     113.340 125.401 137.683  0.00  0.00    +0.000 A 
ATOM      8  C   UNL     1     112.574 124.684 136.713  0.00  0.00    +0.000 A 
ATOM      9  C   UNL     1     113.295 124.839 137.080  0.00  0.00    +0.000 A 
ATOM     10  C   UNL     1     114.098 125.554 138.057  0.00  0.00    +0.000 A 
ATOM     11  C   UNL     1     113.445 126.559 138.932  0.00  0.00    +0.000 A 
ATOM     12  C   UNL     1     114.151 126.137 138.686  0.00  0.00    +0.000 A 
ENDROOT
BRANCH   4  19
ATOM     13  O   UNL     1     111.072 126.781 137.445  0.00  0.00    +0.000 OA
ATOM     14  O   UNL     1     110.959 125.009 138.715  0.00  0.00    +0.000 OA
ATOM     15  O   UNL     1     109.602 125.819 139.189  0.00  0.00    +0.000 OA
ATOM     16  O   UNL     1     109.225 127.271 138.500  0.00  0.00    +0.000 OA
ATOM     17  C   UNL     1     110.770 125.735 138.371  0.00  0.00    +0.000 C 
ATOM     18  C   UNL     1     110.092 126.140 138.607  0.00  0.00    +0.000 C 
ATOM     19  C   UNL     1     111.261 126.055 137.790  0.00  0.00    +0.000 C 
ATOM     20  C   UNL     1     109.904 126.866 138.263  0.00  0.00    +0.000 C 
ATOM     21  C   UNL     1     110.394 127.187 137.682  0.00  0.00    +0.000 C 
BRANCH  21  23
ATOM     22  O   UNL     1     110.772 128.316 136.892  0.00  0.00    +0.000 OA
ATOM     23  C   UNL     1     110.206 127.912 137.338  0.00  0.00    +0.000 C 
ENDBRANCH  21  23
ENDBRANCH   4  19
BRANCH  11  26
ATOM     24  O   UNL     1     113.592 129.289 139.765  0.00  0.00    +0.000 OA
ATOM     25  O   UNL     1     113.610 128.806 141.343  0.00  0.00    +0.000 OA
ATOM     26  C   UNL     1     113.486 127.121 139.535  0.00  0.00    +0.000 A 
ATOM     27  C   UNL     1     113.518 127.924 139.349  0.00  0.00    +0.000 A 
ATOM     28  C   UNL     1     113.495 126.880 140.324  0.00  0.00    +0.000 A 
ATOM     29  C   UNL     1     113.560 128.486 139.951  0.00  0.00    +0.000 A 
ATOM     30  C   UNL     1     113.536 127.442 140.927  0.00  0.00    +0.000 A 
ATOM     31  C   UNL     1     113.569 128.245 140.741  0.00  0.00    +0.000 A 
ENDBRANCH  11  26
BRANCH   6  32
ATOM     32  O   UNL     1     111.172 124.933 136.584  0.00  0.00    +0.000 OA
ATOM     33  C   UNL     1     111.153 124.528 135.865  0.00  0.00    +0.000 C 
ENDBRANCH   6  32
TORSDOF 4
ENDMDL
MODEL 8
REMARK VINA RESULT:      -9.0      2.431      4.524
REMARK  Name = 44258369
REMARK  4 active torsions:
REMARK  status: ('A' for Active; 'I' for Inactive)
REMARK    1  A    between atoms: O_7  and  C_20
REMARK    2  A    between atoms: C_14  and  C_17
REMARK    3  A    between atoms: C_16  and  C_18
REMARK    4  A    between atoms: C_25  and  C_27
REMARK                            x       y       z     vdW  Elec       q    Type
REMARK                         _______ _______ _______ _____ _____    ______ ____
ROOT
ATOM      1  O   UNL     1     112.212 126.147 137.423  0.00  0.00    +0.000 OA
ATOM      2  O   UNL     1     114.940 125.385 138.022  0.00  0.00    +0.000 OA
ATOM      3  O   UNL     1     114.367 124.997 136.755  0.00  0.00    +0.000 OA
ATOM      4  C   UNL     1     112.836 126.512 138.683  0.00  0.00    +0.000 A 
ATOM      5  C   UNL     1     112.892 126.138 137.949  0.00  0.00    +0.000 A 
ATOM      6  C   UNL     1     113.483 126.509 139.196  0.00  0.00    +0.000 A 
ATOM      7  C   UNL     1     113.592 125.762 137.729  0.00  0.00    +0.000 A 
ATOM      8  C   UNL     1     114.183 126.134 138.975  0.00  0.00    +0.000 A 
ATOM      9  C   UNL     1     114.238 125.761 138.242  0.00  0.00    +0.000 A 
ATOM     10  C   UNL     1     113.662 125.370 136.968  0.00  0.00    +0.000 A 
ATOM     11  C   UNL     1     112.263 125.759 136.658  0.00  0.00    +0.000 A 
ATOM     12  C   UNL     1     112.993 125.368 136.428  0.00  0.00    +0.000 A 
ENDROOT
BRANCH   4  19
ATOM     13  O   UNL     1     111.529 126.453 139.256  0.00  0.00    +0.000 OA
ATOM     14  O   UNL     1     112.649 128.129 138.417  0.00  0.00    +0.000 OA
ATOM     15  O   UNL     1     111.248 128.880 138.857  0.00  0.00    +0.000 OA
ATOM     16  O   UNL     1     110.033 128.014 139.564  0.00  0.00    +0.000 OA
ATOM     17  C   UNL     1     112.042 127.695 138.770  0.00  0.00    +0.000 C 
ATOM     18  C   UNL     1     111.341 128.071 138.991  0.00  0.00    +0.000 C 
ATOM     19  C   UNL     1     112.136 126.887 138.903  0.00  0.00    +0.000 C 
ATOM     20  C   UNL     1     110.735 127.638 139.343  0.00  0.00    +0.000 C 
ATOM     21  C   UNL     1     110.828 126.829 139.477  0.00  0.00    +0.000 C 
BRANCH  21  23
ATOM     22  O   UNL     1     110.288 125.575 139.901  0.00  0.00    +0.000 OA
ATOM     23  C   UNL     1     110.222 126.395 139.829  0.00  0.00    +0.000 C 
ENDBRANCH  21  23
ENDBRANCH   4  19
BRANCH  11  26
ATOM     24  O   UNL     1     110.732 127.040 134.612  0.00  0.00    +0.000 OA
ATOM     25  O   UNL     1     109.674 125.774 134.612  0.00  0.00    +0.000 OA
ATOM     26  C   UNL     1     111.616 125.763 136.146  0.00  0.00    +0.000 A 
ATOM     27  C   UNL     1     111.497 126.399 135.635  0.00  0.00    +0.000 A 
ATOM     28  C   UNL     1     111.086 125.130 136.146  0.00  0.00    +0.000 A 
ATOM     29  C   UNL     1     110.851 126.404 135.123  0.00  0.00    +0.000 A 
ATOM     30  C   UNL     1     110.439 125.134 135.634  0.00  0.00    +0.000 A 
ATOM     31  C   UNL     1     110.321 125.770 135.123  0.00  0.00    +0.000 A 
ENDBRANCH  11  26
BRANCH   6  32
ATOM     32  O   UNL     1     113.427 126.883 139.930  0.00  0.00    +0.000 OA
ATOM     33  C   UNL     1     114.043 126.813 140.475  0.00  0.00    +0.000 C 
ENDBRANCH   6  32
TORSDOF 4
ENDMDL
MODEL 9
REMARK VINA RESULT:      -8.9      1.990      3.680
REMARK  Name = 44258369
REMARK  4 active torsions:
REMARK  status: ('A' for Active; 'I' for Inactive)
REMARK    1  A    between atoms: O_7  and  C_20
REMARK    2  A    between atoms: C_14  and  C_17
REMARK    3  A    between atoms: C_16  and  C_18
REMARK    4  A    between atoms: C_25  and  C_27
REMARK                            x       y       z     vdW  Elec       q    Type
REMARK                         _______ _______ _______ _____ _____    ______ ____
ROOT
ATOM      1  O   UNL     1     113.126 127.127 137.908  0.00  0.00    +0.000 OA
ATOM      2  O   UNL     1     113.547 128.406 140.470  0.00  0.00    +0.000 OA
ATOM      3  O   UNL     1     113.663 126.970 140.377  0.00  0.00    +0.000 OA
ATOM      4  C   UNL     1     113.021 128.568 138.056  0.00  0.00    +0.000 A 
ATOM      5  C   UNL     1     113.163 127.830 138.399  0.00  0.00    +0.000 A 
ATOM      6  C   UNL     1     113.054 129.250 138.518  0.00  0.00    +0.000 A 
ATOM      7  C   UNL     1     113.339 127.776 139.203  0.00  0.00    +0.000 A 
ATOM      8  C   UNL     1     113.230 129.196 139.322  0.00  0.00    +0.000 A 
ATOM      9  C   UNL     1     113.372 128.460 139.665  0.00  0.00    +0.000 A 
ATOM     10  C   UNL     1     113.489 127.015 139.572  0.00  0.00    +0.000 A 
ATOM     11  C   UNL     1     113.273 126.356 138.259  0.00  0.00    +0.000 A 
ATOM     12  C   UNL     1     113.456 126.300 139.096  0.00  0.00    +0.000 A 
ENDROOT
BRANCH   4  19
ATOM     13  O   UNL     1     113.457 128.661 136.698  0.00  0.00    +0.000 OA
ATOM     14  O   UNL     1     111.450 128.597 137.555  0.00  0.00    +0.000 OA
ATOM     15  O   UNL     1     111.099 128.705 135.947  0.00  0.00    +0.000 OA
ATOM     16  O   UNL     1     112.320 128.784 134.839  0.00  0.00    +0.000 OA
ATOM     17  C   UNL     1     112.060 128.636 137.001  0.00  0.00    +0.000 C 
ATOM     18  C   UNL     1     111.885 128.690 136.197  0.00  0.00    +0.000 C 
ATOM     19  C   UNL     1     112.846 128.622 137.253  0.00  0.00    +0.000 C 
ATOM     20  C   UNL     1     112.495 128.730 135.644  0.00  0.00    +0.000 C 
ATOM     21  C   UNL     1     113.281 128.715 135.894  0.00  0.00    +0.000 C 
BRANCH  21  23
ATOM     22  O   UNL     1     114.648 128.990 135.577  0.00  0.00    +0.000 OA
ATOM     23  C   UNL     1     113.891 128.755 135.341  0.00  0.00    +0.000 C 
ENDBRANCH  21  23
ENDBRANCH   4  19
BRANCH  11  26
ATOM     24  O   UNL     1     111.764 124.220 137.105  0.00  0.00    +0.000 OA
ATOM     25  O   UNL     1     113.136 123.631 136.403  0.00  0.00    +0.000 OA
ATOM     26  C   UNL     1     113.239 125.675 137.795  0.00  0.00    +0.000 A 
ATOM     27  C   UNL     1     112.519 125.288 137.681  0.00  0.00    +0.000 A 
ATOM     28  C   UNL     1     113.924 125.379 137.444  0.00  0.00    +0.000 A 
ATOM     29  C   UNL     1     112.484 124.607 137.218  0.00  0.00    +0.000 A 
ATOM     30  C   UNL     1     113.891 124.698 136.980  0.00  0.00    +0.000 A 
ATOM     31  C   UNL     1     113.171 124.312 136.866  0.00  0.00    +0.000 A 
ENDBRANCH  11  26
BRANCH   6  32
ATOM     32  O   UNL     1     112.912 129.988 138.175  0.00  0.00    +0.000 OA
ATOM     33  C   UNL     1     113.074 130.677 138.598  0.00  0.00    +0.000 C 
ENDBRANCH   6  32
TORSDOF 4
ENDMDL
MODEL 10
REMARK VINA RESULT:      -8.8      1.918      3.558
REMARK  Name = 44258369
REMARK  4 active torsions:
REMARK  status: ('A' for Active; 'I' for Inactive)
REMARK    1  A    between atoms: O_7  and  C_20
REMARK    2  A    between atoms: C_14  and  C_17
REMARK    3  A    between atoms: C_16  and  C_18
REMARK    4  A    between atoms: C_25  and  C_27
REMARK                            x       y       z     vdW  Elec       q    Type
REMARK                         _______ _______ _______ _____ _____    ______ ____
ROOT
ATOM      1  O   UNL     1     111.908 126.503 137.637  0.00  0.00    +0.000 OA
ATOM      2  O   UNL     1     111.262 124.266 135.917  0.00  0.00    +0.000 OA
ATOM      3  O   UNL     1     112.010 124.025 137.127  0.00  0.00    +0.000 OA
ATOM      4  C   UNL     1     111.157 126.691 136.408  0.00  0.00    +0.000 A 
ATOM      5  C   UNL     1     111.545 126.180 136.928  0.00  0.00    +0.000 A 
ATOM      6  C   UNL     1     110.805 126.393 135.724  0.00  0.00    +0.000 A 
ATOM      7  C   UNL     1     111.580 125.373 136.765  0.00  0.00    +0.000 A 
ATOM      8  C   UNL     1     110.840 125.585 135.561  0.00  0.00    +0.000 A 
ATOM      9  C   UNL     1     111.227 125.075 136.080  0.00  0.00    +0.000 A 
ATOM     10  C   UNL     1     111.980 124.831 137.298  0.00  0.00    +0.000 A 
ATOM     11  C   UNL     1     112.313 125.977 138.183  0.00  0.00    +0.000 A 
ATOM     12  C   UNL     1     112.349 125.135 138.013  0.00  0.00    +0.000 A 
ENDROOT
BRANCH   4  19
ATOM     13  O   UNL     1     110.517 127.797 137.046  0.00  0.00    +0.000 OA
ATOM     14  O   UNL     1     112.297 127.708 135.785  0.00  0.00    +0.000 OA
ATOM     15  O   UNL     1     112.228 129.323 136.113  0.00  0.00    +0.000 OA
ATOM     16  O   UNL     1     111.018 129.922 137.063  0.00  0.00    +0.000 OA
ATOM     17  C   UNL     1     111.692 128.007 136.261  0.00  0.00    +0.000 C 
ATOM     18  C   UNL     1     111.657 128.815 136.424  0.00  0.00    +0.000 C 
ATOM     19  C   UNL     1     111.123 127.498 136.571  0.00  0.00    +0.000 C 
ATOM     20  C   UNL     1     111.053 129.114 136.899  0.00  0.00    +0.000 C 
ATOM     21  C   UNL     1     110.483 128.605 137.210  0.00  0.00    +0.000 C 
BRANCH  21  23
ATOM     22  O   UNL     1     109.329 128.390 138.026  0.00  0.00    +0.000 OA
ATOM     23  C   UNL     1     109.878 128.904 137.685  0.00  0.00    +0.000 C 
ENDBRANCH  21  23
ENDBRANCH   4  19
BRANCH  11  26
ATOM     24  O   UNL     1     112.104 126.834 140.902  0.00  0.00    +0.000 OA
ATOM     25  O   UNL     1     113.718 127.179 140.916  0.00  0.00    +0.000 OA
ATOM     26  C   UNL     1     112.664 126.277 138.866  0.00  0.00    +0.000 A 
ATOM     27  C   UNL     1     112.209 126.405 139.542  0.00  0.00    +0.000 A 
ATOM     28  C   UNL     1     113.471 126.450 138.874  0.00  0.00    +0.000 A 
ATOM     29  C   UNL     1     112.559 126.706 140.226  0.00  0.00    +0.000 A 
ATOM     30  C   UNL     1     113.822 126.750 139.557  0.00  0.00    +0.000 A 
ATOM     31  C   UNL     1     113.367 126.878 140.233  0.00  0.00    +0.000 A 
ENDBRANCH  11  26
BRANCH   6  32
ATOM     32  O   UNL     1     110.418 126.903 135.204  0.00  0.00    +0.000 OA
ATOM     33  C   UNL     1     109.930 126.597 134.613  0.00  0.00    +0.000 C 
ENDBRANCH   6  32
TORSDOF 4
ENDMDL
