MODEL 1
REMARK VINA RESULT:      -9.5      0.000      0.000
REMARK  Name = 42607906
REMARK  4 active torsions:
REMARK  status: ('A' for Active; 'I' for Inactive)
REMARK    1  A    between atoms: O_2  and  C_15
REMARK    2  A    between atoms: O_2  and  C_18
REMARK    3  A    between atoms: C_14  and  C_16
REMARK    4  A    between atoms: C_17  and  C_19
REMARK                            x       y       z     vdW  Elec       q    Type
REMARK                         _______ _______ _______ _____ _____    ______ ____
ROOT
ATOM      1  C   UNL     1     109.804 127.417 135.432  0.00  0.00    +0.000 A 
ATOM      2  C   UNL     1     110.902 126.287 135.922  0.00  0.00    +0.000 A 
ATOM      3  C   UNL     1     109.747 127.085 136.186  0.00  0.00    +0.000 A 
ATOM      4  C   UNL     1     110.410 127.183 134.924  0.00  0.00    +0.000 A 
ATOM      5  C   UNL     1     110.296 126.520 136.431  0.00  0.00    +0.000 A 
ATOM      6  C   UNL     1     110.960 126.618 135.169  0.00  0.00    +0.000 A 
ENDROOT
BRANCH   2  11
ATOM      7  O   UNL     1     112.200 125.958 136.422  0.00  0.00    +0.000 OA
ATOM      8  O   UNL     1     111.602 123.556 136.392  0.00  0.00    +0.000 OA
ATOM      9  O   UNL     1     112.905 123.196 136.897  0.00  0.00    +0.000 OA
ATOM     10  O   UNL     1     114.849 125.306 137.441  0.00  0.00    +0.000 OA
ATOM     11  C   UNL     1     111.451 125.722 136.167  0.00  0.00    +0.000 C 
ATOM     12  C   UNL     1     111.253 124.922 136.157  0.00  0.00    +0.000 C 
ATOM     13  C   UNL     1     111.802 124.357 136.402  0.00  0.00    +0.000 C 
ATOM     14  C   UNL     1     112.549 124.593 136.657  0.00  0.00    +0.000 A 
ATOM     15  C   UNL     1     112.749 125.393 136.667  0.00  0.00    +0.000 A 
ATOM     16  C   UNL     1     113.113 123.994 136.910  0.00  0.00    +0.000 A 
ATOM     17  C   UNL     1     113.526 125.652 136.931  0.00  0.00    +0.000 A 
ATOM     18  C   UNL     1     114.101 125.068 137.187  0.00  0.00    +0.000 A 
ATOM     19  C   UNL     1     113.894 124.234 137.177  0.00  0.00    +0.000 A 
ENDBRANCH   2  11
BRANCH   1  20
ATOM     20  O   UNL     1     109.255 127.982 135.187  0.00  0.00    +0.000 OA
BRANCH  20  29
ATOM     21  O   UNL     1     110.017 129.154 135.481  0.00  0.00    +0.000 OA
ATOM     22  O   UNL     1     107.982 130.259 136.354  0.00  0.00    +0.000 OA
ATOM     23  O   UNL     1     109.422 131.062 136.357  0.00  0.00    +0.000 OA
ATOM     24  O   UNL     1     107.898 128.718 135.769  0.00  0.00    +0.000 OA
ATOM     25  C   UNL     1     108.660 129.890 136.063  0.00  0.00    +0.000 C 
ATOM     26  C   UNL     1     109.381 130.292 136.064  0.00  0.00    +0.000 C 
ATOM     27  C   UNL     1     108.618 129.119 135.770  0.00  0.00    +0.000 C 
ATOM     28  C   UNL     1     110.059 129.923 135.774  0.00  0.00    +0.000 C 
ATOM     29  C   UNL     1     109.297 128.751 135.479  0.00  0.00    +0.000 C 
BRANCH  28  31
ATOM     30  O   UNL     1     111.406 130.048 136.235  0.00  0.00    +0.000 OA
ATOM     31  C   UNL     1     110.779 130.325 135.775  0.00  0.00    +0.000 C 
ENDBRANCH  28  31
ENDBRANCH  20  29
ENDBRANCH   1  20
TORSDOF 4
ENDMDL
MODEL 2
REMARK VINA RESULT:      -9.2      4.296      5.244
REMARK  Name = 42607906
REMARK  4 active torsions:
REMARK  status: ('A' for Active; 'I' for Inactive)
REMARK    1  A    between atoms: O_2  and  C_15
REMARK    2  A    between atoms: O_2  and  C_18
REMARK    3  A    between atoms: C_14  and  C_16
REMARK    4  A    between atoms: C_17  and  C_19
REMARK                            x       y       z     vdW  Elec       q    Type
REMARK                         _______ _______ _______ _____ _____    ______ ____
ROOT
ATOM      1  C   UNL     1     113.748 128.261 140.426  0.00  0.00    +0.000 A 
ATOM      2  C   UNL     1     113.301 127.070 139.375  0.00  0.00    +0.000 A 
ATOM      3  C   UNL     1     113.877 127.469 140.620  0.00  0.00    +0.000 A 
ATOM      4  C   UNL     1     113.396 128.456 139.706  0.00  0.00    +0.000 A 
ATOM      5  C   UNL     1     113.654 126.874 140.095  0.00  0.00    +0.000 A 
ATOM      6  C   UNL     1     113.172 127.861 139.181  0.00  0.00    +0.000 A 
ENDROOT
BRANCH   2  11
ATOM      7  O   UNL     1     113.609 126.207 138.278  0.00  0.00    +0.000 OA
ATOM      8  O   UNL     1     111.342 125.222 138.417  0.00  0.00    +0.000 OA
ATOM      9  O   UNL     1     111.628 124.340 137.311  0.00  0.00    +0.000 OA
ATOM     10  O   UNL     1     114.255 124.456 136.042  0.00  0.00    +0.000 OA
ATOM     11  C   UNL     1     113.077 126.475 138.850  0.00  0.00    +0.000 C 
ATOM     12  C   UNL     1     112.322 126.146 138.896  0.00  0.00    +0.000 C 
ATOM     13  C   UNL     1     112.098 125.550 138.370  0.00  0.00    +0.000 C 
ATOM     14  C   UNL     1     112.630 125.283 137.800  0.00  0.00    +0.000 A 
ATOM     15  C   UNL     1     113.385 125.611 137.753  0.00  0.00    +0.000 A 
ATOM     16  C   UNL     1     112.385 124.662 137.258  0.00  0.00    +0.000 A 
ATOM     17  C   UNL     1     113.949 125.342 137.162  0.00  0.00    +0.000 A 
ATOM     18  C   UNL     1     113.721 124.722 136.613  0.00  0.00    +0.000 A 
ATOM     19  C   UNL     1     112.934 124.380 136.661  0.00  0.00    +0.000 A 
ENDBRANCH   2  11
BRANCH   1  20
ATOM     20  O   UNL     1     113.972 128.857 140.951  0.00  0.00    +0.000 OA
BRANCH  20  29
ATOM     21  O   UNL     1     112.778 128.860 141.736  0.00  0.00    +0.000 OA
ATOM     22  O   UNL     1     112.914 131.324 141.932  0.00  0.00    +0.000 OA
ATOM     23  O   UNL     1     111.675 130.506 142.651  0.00  0.00    +0.000 OA
ATOM     24  O   UNL     1     114.063 130.499 141.082  0.00  0.00    +0.000 OA
ATOM     25  C   UNL     1     112.868 130.502 141.867  0.00  0.00    +0.000 C 
ATOM     26  C   UNL     1     112.249 130.093 142.226  0.00  0.00    +0.000 C 
ATOM     27  C   UNL     1     113.443 130.090 141.441  0.00  0.00    +0.000 C 
ATOM     28  C   UNL     1     112.204 129.272 142.160  0.00  0.00    +0.000 C 
ATOM     29  C   UNL     1     113.398 129.269 141.376  0.00  0.00    +0.000 C 
BRANCH  28  31
ATOM     30  O   UNL     1     111.745 128.266 143.066  0.00  0.00    +0.000 OA
ATOM     31  C   UNL     1     111.584 128.863 142.520  0.00  0.00    +0.000 C 
ENDBRANCH  28  31
ENDBRANCH  20  29
ENDBRANCH   1  20
TORSDOF 4
ENDMDL
MODEL 3
REMARK VINA RESULT:      -9.2      1.641      2.977
REMARK  Name = 42607906
REMARK  4 active torsions:
REMARK  status: ('A' for Active; 'I' for Inactive)
REMARK    1  A    between atoms: O_2  and  C_15
REMARK    2  A    between atoms: O_2  and  C_18
REMARK    3  A    between atoms: C_14  and  C_16
REMARK    4  A    between atoms: C_17  and  C_19
REMARK                            x       y       z     vdW  Elec       q    Type
REMARK                         _______ _______ _______ _____ _____    ______ ____
ROOT
ATOM      1  C   UNL     1     113.104 129.268 136.785  0.00  0.00    +0.000 A 
ATOM      2  C   UNL     1     113.230 127.625 136.867  0.00  0.00    +0.000 A 
ATOM      3  C   UNL     1     113.328 128.837 136.117  0.00  0.00    +0.000 A 
ATOM      4  C   UNL     1     112.944 128.876 137.493  0.00  0.00    +0.000 A 
ATOM      5  C   UNL     1     113.390 128.015 136.158  0.00  0.00    +0.000 A 
ATOM      6  C   UNL     1     113.007 128.055 137.534  0.00  0.00    +0.000 A 
ENDROOT
BRANCH   2  11
ATOM      7  O   UNL     1     112.673 126.328 136.638  0.00  0.00    +0.000 OA
ATOM      8  O   UNL     1     114.718 125.288 137.568  0.00  0.00    +0.000 OA
ATOM      9  O   UNL     1     114.180 123.967 137.349  0.00  0.00    +0.000 OA
ATOM     10  O   UNL     1     111.524 123.694 136.166  0.00  0.00    +0.000 OA
ATOM     11  C   UNL     1     113.292 126.803 136.908  0.00  0.00    +0.000 C 
ATOM     12  C   UNL     1     113.973 126.456 137.217  0.00  0.00    +0.000 C 
ATOM     13  C   UNL     1     114.036 125.634 137.258  0.00  0.00    +0.000 C 
ATOM     14  C   UNL     1     113.418 125.160 136.989  0.00  0.00    +0.000 A 
ATOM     15  C   UNL     1     112.736 125.506 136.679  0.00  0.00    +0.000 A 
ATOM     16  C   UNL     1     113.495 124.305 137.037  0.00  0.00    +0.000 A 
ATOM     17  C   UNL     1     112.085 125.023 136.395  0.00  0.00    +0.000 A 
ATOM     18  C   UNL     1     112.145 124.167 136.436  0.00  0.00    +0.000 A 
ATOM     19  C   UNL     1     112.854 123.805 136.758  0.00  0.00    +0.000 A 
ENDBRANCH   2  11
BRANCH   1  20
ATOM     20  O   UNL     1     113.041 130.090 136.744  0.00  0.00    +0.000 OA
BRANCH  20  29
ATOM     21  O   UNL     1     111.691 130.161 136.281  0.00  0.00    +0.000 OA
ATOM     22  O   UNL     1     111.284 132.096 137.770  0.00  0.00    +0.000 OA
ATOM     23  O   UNL     1     110.070 131.522 136.811  0.00  0.00    +0.000 OA
ATOM     24  O   UNL     1     112.770 131.379 137.736  0.00  0.00    +0.000 OA
ATOM     25  C   UNL     1     111.420 131.451 137.274  0.00  0.00    +0.000 C 
ATOM     26  C   UNL     1     110.813 131.164 136.794  0.00  0.00    +0.000 C 
ATOM     27  C   UNL     1     112.163 131.092 137.257  0.00  0.00    +0.000 C 
ATOM     28  C   UNL     1     110.949 130.519 136.298  0.00  0.00    +0.000 C 
ATOM     29  C   UNL     1     112.299 130.447 136.761  0.00  0.00    +0.000 C 
BRANCH  28  31
ATOM     30  O   UNL     1     110.476 130.104 135.015  0.00  0.00    +0.000 OA
ATOM     31  C   UNL     1     110.342 130.233 135.819  0.00  0.00    +0.000 C 
ENDBRANCH  28  31
ENDBRANCH  20  29
ENDBRANCH   1  20
TORSDOF 4
ENDMDL
MODEL 4
REMARK VINA RESULT:      -9.2      0.736      5.626
REMARK  Name = 42607906
REMARK  4 active torsions:
REMARK  status: ('A' for Active; 'I' for Inactive)
REMARK    1  A    between atoms: O_2  and  C_15
REMARK    2  A    between atoms: O_2  and  C_18
REMARK    3  A    between atoms: C_14  and  C_16
REMARK    4  A    between atoms: C_17  and  C_19
REMARK                            x       y       z     vdW  Elec       q    Type
REMARK                         _______ _______ _______ _____ _____    ______ ____
ROOT
ATOM      1  C   UNL     1     110.954 125.514 135.860  0.00  0.00    +0.000 A 
ATOM      2  C   UNL     1     110.206 126.984 135.910  0.00  0.00    +0.000 A 
ATOM      3  C   UNL     1     110.960 126.004 135.195  0.00  0.00    +0.000 A 
ATOM      4  C   UNL     1     110.573 125.761 136.549  0.00  0.00    +0.000 A 
ATOM      5  C   UNL     1     110.586 126.739 135.220  0.00  0.00    +0.000 A 
ATOM      6  C   UNL     1     110.199 126.496 136.574  0.00  0.00    +0.000 A 
ENDROOT
BRANCH   2  11
ATOM      7  O   UNL     1     110.273 128.402 136.079  0.00  0.00    +0.000 OA
ATOM      8  O   UNL     1     107.830 128.560 135.719  0.00  0.00    +0.000 OA
ATOM      9  O   UNL     1     107.869 129.993 135.886  0.00  0.00    +0.000 OA
ATOM     10  O   UNL     1     110.429 131.289 136.428  0.00  0.00    +0.000 OA
ATOM     11  C   UNL     1     109.832 127.719 135.934  0.00  0.00    +0.000 C 
ATOM     12  C   UNL     1     109.018 127.773 135.815  0.00  0.00    +0.000 C 
ATOM     13  C   UNL     1     108.644 128.508 135.839  0.00  0.00    +0.000 C 
ATOM     14  C   UNL     1     109.085 129.190 135.984  0.00  0.00    +0.000 A 
ATOM     15  C   UNL     1     109.900 129.137 136.104  0.00  0.00    +0.000 A 
ATOM     16  C   UNL     1     108.684 129.950 136.007  0.00  0.00    +0.000 A 
ATOM     17  C   UNL     1     110.370 129.841 136.256  0.00  0.00    +0.000 A 
ATOM     18  C   UNL     1     109.986 130.609 136.283  0.00  0.00    +0.000 A 
ATOM     19  C   UNL     1     109.138 130.664 136.158  0.00  0.00    +0.000 A 
ENDBRANCH   2  11
BRANCH   1  20
ATOM     20  O   UNL     1     111.327 124.779 135.835  0.00  0.00    +0.000 OA
BRANCH  20  29
ATOM     21  O   UNL     1     112.633 125.269 136.148  0.00  0.00    +0.000 OA
ATOM     22  O   UNL     1     113.117 123.185 137.392  0.00  0.00    +0.000 OA
ATOM     23  O   UNL     1     114.260 124.370 137.290  0.00  0.00    +0.000 OA
ATOM     24  O   UNL     1     111.650 123.390 136.664  0.00  0.00    +0.000 OA
ATOM     25  C   UNL     1     112.956 123.880 136.977  0.00  0.00    +0.000 C 
ATOM     26  C   UNL     1     113.527 124.472 136.926  0.00  0.00    +0.000 C 
ATOM     27  C   UNL     1     112.222 123.982 136.613  0.00  0.00    +0.000 C 
ATOM     28  C   UNL     1     113.365 125.167 136.512  0.00  0.00    +0.000 C 
ATOM     29  C   UNL     1     112.060 124.677 136.199  0.00  0.00    +0.000 C 
BRANCH  28  31
ATOM     30  O   UNL     1     113.815 126.485 136.835  0.00  0.00    +0.000 OA
ATOM     31  C   UNL     1     113.937 125.759 136.461  0.00  0.00    +0.000 C 
ENDBRANCH  28  31
ENDBRANCH  20  29
ENDBRANCH   1  20
TORSDOF 4
ENDMDL
MODEL 5
REMARK VINA RESULT:      -9.1      4.107      5.069
REMARK  Name = 42607906
REMARK  4 active torsions:
REMARK  status: ('A' for Active; 'I' for Inactive)
REMARK    1  A    between atoms: O_2  and  C_15
REMARK    2  A    between atoms: O_2  and  C_18
REMARK    3  A    between atoms: C_14  and  C_16
REMARK    4  A    between atoms: C_17  and  C_19
REMARK                            x       y       z     vdW  Elec       q    Type
REMARK                         _______ _______ _______ _____ _____    ______ ____
ROOT
ATOM      1  C   UNL     1     113.015 127.876 140.781  0.00  0.00    +0.000 A 
ATOM      2  C   UNL     1     113.014 126.851 139.488  0.00  0.00    +0.000 A 
ATOM      3  C   UNL     1     113.529 127.230 140.765  0.00  0.00    +0.000 A 
ATOM      4  C   UNL     1     112.501 128.008 140.150  0.00  0.00    +0.000 A 
ATOM      5  C   UNL     1     113.529 126.717 140.119  0.00  0.00    +0.000 A 
ATOM      6  C   UNL     1     112.500 127.496 139.503  0.00  0.00    +0.000 A 
ENDROOT
BRANCH   2  11
ATOM      7  O   UNL     1     113.694 126.251 138.383  0.00  0.00    +0.000 OA
ATOM      8  O   UNL     1     111.649 124.977 137.817  0.00  0.00    +0.000 OA
ATOM      9  O   UNL     1     112.312 124.356 136.695  0.00  0.00    +0.000 OA
ATOM     10  O   UNL     1     115.096 125.039 136.137  0.00  0.00    +0.000 OA
ATOM     11  C   UNL     1     113.013 126.339 138.841  0.00  0.00    +0.000 C 
ATOM     12  C   UNL     1     112.332 125.914 138.652  0.00  0.00    +0.000 C 
ATOM     13  C   UNL     1     112.331 125.401 138.005  0.00  0.00    +0.000 C 
ATOM     14  C   UNL     1     113.011 125.314 137.548  0.00  0.00    +0.000 A 
ATOM     15  C   UNL     1     113.693 125.739 137.736  0.00  0.00    +0.000 A 
ATOM     16  C   UNL     1     112.998 124.777 136.876  0.00  0.00    +0.000 A 
ATOM     17  C   UNL     1     114.409 125.657 137.267  0.00  0.00    +0.000 A 
ATOM     18  C   UNL     1     114.414 125.125 136.593  0.00  0.00    +0.000 A 
ATOM     19  C   UNL     1     113.704 124.682 136.396  0.00  0.00    +0.000 A 
ENDBRANCH   2  11
BRANCH   1  20
ATOM     20  O   UNL     1     113.016 128.388 141.428  0.00  0.00    +0.000 OA
BRANCH  20  29
ATOM     21  O   UNL     1     113.998 129.287 140.909  0.00  0.00    +0.000 OA
ATOM     22  O   UNL     1     112.824 131.186 141.979  0.00  0.00    +0.000 OA
ATOM     23  O   UNL     1     114.197 131.451 141.104  0.00  0.00    +0.000 OA
ATOM     24  O   UNL     1     112.233 129.653 142.141  0.00  0.00    +0.000 OA
ATOM     25  C   UNL     1     113.216 130.553 141.622  0.00  0.00    +0.000 C 
ATOM     26  C   UNL     1     113.902 130.685 141.185  0.00  0.00    +0.000 C 
ATOM     27  C   UNL     1     112.920 129.786 141.703  0.00  0.00    +0.000 C 
ATOM     28  C   UNL     1     114.293 130.052 140.828  0.00  0.00    +0.000 C 
ATOM     29  C   UNL     1     113.311 129.153 141.347  0.00  0.00    +0.000 C 
BRANCH  28  31
ATOM     30  O   UNL     1     115.676 129.787 140.583  0.00  0.00    +0.000 OA
ATOM     31  C   UNL     1     114.979 130.186 140.391  0.00  0.00    +0.000 C 
ENDBRANCH  28  31
ENDBRANCH  20  29
ENDBRANCH   1  20
TORSDOF 4
ENDMDL
MODEL 6
REMARK VINA RESULT:      -9.0      1.210      1.878
REMARK  Name = 42607906
REMARK  4 active torsions:
REMARK  status: ('A' for Active; 'I' for Inactive)
REMARK    1  A    between atoms: O_2  and  C_15
REMARK    2  A    between atoms: O_2  and  C_18
REMARK    3  A    between atoms: C_14  and  C_16
REMARK    4  A    between atoms: C_17  and  C_19
REMARK                            x       y       z     vdW  Elec       q    Type
REMARK                         _______ _______ _______ _____ _____    ______ ____
ROOT
ATOM      1  C   UNL     1     109.156 129.269 135.377  0.00  0.00    +0.000 A 
ATOM      2  C   UNL     1     110.020 127.882 135.606  0.00  0.00    +0.000 A 
ATOM      3  C   UNL     1     108.906 128.713 135.934  0.00  0.00    +0.000 A 
ATOM      4  C   UNL     1     109.838 129.130 134.935  0.00  0.00    +0.000 A 
ATOM      5  C   UNL     1     109.338 128.020 136.049  0.00  0.00    +0.000 A 
ATOM      6  C   UNL     1     110.270 128.436 135.049  0.00  0.00    +0.000 A 
ENDROOT
BRANCH   2  11
ATOM      7  O   UNL     1     111.182 127.216 136.107  0.00  0.00    +0.000 OA
ATOM      8  O   UNL     1     110.293 125.055 135.290  0.00  0.00    +0.000 OA
ATOM      9  O   UNL     1     111.455 124.357 135.787  0.00  0.00    +0.000 OA
ATOM     10  O   UNL     1     113.554 125.876 137.135  0.00  0.00    +0.000 OA
ATOM     11  C   UNL     1     110.453 127.189 135.720  0.00  0.00    +0.000 C 
ATOM     12  C   UNL     1     110.158 126.468 135.448  0.00  0.00    +0.000 C 
ATOM     13  C   UNL     1     110.590 125.775 135.563  0.00  0.00    +0.000 C 
ATOM     14  C   UNL     1     111.317 125.803 135.949  0.00  0.00    +0.000 A 
ATOM     15  C   UNL     1     111.614 126.523 136.222  0.00  0.00    +0.000 A 
ATOM     16  C   UNL     1     111.759 125.073 136.062  0.00  0.00    +0.000 A 
ATOM     17  C   UNL     1     112.371 126.564 136.626  0.00  0.00    +0.000 A 
ATOM     18  C   UNL     1     112.826 125.846 136.748  0.00  0.00    +0.000 A 
ATOM     19  C   UNL     1     112.518 125.095 136.465  0.00  0.00    +0.000 A 
ENDBRANCH   2  11
BRANCH   1  20
ATOM     20  O   UNL     1     108.723 129.962 135.262  0.00  0.00    +0.000 OA
BRANCH  20  29
ATOM     21  O   UNL     1     109.466 130.799 136.152  0.00  0.00    +0.000 OA
ATOM     22  O   UNL     1     107.364 131.875 136.894  0.00  0.00    +0.000 OA
ATOM     23  O   UNL     1     108.806 132.352 137.535  0.00  0.00    +0.000 OA
ATOM     24  O   UNL     1     107.322 130.679 135.757  0.00  0.00    +0.000 OA
ATOM     25  C   UNL     1     108.064 131.516 136.646  0.00  0.00    +0.000 C 
ATOM     26  C   UNL     1     108.786 131.755 136.967  0.00  0.00    +0.000 C 
ATOM     27  C   UNL     1     108.044 130.918 136.078  0.00  0.00    +0.000 C 
ATOM     28  C   UNL     1     109.487 131.396 136.719  0.00  0.00    +0.000 C 
ATOM     29  C   UNL     1     108.744 130.559 135.830  0.00  0.00    +0.000 C 
BRANCH  28  31
ATOM     30  O   UNL     1     110.825 131.864 136.544  0.00  0.00    +0.000 OA
ATOM     31  C   UNL     1     110.207 131.635 137.040  0.00  0.00    +0.000 C 
ENDBRANCH  28  31
ENDBRANCH  20  29
ENDBRANCH   1  20
TORSDOF 4
ENDMDL
MODEL 7
REMARK VINA RESULT:      -8.9      7.720     10.784
REMARK  Name = 42607906
REMARK  4 active torsions:
REMARK  status: ('A' for Active; 'I' for Inactive)
REMARK    1  A    between atoms: O_2  and  C_15
REMARK    2  A    between atoms: O_2  and  C_18
REMARK    3  A    between atoms: C_14  and  C_16
REMARK    4  A    between atoms: C_17  and  C_19
REMARK                            x       y       z     vdW  Elec       q    Type
REMARK                         _______ _______ _______ _____ _____    ______ ____
ROOT
ATOM      1  C   UNL     1     104.428 128.327 142.155  0.00  0.00    +0.000 A 
ATOM      2  C   UNL     1     103.650 129.767 141.949  0.00  0.00    +0.000 A 
ATOM      3  C   UNL     1     104.143 128.539 141.409  0.00  0.00    +0.000 A 
ATOM      4  C   UNL     1     104.324 128.835 142.796  0.00  0.00    +0.000 A 
ATOM      5  C   UNL     1     103.754 129.259 141.306  0.00  0.00    +0.000 A 
ATOM      6  C   UNL     1     103.935 129.555 142.693  0.00  0.00    +0.000 A 
ENDROOT
BRANCH   2  11
ATOM      7  O   UNL     1     103.689 131.161 141.637  0.00  0.00    +0.000 OA
ATOM      8  O   UNL     1     101.238 131.299 141.954  0.00  0.00    +0.000 OA
ATOM      9  O   UNL     1     101.248 132.709 141.643  0.00  0.00    +0.000 OA
ATOM     10  O   UNL     1     103.786 134.001 140.999  0.00  0.00    +0.000 OA
ATOM     11  C   UNL     1     103.261 130.487 141.846  0.00  0.00    +0.000 C 
ATOM     12  C   UNL     1     102.444 130.534 141.951  0.00  0.00    +0.000 C 
ATOM     13  C   UNL     1     102.055 131.254 141.848  0.00  0.00    +0.000 C 
ATOM     14  C   UNL     1     102.482 131.927 141.640  0.00  0.00    +0.000 A 
ATOM     15  C   UNL     1     103.299 131.881 141.534  0.00  0.00    +0.000 A 
ATOM     16  C   UNL     1     102.065 132.672 141.535  0.00  0.00    +0.000 A 
ATOM     17  C   UNL     1     103.756 132.576 141.316  0.00  0.00    +0.000 A 
ATOM     18  C   UNL     1     103.356 133.329 141.208  0.00  0.00    +0.000 A 
ATOM     19  C   UNL     1     102.505 133.377 141.318  0.00  0.00    +0.000 A 
ENDBRANCH   2  11
BRANCH   1  20
ATOM     20  O   UNL     1     104.818 127.606 142.258  0.00  0.00    +0.000 OA
BRANCH  20  29
ATOM     21  O   UNL     1     106.129 128.126 142.030  0.00  0.00    +0.000 OA
ATOM     22  O   UNL     1     107.057 126.492 143.641  0.00  0.00    +0.000 OA
ATOM     23  O   UNL     1     108.058 127.556 142.876  0.00  0.00    +0.000 OA
ATOM     24  O   UNL     1     105.436 126.517 143.332  0.00  0.00    +0.000 OA
ATOM     25  C   UNL     1     106.748 127.037 143.104  0.00  0.00    +0.000 C 
ATOM     26  C   UNL     1     107.248 127.569 142.721  0.00  0.00    +0.000 C 
ATOM     27  C   UNL     1     105.937 127.050 142.949  0.00  0.00    +0.000 C 
ATOM     28  C   UNL     1     106.939 128.114 142.184  0.00  0.00    +0.000 C 
ATOM     29  C   UNL     1     105.627 127.594 142.412  0.00  0.00    +0.000 C 
BRANCH  28  31
ATOM     30  O   UNL     1     107.397 128.738 140.983  0.00  0.00    +0.000 OA
ATOM     31  C   UNL     1     107.440 128.646 141.802  0.00  0.00    +0.000 C 
ENDBRANCH  28  31
ENDBRANCH  20  29
ENDBRANCH   1  20
TORSDOF 4
ENDMDL
MODEL 8
REMARK VINA RESULT:      -8.8      1.228      5.995
REMARK  Name = 42607906
REMARK  4 active torsions:
REMARK  status: ('A' for Active; 'I' for Inactive)
REMARK    1  A    between atoms: O_2  and  C_15
REMARK    2  A    between atoms: O_2  and  C_18
REMARK    3  A    between atoms: C_14  and  C_16
REMARK    4  A    between atoms: C_17  and  C_19
REMARK                            x       y       z     vdW  Elec       q    Type
REMARK                         _______ _______ _______ _____ _____    ______ ____
ROOT
ATOM      1  C   UNL     1     112.080 127.704 136.073  0.00  0.00    +0.000 A 
ATOM      2  C   UNL     1     110.799 128.743 136.017  0.00  0.00    +0.000 A 
ATOM      3  C   UNL     1     111.757 127.923 135.345  0.00  0.00    +0.000 A 
ATOM      4  C   UNL     1     111.762 128.006 136.772  0.00  0.00    +0.000 A 
ATOM      5  C   UNL     1     111.116 128.442 135.317  0.00  0.00    +0.000 A 
ATOM      6  C   UNL     1     111.121 128.526 136.744  0.00  0.00    +0.000 A 
ENDROOT
BRANCH   2  11
ATOM      7  O   UNL     1     110.288 130.078 135.994  0.00  0.00    +0.000 OA
ATOM      8  O   UNL     1     107.979 129.191 135.892  0.00  0.00    +0.000 OA
ATOM      9  O   UNL     1     107.436 130.528 135.868  0.00  0.00    +0.000 OA
ATOM     10  O   UNL     1     109.264 132.804 135.950  0.00  0.00    +0.000 OA
ATOM     11  C   UNL     1     110.159 129.263 135.989  0.00  0.00    +0.000 C 
ATOM     12  C   UNL     1     109.389 128.968 135.954  0.00  0.00    +0.000 C 
ATOM     13  C   UNL     1     108.749 129.487 135.926  0.00  0.00    +0.000 C 
ATOM     14  C   UNL     1     108.878 130.301 135.932  0.00  0.00    +0.000 A 
ATOM     15  C   UNL     1     109.647 130.597 135.966  0.00  0.00    +0.000 A 
ATOM     16  C   UNL     1     108.202 130.833 135.902  0.00  0.00    +0.000 A 
ATOM     17  C   UNL     1     109.795 131.444 135.973  0.00  0.00    +0.000 A 
ATOM     18  C   UNL     1     109.132 131.990 135.944  0.00  0.00    +0.000 A 
ATOM     19  C   UNL     1     108.330 131.682 135.908  0.00  0.00    +0.000 A 
ENDBRANCH   2  11
BRANCH   1  20
ATOM     20  O   UNL     1     112.720 127.185 136.101  0.00  0.00    +0.000 OA
BRANCH  20  29
ATOM     21  O   UNL     1     111.944 125.986 136.136  0.00  0.00    +0.000 OA
ATOM     22  O   UNL     1     113.625 124.940 137.620  0.00  0.00    +0.000 OA
ATOM     23  O   UNL     1     112.289 124.090 137.160  0.00  0.00    +0.000 OA
ATOM     24  O   UNL     1     113.841 126.488 137.091  0.00  0.00    +0.000 OA
ATOM     25  C   UNL     1     113.065 125.288 137.125  0.00  0.00    +0.000 C 
ATOM     26  C   UNL     1     112.396 124.864 136.895  0.00  0.00    +0.000 C 
ATOM     27  C   UNL     1     113.173 126.063 136.860  0.00  0.00    +0.000 C 
ATOM     28  C   UNL     1     111.836 125.213 136.400  0.00  0.00    +0.000 C 
ATOM     29  C   UNL     1     112.612 126.412 136.366  0.00  0.00    +0.000 C 
BRANCH  28  31
ATOM     30  O   UNL     1     110.853 124.889 135.414  0.00  0.00    +0.000 OA
ATOM     31  C   UNL     1     111.168 124.788 136.170  0.00  0.00    +0.000 C 
ENDBRANCH  28  31
ENDBRANCH  20  29
ENDBRANCH   1  20
TORSDOF 4
ENDMDL
MODEL 9
REMARK VINA RESULT:      -8.7      2.089      6.035
REMARK  Name = 42607906
REMARK  4 active torsions:
REMARK  status: ('A' for Active; 'I' for Inactive)
REMARK    1  A    between atoms: O_2  and  C_15
REMARK    2  A    between atoms: O_2  and  C_18
REMARK    3  A    between atoms: C_14  and  C_16
REMARK    4  A    between atoms: C_17  and  C_19
REMARK                            x       y       z     vdW  Elec       q    Type
REMARK                         _______ _______ _______ _____ _____    ______ ____
ROOT
ATOM      1  C   UNL     1     113.049 127.264 136.775  0.00  0.00    +0.000 A 
ATOM      2  C   UNL     1     112.218 128.551 137.389  0.00  0.00    +0.000 A 
ATOM      3  C   UNL     1     113.026 127.390 137.591  0.00  0.00    +0.000 A 
ATOM      4  C   UNL     1     112.657 127.783 136.268  0.00  0.00    +0.000 A 
ATOM      5  C   UNL     1     112.610 128.033 137.898  0.00  0.00    +0.000 A 
ATOM      6  C   UNL     1     112.241 128.426 136.574  0.00  0.00    +0.000 A 
ENDROOT
BRANCH   2  11
ATOM      7  O   UNL     1     111.018 129.103 137.935  0.00  0.00    +0.000 OA
ATOM      8  O   UNL     1     112.124 131.308 138.137  0.00  0.00    +0.000 OA
ATOM      9  O   UNL     1     110.925 131.890 138.691  0.00  0.00    +0.000 OA
ATOM     10  O   UNL     1     108.564 130.209 139.047  0.00  0.00    +0.000 OA
ATOM     11  C   UNL     1     111.803 129.194 137.696  0.00  0.00    +0.000 C 
ATOM     12  C   UNL     1     112.171 129.929 137.763  0.00  0.00    +0.000 C 
ATOM     13  C   UNL     1     111.755 130.573 138.070  0.00  0.00    +0.000 C 
ATOM     14  C   UNL     1     110.971 130.481 138.309  0.00  0.00    +0.000 A 
ATOM     15  C   UNL     1     110.602 129.746 138.242  0.00  0.00    +0.000 A 
ATOM     16  C   UNL     1     110.549 131.159 138.627  0.00  0.00    +0.000 A 
ATOM     17  C   UNL     1     109.786 129.637 138.488  0.00  0.00    +0.000 A 
ATOM     18  C   UNL     1     109.348 130.304 138.808  0.00  0.00    +0.000 A 
ATOM     19  C   UNL     1     109.732 131.069 138.878  0.00  0.00    +0.000 A 
ENDBRANCH   2  11
BRANCH   1  20
ATOM     20  O   UNL     1     113.465 126.621 136.469  0.00  0.00    +0.000 OA
BRANCH  20  29
ATOM     21  O   UNL     1     112.363 125.720 136.339  0.00  0.00    +0.000 OA
ATOM     22  O   UNL     1     113.796 123.856 137.112  0.00  0.00    +0.000 OA
ATOM     23  O   UNL     1     112.218 123.578 136.724  0.00  0.00    +0.000 OA
ATOM     24  O   UNL     1     114.420 125.378 136.984  0.00  0.00    +0.000 OA
ATOM     25  C   UNL     1     113.319 124.478 136.854  0.00  0.00    +0.000 C 
ATOM     26  C   UNL     1     112.529 124.339 136.660  0.00  0.00    +0.000 C 
ATOM     27  C   UNL     1     113.631 125.239 136.790  0.00  0.00    +0.000 C 
ATOM     28  C   UNL     1     112.051 124.960 136.403  0.00  0.00    +0.000 C 
ATOM     29  C   UNL     1     113.153 125.861 136.532  0.00  0.00    +0.000 C 
BRANCH  28  31
ATOM     30  O   UNL     1     110.965 125.068 135.480  0.00  0.00    +0.000 OA
ATOM     31  C   UNL     1     111.262 124.820 136.209  0.00  0.00    +0.000 C 
ENDBRANCH  28  31
ENDBRANCH  20  29
ENDBRANCH   1  20
TORSDOF 4
ENDMDL
