MODEL 1
REMARK VINA RESULT:      -9.7      0.000      0.000
REMARK  Name = 480863
REMARK  4 active torsions:
REMARK  status: ('A' for Active; 'I' for Inactive)
REMARK    1  A    between atoms: O_3  and  C_14
REMARK    2  A    between atoms: C_8  and  C_18
REMARK    3  A    between atoms: C_23  and  C_26
REMARK    4  A    between atoms: C_26  and  C_28
REMARK                            x       y       z     vdW  Elec       q    Type
REMARK                         _______ _______ _______ _____ _____    ______ ____
ROOT
ATOM      1  O   UNL     1     104.668 127.817 141.584  0.00  0.00    +0.000 OA
ATOM      2  O   UNL     1     102.766 129.827 140.709  0.00  0.00    +0.000 OA
ATOM      3  C   UNL     1     105.202 127.501 142.180  0.00  0.00    +0.000 C 
ATOM      4  C   UNL     1     105.290 127.910 142.929  0.00  0.00    +0.000 C 
ATOM      5  C   UNL     1     102.407 130.957 141.603  0.00  0.00    +0.000 C 
ATOM      6  C   UNL     1     104.843 128.631 143.074  0.00  0.00    +0.000 C 
ATOM      7  C   UNL     1     104.315 128.931 142.467  0.00  0.00    +0.000 A 
ATOM      8  C   UNL     1     102.941 130.641 142.199  0.00  0.00    +0.000 C 
ATOM      9  C   UNL     1     103.378 129.920 142.036  0.00  0.00    +0.000 A 
ATOM     10  C   UNL     1     104.230 128.537 141.747  0.00  0.00    +0.000 A 
ATOM     11  C   UNL     1     103.889 129.622 142.612  0.00  0.00    +0.000 A 
ATOM     12  C   UNL     1     103.294 129.527 141.316  0.00  0.00    +0.000 A 
ATOM     13  C   UNL     1     102.319 130.547 140.853  0.00  0.00    +0.000 C 
ATOM     14  C   UNL     1     103.720 128.835 141.172  0.00  0.00    +0.000 A 
ATOM     15  C   UNL     1     105.742 126.928 142.426  0.00  0.00    +0.000 C 
ATOM     16  C   UNL     1     105.397 126.875 141.678  0.00  0.00    +0.000 C 
ENDROOT
BRANCH   5  19
ATOM     17  O   UNL     1     102.931 132.394 140.984  0.00  0.00    +0.000 OA
ATOM     18  O   UNL     1     100.710 133.725 142.195  0.00  0.00    +0.000 OA
ATOM     19  C   UNL     1     101.982 131.649 141.751  0.00  0.00    +0.000 A 
ATOM     20  C   UNL     1     102.245 132.367 141.442  0.00  0.00    +0.000 A 
ATOM     21  C   UNL     1     101.296 131.623 142.209  0.00  0.00    +0.000 A 
ATOM     22  C   UNL     1     101.821 133.060 141.589  0.00  0.00    +0.000 A 
ATOM     23  C   UNL     1     100.873 132.314 142.357  0.00  0.00    +0.000 A 
ATOM     24  C   UNL     1     101.135 133.033 142.047  0.00  0.00    +0.000 A 
BRANCH  22  25
ATOM     25  C   UNL     1     102.082 133.778 141.280  0.00  0.00    +0.000 C 
BRANCH  25  26
ATOM     26  C   UNL     1     102.574 134.266 141.727  0.00  0.00    +0.000 C 
ATOM     27  C   UNL     1     102.841 134.981 141.415  0.00  0.00    +0.000 C 
ATOM     28  C   UNL     1     103.333 135.469 141.862  0.00  0.00    +0.000 C 
ATOM     29  C   UNL     1     102.615 135.209 140.654  0.00  0.00    +0.000 C 
ENDBRANCH  25  26
ENDBRANCH  22  25
ENDBRANCH   5  19
BRANCH  11  30
ATOM     30  O   UNL     1     103.974 130.016 143.332  0.00  0.00    +0.000 OA
ATOM     31  C   UNL     1     104.633 130.492 143.467  0.00  0.00    +0.000 C 
ENDBRANCH  11  30
TORSDOF 4
ENDMDL
MODEL 2
REMARK VINA RESULT:      -9.4      9.035     10.595
REMARK  Name = 480863
REMARK  4 active torsions:
REMARK  status: ('A' for Active; 'I' for Inactive)
REMARK    1  A    between atoms: O_3  and  C_14
REMARK    2  A    between atoms: C_8  and  C_18
REMARK    3  A    between atoms: C_23  and  C_26
REMARK    4  A    between atoms: C_26  and  C_28
REMARK                            x       y       z     vdW  Elec       q    Type
REMARK                         _______ _______ _______ _____ _____    ______ ____
ROOT
ATOM      1  O   UNL     1     114.163 126.131 136.679  0.00  0.00    +0.000 OA
ATOM      2  O   UNL     1     113.176 128.696 135.744  0.00  0.00    +0.000 OA
ATOM      3  C   UNL     1     114.019 125.345 136.997  0.00  0.00    +0.000 C 
ATOM      4  C   UNL     1     113.213 125.092 137.152  0.00  0.00    +0.000 C 
ATOM      5  C   UNL     1     111.718 128.978 135.734  0.00  0.00    +0.000 C 
ATOM      6  C   UNL     1     112.561 125.627 136.987  0.00  0.00    +0.000 C 
ATOM      7  C   UNL     1     112.724 126.409 136.670  0.00  0.00    +0.000 A 
ATOM      8  C   UNL     1     111.575 128.192 136.052  0.00  0.00    +0.000 C 
ATOM      9  C   UNL     1     112.239 127.671 136.210  0.00  0.00    +0.000 A 
ATOM     10  C   UNL     1     113.498 126.652 136.521  0.00  0.00    +0.000 A 
ATOM     11  C   UNL     1     112.094 126.918 136.515  0.00  0.00    +0.000 A 
ATOM     12  C   UNL     1     113.013 127.915 136.061  0.00  0.00    +0.000 A 
ATOM     13  C   UNL     1     112.524 129.232 135.579  0.00  0.00    +0.000 C 
ATOM     14  C   UNL     1     113.642 127.404 136.217  0.00  0.00    +0.000 A 
ATOM     15  C   UNL     1     114.302 124.617 137.262  0.00  0.00    +0.000 C 
ATOM     16  C   UNL     1     114.830 125.194 137.000  0.00  0.00    +0.000 C 
ENDROOT
BRANCH   5  19
ATOM     17  O   UNL     1     111.347 130.182 136.800  0.00  0.00    +0.000 OA
ATOM     18  O   UNL     1     109.190 131.007 135.116  0.00  0.00    +0.000 OA
ATOM     19  C   UNL     1     111.086 129.486 135.579  0.00  0.00    +0.000 A 
ATOM     20  C   UNL     1     110.901 130.087 136.112  0.00  0.00    +0.000 A 
ATOM     21  C   UNL     1     110.639 129.391 134.892  0.00  0.00    +0.000 A 
ATOM     22  C   UNL     1     110.269 130.595 135.959  0.00  0.00    +0.000 A 
ATOM     23  C   UNL     1     110.008 129.898 134.738  0.00  0.00    +0.000 A 
ATOM     24  C   UNL     1     109.822 130.500 135.271  0.00  0.00    +0.000 A 
BRANCH  22  25
ATOM     25  C   UNL     1     110.083 131.196 136.491  0.00  0.00    +0.000 C 
BRANCH  25  26
ATOM     26  C   UNL     1     110.390 131.954 136.382  0.00  0.00    +0.000 C 
ATOM     27  C   UNL     1     110.212 132.553 136.921  0.00  0.00    +0.000 C 
ATOM     28  C   UNL     1     110.520 133.311 136.812  0.00  0.00    +0.000 C 
ATOM     29  C   UNL     1     109.727 132.394 137.569  0.00  0.00    +0.000 C 
ENDBRANCH  25  26
ENDBRANCH  22  25
ENDBRANCH   5  19
BRANCH  11  30
ATOM     30  O   UNL     1     111.320 126.674 136.663  0.00  0.00    +0.000 OA
ATOM     31  C   UNL     1     111.024 126.690 137.433  0.00  0.00    +0.000 C 
ENDBRANCH  11  30
TORSDOF 4
ENDMDL
MODEL 3
REMARK VINA RESULT:      -9.3      1.120      5.621
REMARK  Name = 480863
REMARK  4 active torsions:
REMARK  status: ('A' for Active; 'I' for Inactive)
REMARK    1  A    between atoms: O_3  and  C_14
REMARK    2  A    between atoms: C_8  and  C_18
REMARK    3  A    between atoms: C_23  and  C_26
REMARK    4  A    between atoms: C_26  and  C_28
REMARK                            x       y       z     vdW  Elec       q    Type
REMARK                         _______ _______ _______ _____ _____    ______ ____
ROOT
ATOM      1  O   UNL     1     102.318 135.007 141.598  0.00  0.00    +0.000 OA
ATOM      2  O   UNL     1     101.744 132.171 141.823  0.00  0.00    +0.000 OA
ATOM      3  C   UNL     1     102.812 135.650 141.310  0.00  0.00    +0.000 C 
ATOM      4  C   UNL     1     103.511 135.471 140.845  0.00  0.00    +0.000 C 
ATOM      5  C   UNL     1     102.640 131.173 141.186  0.00  0.00    +0.000 C 
ATOM      6  C   UNL     1     103.708 134.652 140.673  0.00  0.00    +0.000 C 
ATOM      7  C   UNL     1     103.203 134.024 140.969  0.00  0.00    +0.000 A 
ATOM      8  C   UNL     1     103.134 131.816 140.899  0.00  0.00    +0.000 C 
ATOM      9  C   UNL     1     102.921 132.627 141.080  0.00  0.00    +0.000 A 
ATOM     10  C   UNL     1     102.532 134.195 141.416  0.00  0.00    +0.000 A 
ATOM     11  C   UNL     1     103.398 133.240 140.801  0.00  0.00    +0.000 A 
ATOM     12  C   UNL     1     102.249 132.799 141.527  0.00  0.00    +0.000 A 
ATOM     13  C   UNL     1     101.941 131.352 141.652  0.00  0.00    +0.000 C 
ATOM     14  C   UNL     1     102.055 133.583 141.695  0.00  0.00    +0.000 A 
ATOM     15  C   UNL     1     102.972 136.457 141.248  0.00  0.00    +0.000 C 
ATOM     16  C   UNL     1     102.310 136.200 141.666  0.00  0.00    +0.000 C 
ENDROOT
BRANCH   5  19
ATOM     17  O   UNL     1     103.640 130.337 142.198  0.00  0.00    +0.000 OA
ATOM     18  O   UNL     1     103.431 128.042 140.508  0.00  0.00    +0.000 OA
ATOM     19  C   UNL     1     102.838 130.390 141.016  0.00  0.00    +0.000 A 
ATOM     20  C   UNL     1     103.338 129.972 141.523  0.00  0.00    +0.000 A 
ATOM     21  C   UNL     1     102.536 130.025 140.341  0.00  0.00    +0.000 A 
ATOM     22  C   UNL     1     103.536 129.189 141.354  0.00  0.00    +0.000 A 
ATOM     23  C   UNL     1     102.734 129.243 140.171  0.00  0.00    +0.000 A 
ATOM     24  C   UNL     1     103.234 128.825 140.678  0.00  0.00    +0.000 A 
BRANCH  22  25
ATOM     25  C   UNL     1     104.035 128.771 141.859  0.00  0.00    +0.000 C 
BRANCH  25  26
ATOM     26  C   UNL     1     104.843 128.726 141.698  0.00  0.00    +0.000 C 
ATOM     27  C   UNL     1     105.347 128.336 142.222  0.00  0.00    +0.000 C 
ATOM     28  C   UNL     1     106.155 128.292 142.061  0.00  0.00    +0.000 C 
ATOM     29  C   UNL     1     105.044 127.991 142.907  0.00  0.00    +0.000 C 
ENDBRANCH  25  26
ENDBRANCH  22  25
ENDBRANCH   5  19
BRANCH  11  30
ATOM     30  O   UNL     1     104.070 133.069 140.354  0.00  0.00    +0.000 OA
ATOM     31  C   UNL     1     104.056 133.165 139.536  0.00  0.00    +0.000 C 
ENDBRANCH  11  30
TORSDOF 4
ENDMDL
MODEL 4
REMARK VINA RESULT:      -9.2      9.041     10.554
REMARK  Name = 480863
REMARK  4 active torsions:
REMARK  status: ('A' for Active; 'I' for Inactive)
REMARK    1  A    between atoms: O_3  and  C_14
REMARK    2  A    between atoms: C_8  and  C_18
REMARK    3  A    between atoms: C_23  and  C_26
REMARK    4  A    between atoms: C_26  and  C_28
REMARK                            x       y       z     vdW  Elec       q    Type
REMARK                         _______ _______ _______ _____ _____    ______ ____
ROOT
ATOM      1  O   UNL     1     114.077 126.174 136.533  0.00  0.00    +0.000 OA
ATOM      2  O   UNL     1     113.041 128.731 135.630  0.00  0.00    +0.000 OA
ATOM      3  C   UNL     1     114.187 125.588 137.153  0.00  0.00    +0.000 C 
ATOM      4  C   UNL     1     113.867 125.736 137.937  0.00  0.00    +0.000 C 
ATOM      5  C   UNL     1     112.297 129.610 136.568  0.00  0.00    +0.000 C 
ATOM      6  C   UNL     1     113.443 126.467 138.091  0.00  0.00    +0.000 C 
ATOM      7  C   UNL     1     113.343 127.041 137.459  0.00  0.00    +0.000 A 
ATOM      8  C   UNL     1     112.406 129.024 137.188  0.00  0.00    +0.000 C 
ATOM      9  C   UNL     1     112.833 128.299 137.015  0.00  0.00    +0.000 A 
ATOM     10  C   UNL     1     113.650 126.899 136.706  0.00  0.00    +0.000 A 
ATOM     11  C   UNL     1     112.935 127.740 137.614  0.00  0.00    +0.000 A 
ATOM     12  C   UNL     1     113.140 128.158 136.262  0.00  0.00    +0.000 A 
ATOM     13  C   UNL     1     112.616 129.463 135.784  0.00  0.00    +0.000 C 
ATOM     14  C   UNL     1     113.548 127.457 136.108  0.00  0.00    +0.000 A 
ATOM     15  C   UNL     1     114.482 124.861 137.407  0.00  0.00    +0.000 C 
ATOM     16  C   UNL     1     114.599 125.104 136.627  0.00  0.00    +0.000 C 
ENDROOT
BRANCH   5  19
ATOM     17  O   UNL     1     110.702 129.740 136.167  0.00  0.00    +0.000 OA
ATOM     18  O   UNL     1     110.660 132.405 137.198  0.00  0.00    +0.000 OA
ATOM     19  C   UNL     1     111.888 130.309 136.726  0.00  0.00    +0.000 A 
ATOM     20  C   UNL     1     111.090 130.374 136.525  0.00  0.00    +0.000 A 
ATOM     21  C   UNL     1     112.276 130.943 137.084  0.00  0.00    +0.000 A 
ATOM     22  C   UNL     1     110.680 131.073 136.683  0.00  0.00    +0.000 A 
ATOM     23  C   UNL     1     111.867 131.642 137.241  0.00  0.00    +0.000 A 
ATOM     24  C   UNL     1     111.069 131.706 137.041  0.00  0.00    +0.000 A 
BRANCH  22  25
ATOM     25  C   UNL     1     109.883 131.138 136.482  0.00  0.00    +0.000 C 
BRANCH  25  26
ATOM     26  C   UNL     1     109.663 131.496 135.772  0.00  0.00    +0.000 C 
ATOM     27  C   UNL     1     108.866 131.552 135.568  0.00  0.00    +0.000 C 
ATOM     28  C   UNL     1     108.646 131.910 134.858  0.00  0.00    +0.000 C 
ATOM     29  C   UNL     1     108.288 131.251 136.075  0.00  0.00    +0.000 C 
ENDBRANCH  25  26
ENDBRANCH  22  25
ENDBRANCH   5  19
BRANCH  11  30
ATOM     30  O   UNL     1     112.628 127.882 138.366  0.00  0.00    +0.000 OA
ATOM     31  C   UNL     1     111.923 127.524 138.598  0.00  0.00    +0.000 C 
ENDBRANCH  11  30
TORSDOF 4
ENDMDL
MODEL 5
REMARK VINA RESULT:      -9.1      8.749     11.545
REMARK  Name = 480863
REMARK  4 active torsions:
REMARK  status: ('A' for Active; 'I' for Inactive)
REMARK    1  A    between atoms: O_3  and  C_14
REMARK    2  A    between atoms: C_8  and  C_18
REMARK    3  A    between atoms: C_23  and  C_26
REMARK    4  A    between atoms: C_26  and  C_28
REMARK                            x       y       z     vdW  Elec       q    Type
REMARK                         _______ _______ _______ _____ _____    ______ ____
ROOT
ATOM      1  O   UNL     1     110.676 131.595 136.513  0.00  0.00    +0.000 OA
ATOM      2  O   UNL     1     111.189 129.021 135.274  0.00  0.00    +0.000 OA
ATOM      3  C   UNL     1     110.544 132.075 137.215  0.00  0.00    +0.000 C 
ATOM      4  C   UNL     1     110.545 131.702 137.989  0.00  0.00    +0.000 C 
ATOM      5  C   UNL     1     111.323 127.801 136.110  0.00  0.00    +0.000 C 
ATOM      6  C   UNL     1     110.678 130.855 138.051  0.00  0.00    +0.000 C 
ATOM      7  C   UNL     1     110.808 130.393 137.339  0.00  0.00    +0.000 A 
ATOM      8  C   UNL     1     111.191 128.281 136.812  0.00  0.00    +0.000 C 
ATOM      9  C   UNL     1     111.060 129.126 136.729  0.00  0.00    +0.000 A 
ATOM     10  C   UNL     1     110.807 130.751 136.596  0.00  0.00    +0.000 A 
ATOM     11  C   UNL     1     110.934 129.581 137.407  0.00  0.00    +0.000 A 
ATOM     12  C   UNL     1     111.059 129.483 135.986  0.00  0.00    +0.000 A 
ATOM     13  C   UNL     1     111.322 128.174 135.336  0.00  0.00    +0.000 C 
ATOM     14  C   UNL     1     110.933 130.296 135.920  0.00  0.00    +0.000 A 
ATOM     15  C   UNL     1     110.398 132.808 137.564  0.00  0.00    +0.000 C 
ATOM     16  C   UNL     1     110.471 132.749 136.745  0.00  0.00    +0.000 C 
ENDROOT
BRANCH   5  19
ATOM     17  O   UNL     1     112.861 127.209 136.168  0.00  0.00    +0.000 OA
ATOM     18  O   UNL     1     111.830 124.553 136.392  0.00  0.00    +0.000 OA
ATOM     19  C   UNL     1     111.449 126.989 136.181  0.00  0.00    +0.000 A 
ATOM     20  C   UNL     1     112.219 126.693 136.210  0.00  0.00    +0.000 A 
ATOM     21  C   UNL     1     110.807 126.473 136.222  0.00  0.00    +0.000 A 
ATOM     22  C   UNL     1     112.346 125.881 136.280  0.00  0.00    +0.000 A 
ATOM     23  C   UNL     1     110.933 125.661 136.292  0.00  0.00    +0.000 A 
ATOM     24  C   UNL     1     111.703 125.365 136.321  0.00  0.00    +0.000 A 
BRANCH  22  25
ATOM     25  C   UNL     1     113.115 125.584 136.309  0.00  0.00    +0.000 C 
BRANCH  25  26
ATOM     26  C   UNL     1     113.482 125.458 137.037  0.00  0.00    +0.000 C 
ATOM     27  C   UNL     1     114.268 125.208 137.065  0.00  0.00    +0.000 C 
ATOM     28  C   UNL     1     114.635 125.082 137.793  0.00  0.00    +0.000 C 
ATOM     29  C   UNL     1     114.686 125.083 136.365  0.00  0.00    +0.000 C 
ENDBRANCH  25  26
ENDBRANCH  22  25
ENDBRANCH   5  19
BRANCH  11  30
ATOM     30  O   UNL     1     110.935 129.223 138.150  0.00  0.00    +0.000 OA
ATOM     31  C   UNL     1     111.596 129.288 138.638  0.00  0.00    +0.000 C 
ENDBRANCH  11  30
TORSDOF 4
ENDMDL
MODEL 6
REMARK VINA RESULT:      -9.1      3.634      6.315
REMARK  Name = 480863
REMARK  4 active torsions:
REMARK  status: ('A' for Active; 'I' for Inactive)
REMARK    1  A    between atoms: O_3  and  C_14
REMARK    2  A    between atoms: C_8  and  C_18
REMARK    3  A    between atoms: C_23  and  C_26
REMARK    4  A    between atoms: C_26  and  C_28
REMARK                            x       y       z     vdW  Elec       q    Type
REMARK                         _______ _______ _______ _____ _____    ______ ____
ROOT
ATOM      1  O   UNL     1     106.231 124.658 147.296  0.00  0.00    +0.000 OA
ATOM      2  O   UNL     1     105.563 125.302 144.546  0.00  0.00    +0.000 OA
ATOM      3  C   UNL     1     106.630 124.848 148.033  0.00  0.00    +0.000 C 
ATOM      4  C   UNL     1     107.092 125.571 148.091  0.00  0.00    +0.000 C 
ATOM      5  C   UNL     1     106.080 126.546 143.922  0.00  0.00    +0.000 C 
ATOM      6  C   UNL     1     107.148 126.093 147.410  0.00  0.00    +0.000 C 
ATOM      7  C   UNL     1     106.741 125.886 146.682  0.00  0.00    +0.000 A 
ATOM      8  C   UNL     1     106.480 126.737 144.659  0.00  0.00    +0.000 C 
ATOM      9  C   UNL     1     106.413 126.203 145.328  0.00  0.00    +0.000 A 
ATOM     10  C   UNL     1     106.298 125.192 146.627  0.00  0.00    +0.000 A 
ATOM     11  C   UNL     1     106.799 126.391 146.033  0.00  0.00    +0.000 A 
ATOM     12  C   UNL     1     105.970 125.509 145.273  0.00  0.00    +0.000 A 
ATOM     13  C   UNL     1     105.619 125.824 143.865  0.00  0.00    +0.000 C 
ATOM     14  C   UNL     1     105.913 125.004 145.923  0.00  0.00    +0.000 A 
ATOM     15  C   UNL     1     106.818 124.663 148.815  0.00  0.00    +0.000 C 
ATOM     16  C   UNL     1     106.340 124.155 148.374  0.00  0.00    +0.000 C 
ENDROOT
BRANCH   5  19
ATOM     17  O   UNL     1     104.874 127.627 143.608  0.00  0.00    +0.000 OA
ATOM     18  O   UNL     1     106.317 128.578 141.332  0.00  0.00    +0.000 OA
ATOM     19  C   UNL     1     106.140 127.054 143.274  0.00  0.00    +0.000 A 
ATOM     20  C   UNL     1     105.536 127.595 143.118  0.00  0.00    +0.000 A 
ATOM     21  C   UNL     1     106.802 127.022 142.784  0.00  0.00    +0.000 A 
ATOM     22  C   UNL     1     105.595 128.103 142.470  0.00  0.00    +0.000 A 
ATOM     23  C   UNL     1     106.861 127.530 142.137  0.00  0.00    +0.000 A 
ATOM     24  C   UNL     1     106.258 128.070 141.980  0.00  0.00    +0.000 A 
BRANCH  22  25
ATOM     25  C   UNL     1     104.992 128.643 142.313  0.00  0.00    +0.000 C 
BRANCH  25  26
ATOM     26  C   UNL     1     104.461 128.502 141.697  0.00  0.00    +0.000 C 
ATOM     27  C   UNL     1     103.830 129.018 141.570  0.00  0.00    +0.000 C 
ATOM     28  C   UNL     1     103.299 128.877 140.955  0.00  0.00    +0.000 C 
ATOM     29  C   UNL     1     103.730 129.675 142.059  0.00  0.00    +0.000 C 
ENDBRANCH  25  26
ENDBRANCH  22  25
ENDBRANCH   5  19
BRANCH  11  30
ATOM     30  O   UNL     1     107.242 127.085 146.088  0.00  0.00    +0.000 OA
ATOM     31  C   UNL     1     106.930 127.744 146.473  0.00  0.00    +0.000 C 
ENDBRANCH  11  30
TORSDOF 4
ENDMDL
MODEL 7
REMARK VINA RESULT:      -9.0      9.088     10.814
REMARK  Name = 480863
REMARK  4 active torsions:
REMARK  status: ('A' for Active; 'I' for Inactive)
REMARK    1  A    between atoms: O_3  and  C_14
REMARK    2  A    between atoms: C_8  and  C_18
REMARK    3  A    between atoms: C_23  and  C_26
REMARK    4  A    between atoms: C_26  and  C_28
REMARK                            x       y       z     vdW  Elec       q    Type
REMARK                         _______ _______ _______ _____ _____    ______ ____
ROOT
ATOM      1  O   UNL     1     111.978 125.076 136.236  0.00  0.00    +0.000 OA
ATOM      2  O   UNL     1     111.796 127.885 135.527  0.00  0.00    +0.000 OA
ATOM      3  C   UNL     1     112.264 124.452 136.755  0.00  0.00    +0.000 C 
ATOM      4  C   UNL     1     112.748 124.655 137.434  0.00  0.00    +0.000 C 
ATOM      5  C   UNL     1     112.473 128.912 136.360  0.00  0.00    +0.000 C 
ATOM      6  C   UNL     1     112.940 125.479 137.587  0.00  0.00    +0.000 C 
ATOM      7  C   UNL     1     112.646 126.088 137.058  0.00  0.00    +0.000 A 
ATOM      8  C   UNL     1     112.759 128.288 136.878  0.00  0.00    +0.000 C 
ATOM      9  C   UNL     1     112.556 127.471 136.709  0.00  0.00    +0.000 A 
ATOM     10  C   UNL     1     112.181 125.893 136.405  0.00  0.00    +0.000 A 
ATOM     11  C   UNL     1     112.834 126.877 137.211  0.00  0.00    +0.000 A 
ATOM     12  C   UNL     1     112.091 127.276 136.056  0.00  0.00    +0.000 A 
ATOM     13  C   UNL     1     111.989 128.709 135.680  0.00  0.00    +0.000 C 
ATOM     14  C   UNL     1     111.904 126.487 135.905  0.00  0.00    +0.000 A 
ATOM     15  C   UNL     1     112.314 123.653 136.954  0.00  0.00    +0.000 C 
ATOM     16  C   UNL     1     111.886 123.886 136.288  0.00  0.00    +0.000 C 
ENDROOT
BRANCH   5  19
ATOM     17  O   UNL     1     111.347 129.914 137.030  0.00  0.00    +0.000 OA
ATOM     18  O   UNL     1     113.231 132.063 136.980  0.00  0.00    +0.000 OA
ATOM     19  C   UNL     1     112.663 129.700 136.515  0.00  0.00    +0.000 A 
ATOM     20  C   UNL     1     112.100 130.201 136.850  0.00  0.00    +0.000 A 
ATOM     21  C   UNL     1     113.415 129.987 136.335  0.00  0.00    +0.000 A 
ATOM     22  C   UNL     1     112.289 130.989 137.005  0.00  0.00    +0.000 A 
ATOM     23  C   UNL     1     113.605 130.774 136.490  0.00  0.00    +0.000 A 
ATOM     24  C   UNL     1     113.041 131.275 136.825  0.00  0.00    +0.000 A 
BRANCH  22  25
ATOM     25  C   UNL     1     111.726 131.491 137.340  0.00  0.00    +0.000 C 
BRANCH  25  26
ATOM     26  C   UNL     1     111.317 132.028 136.866  0.00  0.00    +0.000 C 
ATOM     27  C   UNL     1     110.713 132.487 137.190  0.00  0.00    +0.000 C 
ATOM     28  C   UNL     1     110.304 133.024 136.716  0.00  0.00    +0.000 C 
ATOM     29  C   UNL     1     110.519 132.410 137.989  0.00  0.00    +0.000 C 
ENDBRANCH  25  26
ENDBRANCH  22  25
ENDBRANCH   5  19
BRANCH  11  30
ATOM     30  O   UNL     1     113.299 127.072 137.864  0.00  0.00    +0.000 OA
ATOM     31  C   UNL     1     112.960 127.109 138.614  0.00  0.00    +0.000 C 
ENDBRANCH  11  30
TORSDOF 4
ENDMDL
MODEL 8
REMARK VINA RESULT:      -9.0      8.125      9.791
REMARK  Name = 480863
REMARK  4 active torsions:
REMARK  status: ('A' for Active; 'I' for Inactive)
REMARK    1  A    between atoms: O_3  and  C_14
REMARK    2  A    between atoms: C_8  and  C_18
REMARK    3  A    between atoms: C_23  and  C_26
REMARK    4  A    between atoms: C_26  and  C_28
REMARK                            x       y       z     vdW  Elec       q    Type
REMARK                         _______ _______ _______ _____ _____    ______ ____
ROOT
ATOM      1  O   UNL     1     111.418 124.701 136.615  0.00  0.00    +0.000 OA
ATOM      2  O   UNL     1     109.471 126.782 136.061  0.00  0.00    +0.000 OA
ATOM      3  C   UNL     1     112.234 124.445 136.706  0.00  0.00    +0.000 C 
ATOM      4  C   UNL     1     112.870 125.012 136.600  0.00  0.00    +0.000 C 
ATOM      5  C   UNL     1     109.920 128.166 135.761  0.00  0.00    +0.000 C 
ATOM      6  C   UNL     1     112.683 125.828 136.405  0.00  0.00    +0.000 C 
ATOM      7  C   UNL     1     111.862 126.065 136.319  0.00  0.00    +0.000 A 
ATOM      8  C   UNL     1     110.736 127.909 135.851  0.00  0.00    +0.000 C 
ATOM      9  C   UNL     1     110.903 127.090 136.046  0.00  0.00    +0.000 A 
ATOM     10  C   UNL     1     111.250 125.521 136.420  0.00  0.00    +0.000 A 
ATOM     11  C   UNL     1     111.689 126.850 136.132  0.00  0.00    +0.000 A 
ATOM     12  C   UNL     1     110.292 126.545 136.148  0.00  0.00    +0.000 A 
ATOM     13  C   UNL     1     109.284 127.598 135.866  0.00  0.00    +0.000 C 
ATOM     14  C   UNL     1     110.466 125.760 136.335  0.00  0.00    +0.000 A 
ATOM     15  C   UNL     1     112.785 123.851 136.863  0.00  0.00    +0.000 C 
ATOM     16  C   UNL     1     111.978 123.678 136.872  0.00  0.00    +0.000 C 
ENDROOT
BRANCH   5  19
ATOM     17  O   UNL     1     109.405 129.200 136.938  0.00  0.00    +0.000 OA
ATOM     18  O   UNL     1     109.241 131.307 135.014  0.00  0.00    +0.000 OA
ATOM     19  C   UNL     1     109.750 128.951 135.574  0.00  0.00    +0.000 A 
ATOM     20  C   UNL     1     109.493 129.469 136.163  0.00  0.00    +0.000 A 
ATOM     21  C   UNL     1     109.838 129.220 134.798  0.00  0.00    +0.000 A 
ATOM     22  C   UNL     1     109.323 130.254 135.977  0.00  0.00    +0.000 A 
ATOM     23  C   UNL     1     109.668 130.004 134.612  0.00  0.00    +0.000 A 
ATOM     24  C   UNL     1     109.411 130.522 135.201  0.00  0.00    +0.000 A 
BRANCH  22  25
ATOM     25  C   UNL     1     109.066 130.772 136.565  0.00  0.00    +0.000 C 
BRANCH  25  26
ATOM     26  C   UNL     1     109.596 131.300 136.911  0.00  0.00    +0.000 C 
ATOM     27  C   UNL     1     109.340 131.812 137.506  0.00  0.00    +0.000 C 
ATOM     28  C   UNL     1     109.870 132.340 137.852  0.00  0.00    +0.000 C 
ATOM     29  C   UNL     1     108.553 131.794 137.754  0.00  0.00    +0.000 C 
ENDBRANCH  25  26
ENDBRANCH  22  25
ENDBRANCH   5  19
BRANCH  11  30
ATOM     30  O   UNL     1     112.300 127.395 136.030  0.00  0.00    +0.000 OA
ATOM     31  C   UNL     1     112.693 127.700 136.688  0.00  0.00    +0.000 C 
ENDBRANCH  11  30
TORSDOF 4
ENDMDL
MODEL 9
REMARK VINA RESULT:      -8.9      8.732     11.548
REMARK  Name = 480863
REMARK  4 active torsions:
REMARK  status: ('A' for Active; 'I' for Inactive)
REMARK    1  A    between atoms: O_3  and  C_14
REMARK    2  A    between atoms: C_8  and  C_18
REMARK    3  A    between atoms: C_23  and  C_26
REMARK    4  A    between atoms: C_26  and  C_28
REMARK                            x       y       z     vdW  Elec       q    Type
REMARK                         _______ _______ _______ _____ _____    ______ ____
ROOT
ATOM      1  O   UNL     1     110.051 131.466 136.724  0.00  0.00    +0.000 OA
ATOM      2  O   UNL     1     110.609 128.718 137.476  0.00  0.00    +0.000 OA
ATOM      3  C   UNL     1     110.297 132.287 136.653  0.00  0.00    +0.000 C 
ATOM      4  C   UNL     1     111.087 132.515 136.901  0.00  0.00    +0.000 C 
ATOM      5  C   UNL     1     111.933 128.351 138.041  0.00  0.00    +0.000 C 
ATOM      6  C   UNL     1     111.621 131.920 137.218  0.00  0.00    +0.000 C 
ATOM      7  C   UNL     1     111.357 131.105 137.281  0.00  0.00    +0.000 A 
ATOM      8  C   UNL     1     112.179 129.172 137.970  0.00  0.00    +0.000 C 
ATOM      9  C   UNL     1     111.632 129.753 137.651  0.00  0.00    +0.000 A 
ATOM     10  C   UNL     1     110.598 130.886 137.043  0.00  0.00    +0.000 A 
ATOM     11  C   UNL     1     111.874 130.539 137.585  0.00  0.00    +0.000 A 
ATOM     12  C   UNL     1     110.873 129.533 137.413  0.00  0.00    +0.000 A 
ATOM     13  C   UNL     1     111.143 128.123 137.792  0.00  0.00    +0.000 C 
ATOM     14  C   UNL     1     110.357 130.100 137.108  0.00  0.00    +0.000 A 
ATOM     15  C   UNL     1     110.136 133.067 136.439  0.00  0.00    +0.000 C 
ATOM     16  C   UNL     1     109.560 132.485 136.340  0.00  0.00    +0.000 C 
ENDROOT
BRANCH   5  19
ATOM     17  O   UNL     1     112.746 127.343 137.019  0.00  0.00    +0.000 OA
ATOM     18  O   UNL     1     114.010 126.095 139.258  0.00  0.00    +0.000 OA
ATOM     19  C   UNL     1     112.452 127.787 138.346  0.00  0.00    +0.000 A 
ATOM     20  C   UNL     1     112.859 127.283 137.834  0.00  0.00    +0.000 A 
ATOM     21  C   UNL     1     112.565 127.727 139.161  0.00  0.00    +0.000 A 
ATOM     22  C   UNL     1     113.378 126.719 138.138  0.00  0.00    +0.000 A 
ATOM     23  C   UNL     1     113.084 127.164 139.465  0.00  0.00    +0.000 A 
ATOM     24  C   UNL     1     113.491 126.659 138.954  0.00  0.00    +0.000 A 
BRANCH  22  25
ATOM     25  C   UNL     1     113.785 126.214 137.628  0.00  0.00    +0.000 C 
BRANCH  25  26
ATOM     26  C   UNL     1     113.476 125.470 137.450  0.00  0.00    +0.000 C 
ATOM     27  C   UNL     1     113.880 124.968 136.935  0.00  0.00    +0.000 C 
ATOM     28  C   UNL     1     113.571 124.224 136.756  0.00  0.00    +0.000 C 
ATOM     29  C   UNL     1     114.594 125.210 136.599  0.00  0.00    +0.000 C 
ENDBRANCH  25  26
ENDBRANCH  22  25
ENDBRANCH   5  19
BRANCH  11  30
ATOM     30  O   UNL     1     112.633 130.759 137.824  0.00  0.00    +0.000 OA
ATOM     31  C   UNL     1     113.226 130.867 137.262  0.00  0.00    +0.000 C 
ENDBRANCH  11  30
TORSDOF 4
ENDMDL
MODEL 10
REMARK VINA RESULT:      -8.9      6.397      8.562
REMARK  Name = 480863
REMARK  4 active torsions:
REMARK  status: ('A' for Active; 'I' for Inactive)
REMARK    1  A    between atoms: O_3  and  C_14
REMARK    2  A    between atoms: C_8  and  C_18
REMARK    3  A    between atoms: C_23  and  C_26
REMARK    4  A    between atoms: C_26  and  C_28
REMARK                            x       y       z     vdW  Elec       q    Type
REMARK                         _______ _______ _______ _____ _____    ______ ____
ROOT
ATOM      1  O   UNL     1     101.833 123.308 147.142  0.00  0.00    +0.000 OA
ATOM      2  O   UNL     1     104.165 124.536 145.925  0.00  0.00    +0.000 OA
ATOM      3  C   UNL     1     101.381 123.089 147.840  0.00  0.00    +0.000 C 
ATOM      4  C   UNL     1     101.685 123.284 148.619  0.00  0.00    +0.000 C 
ATOM      5  C   UNL     1     105.219 125.144 146.775  0.00  0.00    +0.000 C 
ATOM      6  C   UNL     1     102.436 123.697 148.691  0.00  0.00    +0.000 C 
ATOM      7  C   UNL     1     102.872 123.908 147.982  0.00  0.00    +0.000 A 
ATOM      8  C   UNL     1     104.768 124.925 147.474  0.00  0.00    +0.000 C 
ATOM      9  C   UNL     1     104.020 124.512 147.382  0.00  0.00    +0.000 A 
ATOM     10  C   UNL     1     102.581 123.720 147.233  0.00  0.00    +0.000 A 
ATOM     11  C   UNL     1     103.592 124.304 148.057  0.00  0.00    +0.000 A 
ATOM     12  C   UNL     1     103.729 124.325 146.634  0.00  0.00    +0.000 A 
ATOM     13  C   UNL     1     104.916 124.949 145.996  0.00  0.00    +0.000 C 
ATOM     14  C   UNL     1     103.009 123.928 146.560  0.00  0.00    +0.000 A 
ATOM     15  C   UNL     1     100.718 122.739 148.183  0.00  0.00    +0.000 C 
ATOM     16  C   UNL     1     100.799 122.752 147.362  0.00  0.00    +0.000 C 
ENDROOT
BRANCH   5  19
ATOM     17  O   UNL     1     105.294 126.774 146.531  0.00  0.00    +0.000 OA
ATOM     18  O   UNL     1     108.097 126.729 147.089  0.00  0.00    +0.000 OA
ATOM     19  C   UNL     1     105.939 125.540 146.854  0.00  0.00    +0.000 A 
ATOM     20  C   UNL     1     105.976 126.356 146.732  0.00  0.00    +0.000 A 
ATOM     21  C   UNL     1     106.621 125.122 147.055  0.00  0.00    +0.000 A 
ATOM     22  C   UNL     1     106.695 126.752 146.810  0.00  0.00    +0.000 A 
ATOM     23  C   UNL     1     107.340 125.518 147.133  0.00  0.00    +0.000 A 
ATOM     24  C   UNL     1     107.377 126.333 147.011  0.00  0.00    +0.000 A 
BRANCH  22  25
ATOM     25  C   UNL     1     106.733 127.567 146.688  0.00  0.00    +0.000 C 
BRANCH  25  26
ATOM     26  C   UNL     1     107.023 127.865 145.976  0.00  0.00    +0.000 C 
ATOM     27  C   UNL     1     107.007 128.677 145.831  0.00  0.00    +0.000 C 
ATOM     28  C   UNL     1     107.296 128.976 145.119  0.00  0.00    +0.000 C 
ATOM     29  C   UNL     1     106.700 129.191 146.399  0.00  0.00    +0.000 C 
ENDBRANCH  25  26
ENDBRANCH  22  25
ENDBRANCH   5  19
BRANCH  11  30
ATOM     30  O   UNL     1     103.883 124.492 148.805  0.00  0.00    +0.000 OA
ATOM     31  C   UNL     1     103.579 125.139 149.216  0.00  0.00    +0.000 C 
ENDBRANCH  11  30
TORSDOF 4
ENDMDL
