MODEL 1
REMARK VINA RESULT:      -8.2      0.000      0.000
REMARK  Name = 15549896
REMARK  2 active torsions:
REMARK  status: ('A' for Active; 'I' for Inactive)
REMARK    1  A    between atoms: O_3  and  C_15
REMARK    2  A    between atoms: C_6  and  C_10
REMARK                            x       y       z     vdW  Elec       q    Type
REMARK                         _______ _______ _______ _____ _____    ______ ____
ROOT
ATOM      1  O   UNL     1     111.989 126.243 136.023  0.00  0.00    +0.000 OA
ATOM      2  O   UNL     1     111.911 124.107 136.463  0.00  0.00    +0.000 OA
ATOM      3  C   UNL     1     111.701 124.853 136.180  0.00  0.00    +0.000 C 
ATOM      4  C   UNL     1     112.200 125.498 136.307  0.00  0.00    +0.000 C 
ATOM      5  C   UNL     1     110.992 124.953 135.770  0.00  0.00    +0.000 C 
ATOM      6  C   UNL     1     110.782 125.699 135.486  0.00  0.00    +0.000 A 
ATOM      7  C   UNL     1     111.281 126.344 135.613  0.00  0.00    +0.000 A 
ATOM      8  C   UNL     1     110.041 125.791 135.060  0.00  0.00    +0.000 A 
ATOM      9  C   UNL     1     111.072 127.126 135.323  0.00  0.00    +0.000 A 
ATOM     10  C   UNL     1     110.336 127.237 134.895  0.00  0.00    +0.000 A 
ATOM     11  C   UNL     1     109.817 126.565 134.763  0.00  0.00    +0.000 A 
ENDROOT
BRANCH   4  13
ATOM     12  O   UNL     1     115.034 125.095 137.949  0.00  0.00    +0.000 OA
ATOM     13  C   UNL     1     112.908 125.397 136.717  0.00  0.00    +0.000 A 
ATOM     14  C   UNL     1     113.587 125.156 136.315  0.00  0.00    +0.000 A 
ATOM     15  C   UNL     1     112.937 125.538 137.529  0.00  0.00    +0.000 A 
ATOM     16  C   UNL     1     114.295 125.055 136.725  0.00  0.00    +0.000 A 
ATOM     17  C   UNL     1     113.647 125.437 137.940  0.00  0.00    +0.000 A 
ATOM     18  C   UNL     1     114.325 125.196 137.538  0.00  0.00    +0.000 A 
ENDBRANCH   4  13
BRANCH  10  19
ATOM     19  O   UNL     1     110.128 127.983 134.613  0.00  0.00    +0.000 OA
ATOM     20  C   UNL     1     109.612 128.459 135.046  0.00  0.00    +0.000 C 
ENDBRANCH  10  19
TORSDOF 2
ENDMDL
MODEL 2
REMARK VINA RESULT:      -7.7     12.570     13.584
REMARK  Name = 15549896
REMARK  2 active torsions:
REMARK  status: ('A' for Active; 'I' for Inactive)
REMARK    1  A    between atoms: O_3  and  C_15
REMARK    2  A    between atoms: C_6  and  C_10
REMARK                            x       y       z     vdW  Elec       q    Type
REMARK                         _______ _______ _______ _____ _____    ______ ____
ROOT
ATOM      1  O   UNL     1     105.000 124.305 147.326  0.00  0.00    +0.000 OA
ATOM      2  O   UNL     1     104.660 124.852 145.241  0.00  0.00    +0.000 OA
ATOM      3  C   UNL     1     105.022 124.778 145.978  0.00  0.00    +0.000 C 
ATOM      4  C   UNL     1     104.637 124.378 146.589  0.00  0.00    +0.000 C 
ATOM      5  C   UNL     1     105.770 125.103 146.105  0.00  0.00    +0.000 C 
ATOM      6  C   UNL     1     106.132 125.028 146.842  0.00  0.00    +0.000 A 
ATOM      7  C   UNL     1     105.747 124.629 147.453  0.00  0.00    +0.000 A 
ATOM      8  C   UNL     1     106.912 125.371 146.962  0.00  0.00    +0.000 A 
ATOM      9  C   UNL     1     106.115 124.545 148.226  0.00  0.00    +0.000 A 
ATOM     10  C   UNL     1     106.893 124.882 148.363  0.00  0.00    +0.000 A 
ATOM     11  C   UNL     1     107.294 125.297 147.727  0.00  0.00    +0.000 A 
ENDROOT
BRANCH   4  13
ATOM     12  O   UNL     1     101.647 123.078 146.082  0.00  0.00    +0.000 OA
ATOM     13  C   UNL     1     103.890 124.054 146.463  0.00  0.00    +0.000 A 
ATOM     14  C   UNL     1     103.216 124.456 146.717  0.00  0.00    +0.000 A 
ATOM     15  C   UNL     1     103.816 123.326 146.081  0.00  0.00    +0.000 A 
ATOM     16  C   UNL     1     102.469 124.131 146.591  0.00  0.00    +0.000 A 
ATOM     17  C   UNL     1     103.068 123.001 145.954  0.00  0.00    +0.000 A 
ATOM     18  C   UNL     1     102.395 123.404 146.209  0.00  0.00    +0.000 A 
ENDBRANCH   4  13
BRANCH  10  19
ATOM     19  O   UNL     1     107.254 124.806 149.101  0.00  0.00    +0.000 OA
ATOM     20  C   UNL     1     107.993 124.446 149.165  0.00  0.00    +0.000 C 
ENDBRANCH  10  19
TORSDOF 2
ENDMDL
MODEL 3
REMARK VINA RESULT:      -7.7     13.030     13.591
REMARK  Name = 15549896
REMARK  2 active torsions:
REMARK  status: ('A' for Active; 'I' for Inactive)
REMARK    1  A    between atoms: O_3  and  C_15
REMARK    2  A    between atoms: C_6  and  C_10
REMARK                            x       y       z     vdW  Elec       q    Type
REMARK                         _______ _______ _______ _____ _____    ______ ____
ROOT
ATOM      1  O   UNL     1     105.183 124.301 147.343  0.00  0.00    +0.000 OA
ATOM      2  O   UNL     1     105.178 125.658 149.053  0.00  0.00    +0.000 OA
ATOM      3  C   UNL     1     104.914 125.210 148.413  0.00  0.00    +0.000 C 
ATOM      4  C   UNL     1     105.447 124.749 147.984  0.00  0.00    +0.000 C 
ATOM      5  C   UNL     1     104.116 125.224 148.201  0.00  0.00    +0.000 C 
ATOM      6  C   UNL     1     103.853 124.776 147.560  0.00  0.00    +0.000 A 
ATOM      7  C   UNL     1     104.386 124.315 147.132  0.00  0.00    +0.000 A 
ATOM      8  C   UNL     1     103.020 124.798 147.349  0.00  0.00    +0.000 A 
ATOM      9  C   UNL     1     104.123 123.844 146.462  0.00  0.00    +0.000 A 
ATOM     10  C   UNL     1     103.294 123.854 146.237  0.00  0.00    +0.000 A 
ATOM     11  C   UNL     1     102.739 124.334 146.683  0.00  0.00    +0.000 A 
ENDROOT
BRANCH   4  13
ATOM     12  O   UNL     1     108.636 124.696 148.832  0.00  0.00    +0.000 OA
ATOM     13  C   UNL     1     106.244 124.736 148.196  0.00  0.00    +0.000 A 
ATOM     14  C   UNL     1     106.487 124.318 148.865  0.00  0.00    +0.000 A 
ATOM     15  C   UNL     1     106.799 125.140 147.739  0.00  0.00    +0.000 A 
ATOM     16  C   UNL     1     107.283 124.305 149.077  0.00  0.00    +0.000 A 
ATOM     17  C   UNL     1     107.597 125.127 147.951  0.00  0.00    +0.000 A 
ATOM     18  C   UNL     1     107.838 124.709 148.620  0.00  0.00    +0.000 A 
ENDBRANCH   4  13
BRANCH  10  19
ATOM     19  O   UNL     1     103.033 123.405 145.596  0.00  0.00    +0.000 OA
ATOM     20  C   UNL     1     102.561 122.740 145.723  0.00  0.00    +0.000 C 
ENDBRANCH  10  19
TORSDOF 2
ENDMDL
MODEL 4
REMARK VINA RESULT:      -7.6      7.402      8.866
REMARK  Name = 15549896
REMARK  2 active torsions:
REMARK  status: ('A' for Active; 'I' for Inactive)
REMARK    1  A    between atoms: O_3  and  C_15
REMARK    2  A    between atoms: C_6  and  C_10
REMARK                            x       y       z     vdW  Elec       q    Type
REMARK                         _______ _______ _______ _____ _____    ______ ____
ROOT
ATOM      1  O   UNL     1     105.144 124.394 139.361  0.00  0.00    +0.000 OA
ATOM      2  O   UNL     1     103.882 122.802 140.158  0.00  0.00    +0.000 OA
ATOM      3  C   UNL     1     104.484 123.361 140.095  0.00  0.00    +0.000 C 
ATOM      4  C   UNL     1     104.540 123.835 139.422  0.00  0.00    +0.000 C 
ATOM      5  C   UNL     1     105.031 123.448 140.708  0.00  0.00    +0.000 C 
ATOM      6  C   UNL     1     105.634 124.008 140.645  0.00  0.00    +0.000 A 
ATOM      7  C   UNL     1     105.690 124.481 139.972  0.00  0.00    +0.000 A 
ATOM      8  C   UNL     1     106.198 124.088 141.289  0.00  0.00    +0.000 A 
ATOM      9  C   UNL     1     106.314 125.068 139.896  0.00  0.00    +0.000 A 
ATOM     10  C   UNL     1     106.886 125.162 140.529  0.00  0.00    +0.000 A 
ATOM     11  C   UNL     1     106.828 124.669 141.231  0.00  0.00    +0.000 A 
ENDROOT
BRANCH   4  13
ATOM     12  O   UNL     1     102.353 123.488 136.975  0.00  0.00    +0.000 OA
ATOM     13  C   UNL     1     103.994 123.748 138.811  0.00  0.00    +0.000 A 
ATOM     14  C   UNL     1     103.219 124.016 138.908  0.00  0.00    +0.000 A 
ATOM     15  C   UNL     1     104.221 123.394 138.101  0.00  0.00    +0.000 A 
ATOM     16  C   UNL     1     102.673 123.930 138.297  0.00  0.00    +0.000 A 
ATOM     17  C   UNL     1     103.674 123.307 137.489  0.00  0.00    +0.000 A 
ATOM     18  C   UNL     1     102.900 123.575 137.587  0.00  0.00    +0.000 A 
ENDBRANCH   4  13
BRANCH  10  19
ATOM     19  O   UNL     1     107.488 125.723 140.465  0.00  0.00    +0.000 OA
ATOM     20  C   UNL     1     108.265 125.517 140.652  0.00  0.00    +0.000 C 
ENDBRANCH  10  19
TORSDOF 2
ENDMDL
MODEL 5
REMARK VINA RESULT:      -7.6      0.876      4.105
REMARK  Name = 15549896
REMARK  2 active torsions:
REMARK  status: ('A' for Active; 'I' for Inactive)
REMARK    1  A    between atoms: O_3  and  C_15
REMARK    2  A    between atoms: C_6  and  C_10
REMARK                            x       y       z     vdW  Elec       q    Type
REMARK                         _______ _______ _______ _____ _____    ______ ____
ROOT
ATOM      1  O   UNL     1     111.754 126.238 136.225  0.00  0.00    +0.000 OA
ATOM      2  O   UNL     1     110.089 125.375 135.108  0.00  0.00    +0.000 OA
ATOM      3  C   UNL     1     110.779 125.436 135.556  0.00  0.00    +0.000 C 
ATOM      4  C   UNL     1     111.063 126.178 135.777  0.00  0.00    +0.000 C 
ATOM      5  C   UNL     1     111.185 124.754 135.783  0.00  0.00    +0.000 C 
ATOM      6  C   UNL     1     111.874 124.815 136.231  0.00  0.00    +0.000 A 
ATOM      7  C   UNL     1     112.159 125.557 136.452  0.00  0.00    +0.000 A 
ATOM      8  C   UNL     1     112.288 124.097 136.462  0.00  0.00    +0.000 A 
ATOM      9  C   UNL     1     112.877 125.633 136.919  0.00  0.00    +0.000 A 
ATOM     10  C   UNL     1     113.303 124.927 137.158  0.00  0.00    +0.000 A 
ATOM     11  C   UNL     1     113.007 124.154 136.928  0.00  0.00    +0.000 A 
ENDROOT
BRANCH   4  13
ATOM     12  O   UNL     1     109.441 128.904 134.867  0.00  0.00    +0.000 OA
ATOM     13  C   UNL     1     110.658 126.859 135.550  0.00  0.00    +0.000 A 
ATOM     14  C   UNL     1     110.063 127.166 136.032  0.00  0.00    +0.000 A 
ATOM     15  C   UNL     1     110.847 127.234 134.840  0.00  0.00    +0.000 A 
ATOM     16  C   UNL     1     109.658 127.847 135.805  0.00  0.00    +0.000 A 
ATOM     17  C   UNL     1     110.441 127.916 134.612  0.00  0.00    +0.000 A 
ATOM     18  C   UNL     1     109.847 128.222 135.095  0.00  0.00    +0.000 A 
ENDBRANCH   4  13
BRANCH  10  19
ATOM     19  O   UNL     1     113.993 124.990 137.606  0.00  0.00    +0.000 OA
ATOM     20  C   UNL     1     114.730 124.929 137.240  0.00  0.00    +0.000 C 
ENDBRANCH  10  19
TORSDOF 2
ENDMDL
MODEL 6
REMARK VINA RESULT:      -7.4     11.095     11.691
REMARK  Name = 15549896
REMARK  2 active torsions:
REMARK  status: ('A' for Active; 'I' for Inactive)
REMARK    1  A    between atoms: O_3  and  C_15
REMARK    2  A    between atoms: C_6  and  C_10
REMARK                            x       y       z     vdW  Elec       q    Type
REMARK                         _______ _______ _______ _____ _____    ______ ____
ROOT
ATOM      1  O   UNL     1     106.574 125.032 146.164  0.00  0.00    +0.000 OA
ATOM      2  O   UNL     1     106.984 126.837 147.320  0.00  0.00    +0.000 OA
ATOM      3  C   UNL     1     106.756 126.344 146.700  0.00  0.00    +0.000 C 
ATOM      4  C   UNL     1     106.803 125.525 146.786  0.00  0.00    +0.000 C 
ATOM      5  C   UNL     1     106.482 126.670 145.993  0.00  0.00    +0.000 C 
ATOM      6  C   UNL     1     106.254 126.177 145.373  0.00  0.00    +0.000 A 
ATOM      7  C   UNL     1     106.300 125.357 145.458  0.00  0.00    +0.000 A 
ATOM      8  C   UNL     1     105.970 126.528 144.641  0.00  0.00    +0.000 A 
ATOM      9  C   UNL     1     106.065 124.833 144.819  0.00  0.00    +0.000 A 
ATOM     10  C   UNL     1     105.779 125.167 144.081  0.00  0.00    +0.000 A 
ATOM     11  C   UNL     1     105.731 126.020 143.992  0.00  0.00    +0.000 A 
ENDROOT
BRANCH   4  13
ATOM     12  O   UNL     1     107.900 124.221 149.612  0.00  0.00    +0.000 OA
ATOM     13  C   UNL     1     107.077 125.199 147.492  0.00  0.00    +0.000 A 
ATOM     14  C   UNL     1     106.540 124.937 148.062  0.00  0.00    +0.000 A 
ATOM     15  C   UNL     1     107.888 125.134 147.628  0.00  0.00    +0.000 A 
ATOM     16  C   UNL     1     106.815 124.612 148.768  0.00  0.00    +0.000 A 
ATOM     17  C   UNL     1     108.163 124.808 148.335  0.00  0.00    +0.000 A 
ATOM     18  C   UNL     1     107.626 124.547 148.905  0.00  0.00    +0.000 A 
ENDBRANCH   4  13
BRANCH  10  19
ATOM     19  O   UNL     1     105.552 124.671 143.462  0.00  0.00    +0.000 OA
ATOM     20  C   UNL     1     105.890 124.763 142.715  0.00  0.00    +0.000 C 
ENDBRANCH  10  19
TORSDOF 2
ENDMDL
MODEL 7
REMARK VINA RESULT:      -7.2     13.046     13.498
REMARK  Name = 15549896
REMARK  2 active torsions:
REMARK  status: ('A' for Active; 'I' for Inactive)
REMARK    1  A    between atoms: O_3  and  C_15
REMARK    2  A    between atoms: C_6  and  C_10
REMARK                            x       y       z     vdW  Elec       q    Type
REMARK                         _______ _______ _______ _____ _____    ______ ____
ROOT
ATOM      1  O   UNL     1     103.637 124.573 146.754  0.00  0.00    +0.000 OA
ATOM      2  O   UNL     1     104.674 123.238 145.374  0.00  0.00    +0.000 OA
ATOM      3  C   UNL     1     104.087 123.556 145.857  0.00  0.00    +0.000 C 
ATOM      4  C   UNL     1     104.226 124.256 146.271  0.00  0.00    +0.000 C 
ATOM      5  C   UNL     1     103.359 123.172 145.928  0.00  0.00    +0.000 C 
ATOM      6  C   UNL     1     102.771 123.490 146.412  0.00  0.00    +0.000 A 
ATOM      7  C   UNL     1     102.911 124.190 146.825  0.00  0.00    +0.000 A 
ATOM      8  C   UNL     1     102.017 123.082 146.477  0.00  0.00    +0.000 A 
ATOM      9  C   UNL     1     102.306 124.531 147.332  0.00  0.00    +0.000 A 
ATOM     10  C   UNL     1     101.546 124.137 147.409  0.00  0.00    +0.000 A 
ATOM     11  C   UNL     1     101.401 123.408 146.979  0.00  0.00    +0.000 A 
ENDROOT
BRANCH   4  13
ATOM     12  O   UNL     1     107.136 125.787 145.989  0.00  0.00    +0.000 OA
ATOM     13  C   UNL     1     104.953 124.638 146.200  0.00  0.00    +0.000 A 
ATOM     14  C   UNL     1     105.126 125.074 145.521  0.00  0.00    +0.000 A 
ATOM     15  C   UNL     1     105.508 124.585 146.809  0.00  0.00    +0.000 A 
ATOM     16  C   UNL     1     105.853 125.457 145.451  0.00  0.00    +0.000 A 
ATOM     17  C   UNL     1     106.236 124.968 146.738  0.00  0.00    +0.000 A 
ATOM     18  C   UNL     1     106.408 125.404 146.059  0.00  0.00    +0.000 A 
ENDBRANCH   4  13
BRANCH  10  19
ATOM     19  O   UNL     1     100.960 124.456 147.894  0.00  0.00    +0.000 OA
ATOM     20  C   UNL     1     100.781 124.099 148.615  0.00  0.00    +0.000 C 
ENDBRANCH  10  19
TORSDOF 2
ENDMDL
MODEL 8
REMARK VINA RESULT:      -7.2      2.766      3.438
REMARK  Name = 15549896
REMARK  2 active torsions:
REMARK  status: ('A' for Active; 'I' for Inactive)
REMARK    1  A    between atoms: O_3  and  C_15
REMARK    2  A    between atoms: C_6  and  C_10
REMARK                            x       y       z     vdW  Elec       q    Type
REMARK                         _______ _______ _______ _____ _____    ______ ____
ROOT
ATOM      1  O   UNL     1     113.834 127.359 136.125  0.00  0.00    +0.000 OA
ATOM      2  O   UNL     1     112.725 127.046 137.979  0.00  0.00    +0.000 OA
ATOM      3  C   UNL     1     113.096 127.425 137.347  0.00  0.00    +0.000 C 
ATOM      4  C   UNL     1     113.463 126.980 136.757  0.00  0.00    +0.000 C 
ATOM      5  C   UNL     1     113.099 128.249 137.304  0.00  0.00    +0.000 C 
ATOM      6  C   UNL     1     113.471 128.628 136.672  0.00  0.00    +0.000 A 
ATOM      7  C   UNL     1     113.838 128.183 136.083  0.00  0.00    +0.000 A 
ATOM      8  C   UNL     1     113.468 129.487 136.639  0.00  0.00    +0.000 A 
ATOM      9  C   UNL     1     114.228 128.566 135.419  0.00  0.00    +0.000 A 
ATOM     10  C   UNL     1     114.235 129.423 135.370  0.00  0.00    +0.000 A 
ATOM     11  C   UNL     1     113.853 129.887 135.984  0.00  0.00    +0.000 A 
ENDROOT
BRANCH   4  13
ATOM     12  O   UNL     1     113.447 123.684 136.927  0.00  0.00    +0.000 OA
ATOM     13  C   UNL     1     113.460 126.156 136.799  0.00  0.00    +0.000 A 
ATOM     14  C   UNL     1     114.093 125.758 137.147  0.00  0.00    +0.000 A 
ATOM     15  C   UNL     1     112.822 125.731 136.495  0.00  0.00    +0.000 A 
ATOM     16  C   UNL     1     114.089 124.934 137.189  0.00  0.00    +0.000 A 
ATOM     17  C   UNL     1     112.818 124.906 136.537  0.00  0.00    +0.000 A 
ATOM     18  C   UNL     1     113.452 124.509 136.884  0.00  0.00    +0.000 A 
ENDBRANCH   4  13
BRANCH  10  19
ATOM     19  O   UNL     1     114.607 129.800 134.737  0.00  0.00    +0.000 OA
ATOM     20  C   UNL     1     115.234 130.317 134.876  0.00  0.00    +0.000 C 
ENDBRANCH  10  19
TORSDOF 2
ENDMDL
MODEL 9
REMARK VINA RESULT:      -7.2     13.394     13.867
REMARK  Name = 15549896
REMARK  2 active torsions:
REMARK  status: ('A' for Active; 'I' for Inactive)
REMARK    1  A    between atoms: O_3  and  C_15
REMARK    2  A    between atoms: C_6  and  C_10
REMARK                            x       y       z     vdW  Elec       q    Type
REMARK                         _______ _______ _______ _____ _____    ______ ____
ROOT
ATOM      1  O   UNL     1     105.078 125.786 148.310  0.00  0.00    +0.000 OA
ATOM      2  O   UNL     1     105.403 124.035 147.047  0.00  0.00    +0.000 OA
ATOM      3  C   UNL     1     105.021 124.627 147.476  0.00  0.00    +0.000 C 
ATOM      4  C   UNL     1     105.462 125.194 147.882  0.00  0.00    +0.000 C 
ATOM      5  C   UNL     1     104.196 124.652 147.500  0.00  0.00    +0.000 C 
ATOM      6  C   UNL     1     103.813 125.243 147.928  0.00  0.00    +0.000 A 
ATOM      7  C   UNL     1     104.255 125.810 148.334  0.00  0.00    +0.000 A 
ATOM      8  C   UNL     1     102.954 125.259 147.945  0.00  0.00    +0.000 A 
ATOM      9  C   UNL     1     103.867 126.432 148.784  0.00  0.00    +0.000 A 
ATOM     10  C   UNL     1     103.009 126.463 148.812  0.00  0.00    +0.000 A 
ATOM     11  C   UNL     1     102.549 125.872 148.390  0.00  0.00    +0.000 A 
ENDROOT
BRANCH   4  13
ATOM     12  O   UNL     1     108.759 125.096 147.787  0.00  0.00    +0.000 OA
ATOM     13  C   UNL     1     106.285 125.169 147.858  0.00  0.00    +0.000 A 
ATOM     14  C   UNL     1     106.704 124.770 148.446  0.00  0.00    +0.000 A 
ATOM     15  C   UNL     1     106.692 125.544 147.246  0.00  0.00    +0.000 A 
ATOM     16  C   UNL     1     107.528 124.745 148.423  0.00  0.00    +0.000 A 
ATOM     17  C   UNL     1     107.517 125.520 147.222  0.00  0.00    +0.000 A 
ATOM     18  C   UNL     1     107.934 125.120 147.811  0.00  0.00    +0.000 A 
ENDBRANCH   4  13
BRANCH  10  19
ATOM     19  O   UNL     1     102.629 127.055 149.242  0.00  0.00    +0.000 OA
ATOM     20  C   UNL     1     102.082 127.549 148.869  0.00  0.00    +0.000 C 
ENDBRANCH  10  19
TORSDOF 2
ENDMDL
MODEL 10
REMARK VINA RESULT:      -7.1      1.602      2.472
REMARK  Name = 15549896
REMARK  2 active torsions:
REMARK  status: ('A' for Active; 'I' for Inactive)
REMARK    1  A    between atoms: O_3  and  C_15
REMARK    2  A    between atoms: C_6  and  C_10
REMARK                            x       y       z     vdW  Elec       q    Type
REMARK                         _______ _______ _______ _____ _____    ______ ____
ROOT
ATOM      1  O   UNL     1     112.219 126.513 136.189  0.00  0.00    +0.000 OA
ATOM      2  O   UNL     1     113.692 125.974 137.708  0.00  0.00    +0.000 OA
ATOM      3  C   UNL     1     113.261 126.419 137.163  0.00  0.00    +0.000 C 
ATOM      4  C   UNL     1     112.649 126.068 136.734  0.00  0.00    +0.000 C 
ATOM      5  C   UNL     1     113.441 127.216 137.047  0.00  0.00    +0.000 C 
ATOM      6  C   UNL     1     113.010 127.661 136.502  0.00  0.00    +0.000 A 
ATOM      7  C   UNL     1     112.399 127.309 136.073  0.00  0.00    +0.000 A 
ATOM      8  C   UNL     1     113.207 128.490 136.389  0.00  0.00    +0.000 A 
ATOM      9  C   UNL     1     111.943 127.763 135.503  0.00  0.00    +0.000 A 
ATOM     10  C   UNL     1     112.126 128.593 135.377  0.00  0.00    +0.000 A 
ATOM     11  C   UNL     1     112.762 128.959 135.824  0.00  0.00    +0.000 A 
ENDROOT
BRANCH   4  13
ATOM     12  O   UNL     1     111.928 122.881 137.200  0.00  0.00    +0.000 OA
ATOM     13  C   UNL     1     112.469 125.272 136.850  0.00  0.00    +0.000 A 
ATOM     14  C   UNL     1     112.914 124.688 136.473  0.00  0.00    +0.000 A 
ATOM     15  C   UNL     1     111.844 125.058 137.345  0.00  0.00    +0.000 A 
ATOM     16  C   UNL     1     112.734 123.892 136.589  0.00  0.00    +0.000 A 
ATOM     17  C   UNL     1     111.664 124.261 137.461  0.00  0.00    +0.000 A 
ATOM     18  C   UNL     1     112.109 123.678 137.083  0.00  0.00    +0.000 A 
ENDBRANCH   4  13
BRANCH  10  19
ATOM     19  O   UNL     1     111.694 129.036 134.832  0.00  0.00    +0.000 OA
ATOM     20  C   UNL     1     111.089 129.534 135.091  0.00  0.00    +0.000 C 
ENDBRANCH  10  19
TORSDOF 2
ENDMDL
