MODEL 1
REMARK VINA RESULT:     -10.7      0.000      0.000
REMARK  Name = 74977992
REMARK  6 active torsions:
REMARK  status: ('A' for Active; 'I' for Inactive)
REMARK    1  A    between atoms: O_1  and  C_15
REMARK    2  A    between atoms: O_1  and  C_18
REMARK    3  A    between atoms: O_6  and  C_24
REMARK    4  A    between atoms: O_6  and  C_27
REMARK    5  A    between atoms: C_23  and  C_26
REMARK    6  A    between atoms: C_28  and  C_32
REMARK                            x       y       z     vdW  Elec       q    Type
REMARK                         _______ _______ _______ _____ _____    ______ ____
ROOT
ATOM      1  O   UNL     1     111.114 127.972 137.300  0.00  0.00    +0.000 OA
ATOM      2  O   UNL     1     109.325 128.520 138.919  0.00  0.00    +0.000 OA
ATOM      3  O   UNL     1     109.530 126.963 138.412  0.00  0.00    +0.000 OA
ATOM      4  C   UNL     1     110.415 128.933 138.093  0.00  0.00    +0.000 C 
ATOM      5  C   UNL     1     109.921 128.338 138.380  0.00  0.00    +0.000 C 
ATOM      6  C   UNL     1     111.011 128.751 137.553  0.00  0.00    +0.000 C 
ATOM      7  C   UNL     1     110.024 127.559 138.126  0.00  0.00    +0.000 C 
ATOM      8  C   UNL     1     110.620 127.376 137.586  0.00  0.00    +0.000 C 
ATOM      9  C   UNL     1     111.505 129.346 137.267  0.00  0.00    +0.000 C 
ENDROOT
BRANCH   4  10
ATOM     10  O   UNL     1     110.312 129.711 138.347  0.00  0.00    +0.000 OA
BRANCH  10  15
ATOM     11  O   UNL     1     109.415 129.969 137.265  0.00  0.00    +0.000 OA
ATOM     12  O   UNL     1     109.839 131.115 139.073  0.00  0.00    +0.000 OA
ATOM     13  O   UNL     1     108.705 132.074 138.355  0.00  0.00    +0.000 OA
ATOM     14  O   UNL     1     108.044 131.630 136.910  0.00  0.00    +0.000 OA
ATOM     15  C   UNL     1     109.746 130.191 137.988  0.00  0.00    +0.000 C 
ATOM     16  C   UNL     1     109.509 130.893 138.351  0.00  0.00    +0.000 C 
ATOM     17  C   UNL     1     108.942 131.372 137.992  0.00  0.00    +0.000 C 
ATOM     18  C   UNL     1     108.611 131.150 137.269  0.00  0.00    +0.000 C 
ATOM     19  C   UNL     1     108.848 130.449 136.906  0.00  0.00    +0.000 C 
BRANCH  19  21
ATOM     20  O   UNL     1     107.915 129.664 136.161  0.00  0.00    +0.000 OA
ATOM     21  C   UNL     1     108.518 130.226 136.183  0.00  0.00    +0.000 C 
ENDBRANCH  19  21
ENDBRANCH  10  15
ENDBRANCH   4  10
BRANCH   8  22
ATOM     22  O   UNL     1     110.723 126.598 137.332  0.00  0.00    +0.000 OA
BRANCH  22  27
ATOM     23  O   UNL     1     112.447 125.731 136.311  0.00  0.00    +0.000 OA
ATOM     24  O   UNL     1     111.831 126.577 138.554  0.00  0.00    +0.000 OA
ATOM     25  O   UNL     1     113.149 126.281 139.060  0.00  0.00    +0.000 OA
ATOM     26  O   UNL     1     115.128 125.107 137.260  0.00  0.00    +0.000 OA
ATOM     27  C   UNL     1     111.482 126.306 137.196  0.00  0.00    +0.000 A 
ATOM     28  C   UNL     1     111.687 126.024 136.448  0.00  0.00    +0.000 A 
ATOM     29  C   UNL     1     112.037 126.295 137.807  0.00  0.00    +0.000 A 
ATOM     30  C   UNL     1     112.795 126.003 137.670  0.00  0.00    +0.000 A 
ATOM     31  C   UNL     1     113.000 125.721 136.923  0.00  0.00    +0.000 A 
ATOM     32  C   UNL     1     113.364 125.997 138.315  0.00  0.00    +0.000 A 
ATOM     33  C   UNL     1     113.788 125.414 136.768  0.00  0.00    +0.000 A 
ATOM     34  C   UNL     1     114.156 125.694 138.179  0.00  0.00    +0.000 A 
ATOM     35  C   UNL     1     114.369 125.400 137.401  0.00  0.00    +0.000 A 
BRANCH  28  36
ATOM     36  C   UNL     1     111.133 126.034 135.837  0.00  0.00    +0.000 A 
ATOM     37  C   UNL     1     110.536 125.464 135.812  0.00  0.00    +0.000 A 
ATOM     38  C   UNL     1     111.176 126.613 135.250  0.00  0.00    +0.000 A 
ATOM     39  C   UNL     1     109.983 125.475 135.200  0.00  0.00    +0.000 A 
ATOM     40  C   UNL     1     110.622 126.622 134.639  0.00  0.00    +0.000 A 
ATOM     41  C   UNL     1     110.026 126.054 134.614  0.00  0.00    +0.000 A 
ENDBRANCH  28  36
ENDBRANCH  22  27
ENDBRANCH   8  22
TORSDOF 6
ENDMDL
MODEL 2
REMARK VINA RESULT:     -10.7      1.794      3.141
REMARK  Name = 74977992
REMARK  6 active torsions:
REMARK  status: ('A' for Active; 'I' for Inactive)
REMARK    1  A    between atoms: O_1  and  C_15
REMARK    2  A    between atoms: O_1  and  C_18
REMARK    3  A    between atoms: O_6  and  C_24
REMARK    4  A    between atoms: O_6  and  C_27
REMARK    5  A    between atoms: C_23  and  C_26
REMARK    6  A    between atoms: C_28  and  C_32
REMARK                            x       y       z     vdW  Elec       q    Type
REMARK                         _______ _______ _______ _____ _____    ______ ____
ROOT
ATOM      1  O   UNL     1     110.560 126.428 138.022  0.00  0.00    +0.000 OA
ATOM      2  O   UNL     1     109.633 128.555 138.883  0.00  0.00    +0.000 OA
ATOM      3  O   UNL     1     110.611 128.560 137.554  0.00  0.00    +0.000 OA
ATOM      4  C   UNL     1     109.763 127.134 138.973  0.00  0.00    +0.000 C 
ATOM      5  C   UNL     1     109.942 127.846 138.596  0.00  0.00    +0.000 C 
ATOM      6  C   UNL     1     110.072 126.426 138.686  0.00  0.00    +0.000 C 
ATOM      7  C   UNL     1     110.431 127.849 137.932  0.00  0.00    +0.000 C 
ATOM      8  C   UNL     1     110.740 127.139 137.644  0.00  0.00    +0.000 C 
ATOM      9  C   UNL     1     109.892 125.714 139.063  0.00  0.00    +0.000 C 
ENDROOT
BRANCH   4  10
ATOM     10  O   UNL     1     109.274 127.132 139.638  0.00  0.00    +0.000 OA
BRANCH  10  15
ATOM     11  O   UNL     1     110.404 127.233 140.507  0.00  0.00    +0.000 OA
ATOM     12  O   UNL     1     108.279 127.564 140.881  0.00  0.00    +0.000 OA
ATOM     13  O   UNL     1     108.912 127.881 142.372  0.00  0.00    +0.000 OA
ATOM     14  O   UNL     1     110.539 127.766 142.619  0.00  0.00    +0.000 OA
ATOM     15  C   UNL     1     109.590 127.290 140.383  0.00  0.00    +0.000 C 
ATOM     16  C   UNL     1     109.092 127.506 141.005  0.00  0.00    +0.000 C 
ATOM     17  C   UNL     1     109.409 127.665 141.750  0.00  0.00    +0.000 C 
ATOM     18  C   UNL     1     110.222 127.608 141.874  0.00  0.00    +0.000 C 
ATOM     19  C   UNL     1     110.720 127.392 141.252  0.00  0.00    +0.000 C 
BRANCH  19  21
ATOM     20  O   UNL     1     111.893 126.593 141.420  0.00  0.00    +0.000 OA
ATOM     21  C   UNL     1     111.534 127.334 141.375  0.00  0.00    +0.000 C 
ENDBRANCH  19  21
ENDBRANCH  10  15
ENDBRANCH   4  10
BRANCH   8  22
ATOM     22  O   UNL     1     111.229 127.142 136.979  0.00  0.00    +0.000 OA
BRANCH  22  27
ATOM     23  O   UNL     1     112.498 125.523 136.250  0.00  0.00    +0.000 OA
ATOM     24  O   UNL     1     112.434 127.157 138.107  0.00  0.00    +0.000 OA
ATOM     25  O   UNL     1     113.670 126.642 138.642  0.00  0.00    +0.000 OA
ATOM     26  O   UNL     1     114.997 124.430 137.271  0.00  0.00    +0.000 OA
ATOM     27  C   UNL     1     111.853 126.605 136.924  0.00  0.00    +0.000 A 
ATOM     28  C   UNL     1     111.874 126.060 136.305  0.00  0.00    +0.000 A 
ATOM     29  C   UNL     1     112.455 126.612 137.488  0.00  0.00    +0.000 A 
ATOM     30  C   UNL     1     113.078 126.076 137.433  0.00  0.00    +0.000 A 
ATOM     31  C   UNL     1     113.100 125.531 136.814  0.00  0.00    +0.000 A 
ATOM     32  C   UNL     1     113.700 126.093 138.027  0.00  0.00    +0.000 A 
ATOM     33  C   UNL     1     113.745 124.966 136.746  0.00  0.00    +0.000 A 
ATOM     34  C   UNL     1     114.352 125.536 137.974  0.00  0.00    +0.000 A 
ATOM     35  C   UNL     1     114.374 124.969 137.330  0.00  0.00    +0.000 A 
BRANCH  28  36
ATOM     36  C   UNL     1     111.272 126.052 135.741  0.00  0.00    +0.000 A 
ATOM     37  C   UNL     1     110.729 125.430 135.727  0.00  0.00    +0.000 A 
ATOM     38  C   UNL     1     111.213 126.664 135.191  0.00  0.00    +0.000 A 
ATOM     39  C   UNL     1     110.127 125.422 135.163  0.00  0.00    +0.000 A 
ATOM     40  C   UNL     1     110.611 126.655 134.627  0.00  0.00    +0.000 A 
ATOM     41  C   UNL     1     110.068 126.035 134.613  0.00  0.00    +0.000 A 
ENDBRANCH  28  36
ENDBRANCH  22  27
ENDBRANCH   8  22
TORSDOF 6
ENDMDL
MODEL 3
REMARK VINA RESULT:     -10.6      2.243      3.795
REMARK  Name = 74977992
REMARK  6 active torsions:
REMARK  status: ('A' for Active; 'I' for Inactive)
REMARK    1  A    between atoms: O_1  and  C_15
REMARK    2  A    between atoms: O_1  and  C_18
REMARK    3  A    between atoms: O_6  and  C_24
REMARK    4  A    between atoms: O_6  and  C_27
REMARK    5  A    between atoms: C_23  and  C_26
REMARK    6  A    between atoms: C_28  and  C_32
REMARK                            x       y       z     vdW  Elec       q    Type
REMARK                         _______ _______ _______ _____ _____    ______ ____
ROOT
ATOM      1  O   UNL     1     112.354 126.555 138.628  0.00  0.00    +0.000 OA
ATOM      2  O   UNL     1     110.284 125.382 139.310  0.00  0.00    +0.000 OA
ATOM      3  O   UNL     1     110.828 125.260 137.757  0.00  0.00    +0.000 OA
ATOM      4  C   UNL     1     111.393 126.225 139.631  0.00  0.00    +0.000 C 
ATOM      5  C   UNL     1     110.974 125.773 139.083  0.00  0.00    +0.000 C 
ATOM      6  C   UNL     1     112.082 126.616 139.404  0.00  0.00    +0.000 C 
ATOM      7  C   UNL     1     111.245 125.712 138.306  0.00  0.00    +0.000 C 
ATOM      8  C   UNL     1     111.936 126.103 138.078  0.00  0.00    +0.000 C 
ATOM      9  C   UNL     1     112.501 127.068 139.953  0.00  0.00    +0.000 C 
ENDROOT
BRANCH   4  10
ATOM     10  O   UNL     1     111.121 126.286 140.408  0.00  0.00    +0.000 OA
BRANCH  10  15
ATOM     11  O   UNL     1     110.399 127.483 140.112  0.00  0.00    +0.000 OA
ATOM     12  O   UNL     1     110.194 126.060 141.754  0.00  0.00    +0.000 OA
ATOM     13  O   UNL     1     109.008 127.144 142.131  0.00  0.00    +0.000 OA
ATOM     14  O   UNL     1     108.750 128.455 141.161  0.00  0.00    +0.000 OA
ATOM     15  C   UNL     1     110.528 126.828 140.597  0.00  0.00    +0.000 C 
ATOM     16  C   UNL     1     110.065 126.715 141.270  0.00  0.00    +0.000 C 
ATOM     17  C   UNL     1     109.472 127.257 141.458  0.00  0.00    +0.000 C 
ATOM     18  C   UNL     1     109.343 127.912 140.973  0.00  0.00    +0.000 C 
ATOM     19  C   UNL     1     109.806 128.025 140.300  0.00  0.00    +0.000 C 
BRANCH  19  21
ATOM     20  O   UNL     1     109.251 128.596 139.114  0.00  0.00    +0.000 OA
ATOM     21  C   UNL     1     109.677 128.680 139.815  0.00  0.00    +0.000 C 
ENDBRANCH  19  21
ENDBRANCH  10  15
ENDBRANCH   4  10
BRANCH   8  22
ATOM     22  O   UNL     1     112.208 126.042 137.302  0.00  0.00    +0.000 OA
BRANCH  22  27
ATOM     23  O   UNL     1     113.805 127.200 136.367  0.00  0.00    +0.000 OA
ATOM     24  O   UNL     1     111.460 127.500 137.101  0.00  0.00    +0.000 OA
ATOM     25  O   UNL     1     111.468 128.873 136.661  0.00  0.00    +0.000 OA
ATOM     26  O   UNL     1     113.894 129.964 135.454  0.00  0.00    +0.000 OA
ATOM     27  C   UNL     1     112.615 126.670 136.957  0.00  0.00    +0.000 A 
ATOM     28  C   UNL     1     113.397 126.570 136.712  0.00  0.00    +0.000 A 
ATOM     29  C   UNL     1     112.242 127.400 136.857  0.00  0.00    +0.000 A 
ATOM     30  C   UNL     1     112.649 128.028 136.512  0.00  0.00    +0.000 A 
ATOM     31  C   UNL     1     113.431 127.928 136.267  0.00  0.00    +0.000 A 
ATOM     32  C   UNL     1     112.249 128.782 136.413  0.00  0.00    +0.000 A 
ATOM     33  C   UNL     1     113.866 128.576 135.907  0.00  0.00    +0.000 A 
ATOM     34  C   UNL     1     112.669 129.441 136.055  0.00  0.00    +0.000 A 
ATOM     35  C   UNL     1     113.483 129.337 135.800  0.00  0.00    +0.000 A 
BRANCH  28  36
ATOM     36  C   UNL     1     113.771 125.842 136.812  0.00  0.00    +0.000 A 
ATOM     37  C   UNL     1     113.560 125.202 136.335  0.00  0.00    +0.000 A 
ATOM     38  C   UNL     1     114.355 125.753 137.388  0.00  0.00    +0.000 A 
ATOM     39  C   UNL     1     113.934 124.474 136.435  0.00  0.00    +0.000 A 
ATOM     40  C   UNL     1     114.728 125.024 137.487  0.00  0.00    +0.000 A 
ATOM     41  C   UNL     1     114.518 124.385 137.011  0.00  0.00    +0.000 A 
ENDBRANCH  28  36
ENDBRANCH  22  27
ENDBRANCH   8  22
TORSDOF 6
ENDMDL
MODEL 4
REMARK VINA RESULT:     -10.5      1.420      2.880
REMARK  Name = 74977992
REMARK  6 active torsions:
REMARK  status: ('A' for Active; 'I' for Inactive)
REMARK    1  A    between atoms: O_1  and  C_15
REMARK    2  A    between atoms: O_1  and  C_18
REMARK    3  A    between atoms: O_6  and  C_24
REMARK    4  A    between atoms: O_6  and  C_27
REMARK    5  A    between atoms: C_23  and  C_26
REMARK    6  A    between atoms: C_28  and  C_32
REMARK                            x       y       z     vdW  Elec       q    Type
REMARK                         _______ _______ _______ _____ _____    ______ ____
ROOT
ATOM      1  O   UNL     1     112.110 127.180 136.960  0.00  0.00    +0.000 OA
ATOM      2  O   UNL     1     109.847 126.737 136.064  0.00  0.00    +0.000 OA
ATOM      3  O   UNL     1     110.616 125.590 136.967  0.00  0.00    +0.000 OA
ATOM      4  C   UNL     1     110.972 127.606 136.210  0.00  0.00    +0.000 C 
ATOM      5  C   UNL     1     110.601 126.885 136.362  0.00  0.00    +0.000 C 
ATOM      6  C   UNL     1     111.726 127.753 136.508  0.00  0.00    +0.000 C 
ATOM      7  C   UNL     1     110.985 126.311 136.814  0.00  0.00    +0.000 C 
ATOM      8  C   UNL     1     111.741 126.459 137.113  0.00  0.00    +0.000 C 
ATOM      9  C   UNL     1     112.097 128.475 136.356  0.00  0.00    +0.000 C 
ENDROOT
BRANCH   4  10
ATOM     10  O   UNL     1     110.587 128.179 135.758  0.00  0.00    +0.000 OA
BRANCH  10  15
ATOM     11  O   UNL     1     110.075 128.820 136.928  0.00  0.00    +0.000 OA
ATOM     12  O   UNL     1     109.444 128.938 134.842  0.00  0.00    +0.000 OA
ATOM     13  O   UNL     1     108.360 129.958 135.553  0.00  0.00    +0.000 OA
ATOM     14  O   UNL     1     108.419 130.220 137.181  0.00  0.00    +0.000 OA
ATOM     15  C   UNL     1     110.045 128.689 136.113  0.00  0.00    +0.000 C 
ATOM     16  C   UNL     1     109.474 129.069 135.655  0.00  0.00    +0.000 C 
ATOM     17  C   UNL     1     108.932 129.579 136.012  0.00  0.00    +0.000 C 
ATOM     18  C   UNL     1     108.961 129.710 136.825  0.00  0.00    +0.000 C 
ATOM     19  C   UNL     1     109.533 129.330 137.283  0.00  0.00    +0.000 C 
BRANCH  19  21
ATOM     20  O   UNL     1     109.230 128.911 138.616  0.00  0.00    +0.000 OA
ATOM     21  C   UNL     1     109.562 129.461 138.098  0.00  0.00    +0.000 C 
ENDBRANCH  19  21
ENDBRANCH  10  15
ENDBRANCH   4  10
BRANCH   8  22
ATOM     22  O   UNL     1     112.125 125.885 137.564  0.00  0.00    +0.000 OA
BRANCH  22  27
ATOM     23  O   UNL     1     113.914 126.135 138.789  0.00  0.00    +0.000 OA
ATOM     24  O   UNL     1     111.516 126.745 138.834  0.00  0.00    +0.000 OA
ATOM     25  O   UNL     1     111.680 127.414 140.101  0.00  0.00    +0.000 OA
ATOM     26  O   UNL     1     114.322 127.467 141.346  0.00  0.00    +0.000 OA
ATOM     27  C   UNL     1     112.619 126.111 138.184  0.00  0.00    +0.000 A 
ATOM     28  C   UNL     1     113.419 125.908 138.169  0.00  0.00    +0.000 A 
ATOM     29  C   UNL     1     112.316 126.541 138.819  0.00  0.00    +0.000 A 
ATOM     30  C   UNL     1     112.810 126.768 139.439  0.00  0.00    +0.000 A 
ATOM     31  C   UNL     1     113.609 126.565 139.424  0.00  0.00    +0.000 A 
ATOM     32  C   UNL     1     112.481 127.215 140.095  0.00  0.00    +0.000 A 
ATOM     33  C   UNL     1     114.135 126.795 140.064  0.00  0.00    +0.000 A 
ATOM     34  C   UNL     1     112.991 127.454 140.743  0.00  0.00    +0.000 A 
ATOM     35  C   UNL     1     113.824 127.242 140.728  0.00  0.00    +0.000 A 
BRANCH  28  36
ATOM     36  C   UNL     1     113.724 125.478 137.534  0.00  0.00    +0.000 A 
ATOM     37  C   UNL     1     114.231 125.844 136.995  0.00  0.00    +0.000 A 
ATOM     38  C   UNL     1     113.522 124.684 137.438  0.00  0.00    +0.000 A 
ATOM     39  C   UNL     1     114.536 125.414 136.360  0.00  0.00    +0.000 A 
ATOM     40  C   UNL     1     113.828 124.255 136.803  0.00  0.00    +0.000 A 
ATOM     41  C   UNL     1     114.335 124.620 136.264  0.00  0.00    +0.000 A 
ENDBRANCH  28  36
ENDBRANCH  22  27
ENDBRANCH   8  22
TORSDOF 6
ENDMDL
MODEL 5
REMARK VINA RESULT:     -10.4      1.780      3.443
REMARK  Name = 74977992
REMARK  6 active torsions:
REMARK  status: ('A' for Active; 'I' for Inactive)
REMARK    1  A    between atoms: O_1  and  C_15
REMARK    2  A    between atoms: O_1  and  C_18
REMARK    3  A    between atoms: O_6  and  C_24
REMARK    4  A    between atoms: O_6  and  C_27
REMARK    5  A    between atoms: C_23  and  C_26
REMARK    6  A    between atoms: C_28  and  C_32
REMARK                            x       y       z     vdW  Elec       q    Type
REMARK                         _______ _______ _______ _____ _____    ______ ____
ROOT
ATOM      1  O   UNL     1     112.792 127.349 138.023  0.00  0.00    +0.000 OA
ATOM      2  O   UNL     1     112.838 127.617 140.482  0.00  0.00    +0.000 OA
ATOM      3  O   UNL     1     112.626 126.121 139.819  0.00  0.00    +0.000 OA
ATOM      4  C   UNL     1     112.914 128.186 139.174  0.00  0.00    +0.000 C 
ATOM      5  C   UNL     1     112.823 127.528 139.663  0.00  0.00    +0.000 C 
ATOM      6  C   UNL     1     112.899 128.097 138.354  0.00  0.00    +0.000 C 
ATOM      7  C   UNL     1     112.717 126.780 139.331  0.00  0.00    +0.000 C 
ATOM      8  C   UNL     1     112.701 126.690 138.510  0.00  0.00    +0.000 C 
ATOM      9  C   UNL     1     112.990 128.756 137.865  0.00  0.00    +0.000 C 
ENDROOT
BRANCH   4  10
ATOM     10  O   UNL     1     113.020 128.934 139.505  0.00  0.00    +0.000 OA
BRANCH  10  15
ATOM     11  O   UNL     1     111.611 129.171 139.514  0.00  0.00    +0.000 OA
ATOM     12  O   UNL     1     113.234 130.162 140.586  0.00  0.00    +0.000 OA
ATOM     13  O   UNL     1     111.931 131.014 141.136  0.00  0.00    +0.000 OA
ATOM     14  O   UNL     1     110.415 130.637 140.604  0.00  0.00    +0.000 OA
ATOM     15  C   UNL     1     112.369 129.360 139.780  0.00  0.00    +0.000 C 
ATOM     16  C   UNL     1     112.476 129.974 140.321  0.00  0.00    +0.000 C 
ATOM     17  C   UNL     1     111.824 130.399 140.595  0.00  0.00    +0.000 C 
ATOM     18  C   UNL     1     111.067 130.211 140.330  0.00  0.00    +0.000 C 
ATOM     19  C   UNL     1     110.960 129.597 139.789  0.00  0.00    +0.000 C 
BRANCH  19  21
ATOM     20  O   UNL     1     109.988 129.567 138.742  0.00  0.00    +0.000 OA
ATOM     21  C   UNL     1     110.202 129.409 139.523  0.00  0.00    +0.000 C 
ENDBRANCH  19  21
ENDBRANCH  10  15
ENDBRANCH   4  10
BRANCH   8  22
ATOM     22  O   UNL     1     112.595 125.942 138.179  0.00  0.00    +0.000 OA
BRANCH  22  27
ATOM     23  O   UNL     1     112.091 125.449 136.113  0.00  0.00    +0.000 OA
ATOM     24  O   UNL     1     111.019 126.425 138.119  0.00  0.00    +0.000 OA
ATOM     25  O   UNL     1     109.776 126.595 137.407  0.00  0.00    +0.000 OA
ATOM     26  O   UNL     1     109.616 125.762 134.612  0.00  0.00    +0.000 OA
ATOM     27  C   UNL     1     112.165 125.859 137.481  0.00  0.00    +0.000 A 
ATOM     28  C   UNL     1     112.522 125.533 136.812  0.00  0.00    +0.000 A 
ATOM     29  C   UNL     1     111.376 126.100 137.450  0.00  0.00    +0.000 A 
ATOM     30  C   UNL     1     110.946 126.016 136.752  0.00  0.00    +0.000 A 
ATOM     31  C   UNL     1     111.303 125.691 136.084  0.00  0.00    +0.000 A 
ATOM     32  C   UNL     1     110.125 126.271 136.733  0.00  0.00    +0.000 A 
ATOM     33  C   UNL     1     110.865 125.598 135.350  0.00  0.00    +0.000 A 
ATOM     34  C   UNL     1     109.671 126.186 136.009  0.00  0.00    +0.000 A 
ATOM     35  C   UNL     1     110.044 125.847 135.313  0.00  0.00    +0.000 A 
BRANCH  28  36
ATOM     36  C   UNL     1     113.310 125.292 136.842  0.00  0.00    +0.000 A 
ATOM     37  C   UNL     1     113.514 124.598 137.240  0.00  0.00    +0.000 A 
ATOM     38  C   UNL     1     113.895 125.743 136.473  0.00  0.00    +0.000 A 
ATOM     39  C   UNL     1     114.303 124.357 137.270  0.00  0.00    +0.000 A 
ATOM     40  C   UNL     1     114.683 125.500 136.503  0.00  0.00    +0.000 A 
ATOM     41  C   UNL     1     114.887 124.808 136.901  0.00  0.00    +0.000 A 
ENDBRANCH  28  36
ENDBRANCH  22  27
ENDBRANCH   8  22
TORSDOF 6
ENDMDL
MODEL 6
REMARK VINA RESULT:     -10.3      1.200      2.118
REMARK  Name = 74977992
REMARK  6 active torsions:
REMARK  status: ('A' for Active; 'I' for Inactive)
REMARK    1  A    between atoms: O_1  and  C_15
REMARK    2  A    between atoms: O_1  and  C_18
REMARK    3  A    between atoms: O_6  and  C_24
REMARK    4  A    between atoms: O_6  and  C_27
REMARK    5  A    between atoms: C_23  and  C_26
REMARK    6  A    between atoms: C_28  and  C_32
REMARK                            x       y       z     vdW  Elec       q    Type
REMARK                         _______ _______ _______ _____ _____    ______ ____
ROOT
ATOM      1  O   UNL     1     111.225 128.114 137.352  0.00  0.00    +0.000 OA
ATOM      2  O   UNL     1     109.352 128.831 138.801  0.00  0.00    +0.000 OA
ATOM      3  O   UNL     1     109.459 127.260 138.308  0.00  0.00    +0.000 OA
ATOM      4  C   UNL     1     110.548 129.138 138.081  0.00  0.00    +0.000 C 
ATOM      5  C   UNL     1     109.976 128.592 138.318  0.00  0.00    +0.000 C 
ATOM      6  C   UNL     1     111.172 128.899 137.599  0.00  0.00    +0.000 C 
ATOM      7  C   UNL     1     110.029 127.807 138.071  0.00  0.00    +0.000 C 
ATOM      8  C   UNL     1     110.654 127.567 137.588  0.00  0.00    +0.000 C 
ATOM      9  C   UNL     1     111.744 129.445 137.362  0.00  0.00    +0.000 C 
ENDROOT
BRANCH   4  10
ATOM     10  O   UNL     1     110.494 129.923 138.328  0.00  0.00    +0.000 OA
BRANCH  10  15
ATOM     11  O   UNL     1     111.288 129.657 139.486  0.00  0.00    +0.000 OA
ATOM     12  O   UNL     1     109.944 131.314 139.025  0.00  0.00    +0.000 OA
ATOM     13  O   UNL     1     110.462 131.742 140.532  0.00  0.00    +0.000 OA
ATOM     14  O   UNL     1     111.531 130.781 141.341  0.00  0.00    +0.000 OA
ATOM     15  C   UNL     1     110.753 130.138 139.081  0.00  0.00    +0.000 C 
ATOM     16  C   UNL     1     110.478 130.833 139.430  0.00  0.00    +0.000 C 
ATOM     17  C   UNL     1     110.737 131.047 140.183  0.00  0.00    +0.000 C 
ATOM     18  C   UNL     1     111.272 130.567 140.588  0.00  0.00    +0.000 C 
ATOM     19  C   UNL     1     111.547 129.872 140.239  0.00  0.00    +0.000 C 
BRANCH  19  21
ATOM     20  O   UNL     1     112.871 129.361 140.406  0.00  0.00    +0.000 OA
ATOM     21  C   UNL     1     112.082 129.391 140.644  0.00  0.00    +0.000 C 
ENDBRANCH  19  21
ENDBRANCH  10  15
ENDBRANCH   4  10
BRANCH   8  22
ATOM     22  O   UNL     1     110.708 126.782 137.341  0.00  0.00    +0.000 OA
BRANCH  22  27
ATOM     23  O   UNL     1     112.382 125.802 136.340  0.00  0.00    +0.000 OA
ATOM     24  O   UNL     1     111.796 126.683 138.578  0.00  0.00    +0.000 OA
ATOM     25  O   UNL     1     113.085 126.298 139.099  0.00  0.00    +0.000 OA
ATOM     26  O   UNL     1     115.002 124.996 137.322  0.00  0.00    +0.000 OA
ATOM     27  C   UNL     1     111.447 126.439 137.214  0.00  0.00    +0.000 A 
ATOM     28  C   UNL     1     111.642 126.145 136.468  0.00  0.00    +0.000 A 
ATOM     29  C   UNL     1     111.991 126.390 137.832  0.00  0.00    +0.000 A 
ATOM     30  C   UNL     1     112.730 126.047 137.704  0.00  0.00    +0.000 A 
ATOM     31  C   UNL     1     112.926 125.753 136.959  0.00  0.00    +0.000 A 
ATOM     32  C   UNL     1     113.289 126.002 138.356  0.00  0.00    +0.000 A 
ATOM     33  C   UNL     1     113.693 125.394 136.813  0.00  0.00    +0.000 A 
ATOM     34  C   UNL     1     114.060 125.646 138.230  0.00  0.00    +0.000 A 
ATOM     35  C   UNL     1     114.264 125.340 137.453  0.00  0.00    +0.000 A 
BRANCH  28  36
ATOM     36  C   UNL     1     111.098 126.194 135.850  0.00  0.00    +0.000 A 
ATOM     37  C   UNL     1     111.201 126.757 135.254  0.00  0.00    +0.000 A 
ATOM     38  C   UNL     1     110.453 125.681 135.826  0.00  0.00    +0.000 A 
ATOM     39  C   UNL     1     110.657 126.806 134.636  0.00  0.00    +0.000 A 
ATOM     40  C   UNL     1     109.909 125.731 135.207  0.00  0.00    +0.000 A 
ATOM     41  C   UNL     1     110.012 126.293 134.612  0.00  0.00    +0.000 A 
ENDBRANCH  28  36
ENDBRANCH  22  27
ENDBRANCH   8  22
TORSDOF 6
ENDMDL
MODEL 7
REMARK VINA RESULT:     -10.1      1.318      2.746
REMARK  Name = 74977992
REMARK  6 active torsions:
REMARK  status: ('A' for Active; 'I' for Inactive)
REMARK    1  A    between atoms: O_1  and  C_15
REMARK    2  A    between atoms: O_1  and  C_18
REMARK    3  A    between atoms: O_6  and  C_24
REMARK    4  A    between atoms: O_6  and  C_27
REMARK    5  A    between atoms: C_23  and  C_26
REMARK    6  A    between atoms: C_28  and  C_32
REMARK                            x       y       z     vdW  Elec       q    Type
REMARK                         _______ _______ _______ _____ _____    ______ ____
ROOT
ATOM      1  O   UNL     1     111.289 127.443 137.477  0.00  0.00    +0.000 OA
ATOM      2  O   UNL     1     108.859 127.149 137.119  0.00  0.00    +0.000 OA
ATOM      3  O   UNL     1     109.644 126.233 138.245  0.00  0.00    +0.000 OA
ATOM      4  C   UNL     1     110.087 127.803 136.795  0.00  0.00    +0.000 C 
ATOM      5  C   UNL     1     109.668 127.247 137.238  0.00  0.00    +0.000 C 
ATOM      6  C   UNL     1     110.897 127.901 136.914  0.00  0.00    +0.000 C 
ATOM      7  C   UNL     1     110.061 126.789 137.801  0.00  0.00    +0.000 C 
ATOM      8  C   UNL     1     110.872 126.887 137.921  0.00  0.00    +0.000 C 
ATOM      9  C   UNL     1     111.316 128.457 136.471  0.00  0.00    +0.000 C 
ENDROOT
BRANCH   4  10
ATOM     10  O   UNL     1     109.695 128.261 136.232  0.00  0.00    +0.000 OA
BRANCH  10  15
ATOM     11  O   UNL     1     109.452 129.270 137.215  0.00  0.00    +0.000 OA
ATOM     12  O   UNL     1     108.755 129.085 135.155  0.00  0.00    +0.000 OA
ATOM     13  O   UNL     1     108.043 130.506 135.598  0.00  0.00    +0.000 OA
ATOM     14  O   UNL     1     108.270 131.103 137.120  0.00  0.00    +0.000 OA
ATOM     15  C   UNL     1     109.338 128.971 136.453  0.00  0.00    +0.000 C 
ATOM     16  C   UNL     1     108.869 129.383 135.915  0.00  0.00    +0.000 C 
ATOM     17  C   UNL     1     108.513 130.094 136.137  0.00  0.00    +0.000 C 
ATOM     18  C   UNL     1     108.626 130.392 136.897  0.00  0.00    +0.000 C 
ATOM     19  C   UNL     1     109.096 129.980 137.436  0.00  0.00    +0.000 C 
BRANCH  19  21
ATOM     20  O   UNL     1     108.817 129.936 138.837  0.00  0.00    +0.000 OA
ATOM     21  C   UNL     1     109.210 130.279 138.197  0.00  0.00    +0.000 C 
ENDBRANCH  19  21
ENDBRANCH  10  15
ENDBRANCH   4  10
BRANCH   8  22
ATOM     22  O   UNL     1     111.265 126.429 138.483  0.00  0.00    +0.000 OA
BRANCH  22  27
ATOM     23  O   UNL     1     113.413 126.122 138.720  0.00  0.00    +0.000 OA
ATOM     24  O   UNL     1     111.596 125.504 137.158  0.00  0.00    +0.000 OA
ATOM     25  O   UNL     1     112.519 124.771 136.327  0.00  0.00    +0.000 OA
ATOM     26  O   UNL     1     115.336 124.662 137.093  0.00  0.00    +0.000 OA
ATOM     27  C   UNL     1     112.035 126.173 138.341  0.00  0.00    +0.000 A 
ATOM     28  C   UNL     1     112.641 126.379 138.862  0.00  0.00    +0.000 A 
ATOM     29  C   UNL     1     112.201 125.710 137.679  0.00  0.00    +0.000 A 
ATOM     30  C   UNL     1     112.972 125.454 137.537  0.00  0.00    +0.000 A 
ATOM     31  C   UNL     1     113.577 125.660 138.057  0.00  0.00    +0.000 A 
ATOM     32  C   UNL     1     113.132 124.972 136.843  0.00  0.00    +0.000 A 
ATOM     33  C   UNL     1     114.385 125.399 137.920  0.00  0.00    +0.000 A 
ATOM     34  C   UNL     1     113.933 124.702 136.690  0.00  0.00    +0.000 A 
ATOM     35  C   UNL     1     114.563 124.917 137.232  0.00  0.00    +0.000 A 
BRANCH  28  36
ATOM     36  C   UNL     1     112.476 126.841 139.525  0.00  0.00    +0.000 A 
ATOM     37  C   UNL     1     112.087 126.509 140.173  0.00  0.00    +0.000 A 
ATOM     38  C   UNL     1     112.699 127.635 139.541  0.00  0.00    +0.000 A 
ATOM     39  C   UNL     1     111.922 126.971 140.836  0.00  0.00    +0.000 A 
ATOM     40  C   UNL     1     112.534 128.097 140.204  0.00  0.00    +0.000 A 
ATOM     41  C   UNL     1     112.146 127.765 140.852  0.00  0.00    +0.000 A 
ENDBRANCH  28  36
ENDBRANCH  22  27
ENDBRANCH   8  22
TORSDOF 6
ENDMDL
MODEL 8
REMARK VINA RESULT:     -10.1      2.609      3.839
REMARK  Name = 74977992
REMARK  6 active torsions:
REMARK  status: ('A' for Active; 'I' for Inactive)
REMARK    1  A    between atoms: O_1  and  C_15
REMARK    2  A    between atoms: O_1  and  C_18
REMARK    3  A    between atoms: O_6  and  C_24
REMARK    4  A    between atoms: O_6  and  C_27
REMARK    5  A    between atoms: C_23  and  C_26
REMARK    6  A    between atoms: C_28  and  C_32
REMARK                            x       y       z     vdW  Elec       q    Type
REMARK                         _______ _______ _______ _____ _____    ______ ____
ROOT
ATOM      1  O   UNL     1     112.744 128.008 138.510  0.00  0.00    +0.000 OA
ATOM      2  O   UNL     1     111.496 129.801 139.673  0.00  0.00    +0.000 OA
ATOM      3  O   UNL     1     111.064 129.352 138.145  0.00  0.00    +0.000 OA
ATOM      4  C   UNL     1     112.545 128.830 139.661  0.00  0.00    +0.000 C 
ATOM      5  C   UNL     1     111.912 129.204 139.286  0.00  0.00    +0.000 C 
ATOM      6  C   UNL     1     112.961 128.233 139.274  0.00  0.00    +0.000 C 
ATOM      7  C   UNL     1     111.696 128.979 138.522  0.00  0.00    +0.000 C 
ATOM      8  C   UNL     1     112.112 128.381 138.133  0.00  0.00    +0.000 C 
ATOM      9  C   UNL     1     113.593 127.859 139.649  0.00  0.00    +0.000 C 
ENDROOT
BRANCH   4  10
ATOM     10  O   UNL     1     112.761 129.054 140.425  0.00  0.00    +0.000 OA
BRANCH  10  15
ATOM     11  O   UNL     1     111.864 128.101 140.998  0.00  0.00    +0.000 OA
ATOM     12  O   UNL     1     112.849 129.842 141.872  0.00  0.00    +0.000 OA
ATOM     13  O   UNL     1     111.995 129.282 143.169  0.00  0.00    +0.000 OA
ATOM     14  O   UNL     1     111.055 127.935 143.019  0.00  0.00    +0.000 OA
ATOM     15  C   UNL     1     112.335 128.775 141.074  0.00  0.00    +0.000 C 
ATOM     16  C   UNL     1     112.379 129.169 141.797  0.00  0.00    +0.000 C 
ATOM     17  C   UNL     1     111.952 128.888 142.445  0.00  0.00    +0.000 C 
ATOM     18  C   UNL     1     111.481 128.215 142.371  0.00  0.00    +0.000 C 
ATOM     19  C   UNL     1     111.438 127.822 141.647  0.00  0.00    +0.000 C 
BRANCH  19  21
ATOM     20  O   UNL     1     111.319 126.405 141.499  0.00  0.00    +0.000 OA
ATOM     21  C   UNL     1     110.967 127.147 141.571  0.00  0.00    +0.000 C 
ENDBRANCH  19  21
ENDBRANCH  10  15
ENDBRANCH   4  10
BRANCH   8  22
ATOM     22  O   UNL     1     111.896 128.157 137.369  0.00  0.00    +0.000 OA
BRANCH  22  27
ATOM     23  O   UNL     1     112.610 126.440 136.226  0.00  0.00    +0.000 OA
ATOM     24  O   UNL     1     111.145 126.920 138.163  0.00  0.00    +0.000 OA
ATOM     25  O   UNL     1     110.863 125.516 138.334  0.00  0.00    +0.000 OA
ATOM     26  O   UNL     1     112.087 123.590 136.512  0.00  0.00    +0.000 OA
ATOM     27  C   UNL     1     112.009 127.379 137.121  0.00  0.00    +0.000 A 
ATOM     28  C   UNL     1     112.497 127.219 136.475  0.00  0.00    +0.000 A 
ATOM     29  C   UNL     1     111.634 126.760 137.517  0.00  0.00    +0.000 A 
ATOM     30  C   UNL     1     111.746 125.982 137.269  0.00  0.00    +0.000 A 
ATOM     31  C   UNL     1     112.235 125.822 136.623  0.00  0.00    +0.000 A 
ATOM     32  C   UNL     1     111.350 125.346 137.690  0.00  0.00    +0.000 A 
ATOM     33  C   UNL     1     112.360 125.015 136.354  0.00  0.00    +0.000 A 
ATOM     34  C   UNL     1     111.464 124.534 137.435  0.00  0.00    +0.000 A 
ATOM     35  C   UNL     1     111.972 124.367 136.763  0.00  0.00    +0.000 A 
BRANCH  28  36
ATOM     36  C   UNL     1     112.872 127.837 136.078  0.00  0.00    +0.000 A 
ATOM     37  C   UNL     1     112.436 128.336 135.586  0.00  0.00    +0.000 A 
ATOM     38  C   UNL     1     113.683 127.957 136.173  0.00  0.00    +0.000 A 
ATOM     39  C   UNL     1     112.812 128.954 135.189  0.00  0.00    +0.000 A 
ATOM     40  C   UNL     1     114.058 128.575 135.776  0.00  0.00    +0.000 A 
ATOM     41  C   UNL     1     113.622 129.074 135.284  0.00  0.00    +0.000 A 
ENDBRANCH  28  36
ENDBRANCH  22  27
ENDBRANCH   8  22
TORSDOF 6
ENDMDL
MODEL 9
REMARK VINA RESULT:     -10.1      1.773      2.747
REMARK  Name = 74977992
REMARK  6 active torsions:
REMARK  status: ('A' for Active; 'I' for Inactive)
REMARK    1  A    between atoms: O_1  and  C_15
REMARK    2  A    between atoms: O_1  and  C_18
REMARK    3  A    between atoms: O_6  and  C_24
REMARK    4  A    between atoms: O_6  and  C_27
REMARK    5  A    between atoms: C_23  and  C_26
REMARK    6  A    between atoms: C_28  and  C_32
REMARK                            x       y       z     vdW  Elec       q    Type
REMARK                         _______ _______ _______ _____ _____    ______ ____
ROOT
ATOM      1  O   UNL     1     111.785 128.749 137.040  0.00  0.00    +0.000 OA
ATOM      2  O   UNL     1     109.611 129.427 136.072  0.00  0.00    +0.000 OA
ATOM      3  O   UNL     1     110.827 128.905 135.086  0.00  0.00    +0.000 OA
ATOM      4  C   UNL     1     110.453 129.235 137.211  0.00  0.00    +0.000 C 
ATOM      5  C   UNL     1     110.335 129.201 136.395  0.00  0.00    +0.000 C 
ATOM      6  C   UNL     1     111.177 129.009 137.533  0.00  0.00    +0.000 C 
ATOM      7  C   UNL     1     110.943 128.940 135.901  0.00  0.00    +0.000 C 
ATOM      8  C   UNL     1     111.669 128.714 136.224  0.00  0.00    +0.000 C 
ATOM      9  C   UNL     1     111.295 129.044 138.349  0.00  0.00    +0.000 C 
ENDROOT
BRANCH   4  10
ATOM     10  O   UNL     1     109.846 129.496 137.704  0.00  0.00    +0.000 OA
BRANCH  10  15
ATOM     11  O   UNL     1     110.271 130.848 137.519  0.00  0.00    +0.000 OA
ATOM     12  O   UNL     1     108.542 130.024 138.567  0.00  0.00    +0.000 OA
ATOM     13  O   UNL     1     108.316 131.640 138.813  0.00  0.00    +0.000 OA
ATOM     14  O   UNL     1     109.393 132.728 138.197  0.00  0.00    +0.000 OA
ATOM     15  C   UNL     1     109.732 130.304 137.828  0.00  0.00    +0.000 C 
ATOM     16  C   UNL     1     109.080 130.568 138.259  0.00  0.00    +0.000 C 
ATOM     17  C   UNL     1     108.967 131.376 138.382  0.00  0.00    +0.000 C 
ATOM     18  C   UNL     1     109.505 131.920 138.074  0.00  0.00    +0.000 C 
ATOM     19  C   UNL     1     110.157 131.655 137.643  0.00  0.00    +0.000 C 
BRANCH  19  21
ATOM     20  O   UNL     1     111.468 132.226 137.626  0.00  0.00    +0.000 OA
ATOM     21  C   UNL     1     110.696 132.200 137.334  0.00  0.00    +0.000 C 
ENDBRANCH  19  21
ENDBRANCH  10  15
ENDBRANCH   4  10
BRANCH   8  22
ATOM     22  O   UNL     1     112.276 128.453 135.731  0.00  0.00    +0.000 OA
BRANCH  22  27
ATOM     23  O   UNL     1     114.111 127.409 136.286  0.00  0.00    +0.000 OA
ATOM     24  O   UNL     1     111.678 126.974 136.153  0.00  0.00    +0.000 OA
ATOM     25  O   UNL     1     111.865 125.623 136.622  0.00  0.00    +0.000 OA
ATOM     26  O   UNL     1     114.565 124.694 137.237  0.00  0.00    +0.000 OA
ATOM     27  C   UNL     1     112.788 127.859 135.986  0.00  0.00    +0.000 A 
ATOM     28  C   UNL     1     113.599 128.004 136.030  0.00  0.00    +0.000 A 
ATOM     29  C   UNL     1     112.489 127.119 136.197  0.00  0.00    +0.000 A 
ATOM     30  C   UNL     1     113.001 126.525 136.452  0.00  0.00    +0.000 A 
ATOM     31  C   UNL     1     113.812 126.670 136.496  0.00  0.00    +0.000 A 
ATOM     32  C   UNL     1     112.677 125.759 136.669  0.00  0.00    +0.000 A 
ATOM     33  C   UNL     1     114.355 126.059 136.761  0.00  0.00    +0.000 A 
ATOM     34  C   UNL     1     113.206 125.136 136.936  0.00  0.00    +0.000 A 
ATOM     35  C   UNL     1     114.050 125.287 136.982  0.00  0.00    +0.000 A 
BRANCH  28  36
ATOM     36  C   UNL     1     113.898 128.743 135.819  0.00  0.00    +0.000 A 
ATOM     37  C   UNL     1     113.974 128.945 135.022  0.00  0.00    +0.000 A 
ATOM     38  C   UNL     1     114.121 129.280 136.404  0.00  0.00    +0.000 A 
ATOM     39  C   UNL     1     114.274 129.684 134.812  0.00  0.00    +0.000 A 
ATOM     40  C   UNL     1     114.421 130.019 136.192  0.00  0.00    +0.000 A 
ATOM     41  C   UNL     1     114.497 130.221 135.396  0.00  0.00    +0.000 A 
ENDBRANCH  28  36
ENDBRANCH  22  27
ENDBRANCH   8  22
TORSDOF 6
ENDMDL
MODEL 10
REMARK VINA RESULT:     -10.1      2.721      3.994
REMARK  Name = 74977992
REMARK  6 active torsions:
REMARK  status: ('A' for Active; 'I' for Inactive)
REMARK    1  A    between atoms: O_1  and  C_15
REMARK    2  A    between atoms: O_1  and  C_18
REMARK    3  A    between atoms: O_6  and  C_24
REMARK    4  A    between atoms: O_6  and  C_27
REMARK    5  A    between atoms: C_23  and  C_26
REMARK    6  A    between atoms: C_28  and  C_32
REMARK                            x       y       z     vdW  Elec       q    Type
REMARK                         _______ _______ _______ _____ _____    ______ ____
ROOT
ATOM      1  O   UNL     1     113.084 126.939 138.970  0.00  0.00    +0.000 OA
ATOM      2  O   UNL     1     111.003 126.530 140.245  0.00  0.00    +0.000 OA
ATOM      3  O   UNL     1     111.070 126.166 138.637  0.00  0.00    +0.000 OA
ATOM      4  C   UNL     1     112.357 126.985 140.199  0.00  0.00    +0.000 C 
ATOM      5  C   UNL     1     111.696 126.666 139.820  0.00  0.00    +0.000 C 
ATOM      6  C   UNL     1     113.050 127.121 139.774  0.00  0.00    +0.000 C 
ATOM      7  C   UNL     1     111.730 126.484 139.016  0.00  0.00    +0.000 C 
ATOM      8  C   UNL     1     112.424 126.621 138.591  0.00  0.00    +0.000 C 
ATOM      9  C   UNL     1     113.710 127.440 140.153  0.00  0.00    +0.000 C 
ENDROOT
BRANCH   4  10
ATOM     10  O   UNL     1     112.323 127.167 141.003  0.00  0.00    +0.000 OA
BRANCH  10  15
ATOM     11  O   UNL     1     111.937 128.520 140.752  0.00  0.00    +0.000 OA
ATOM     12  O   UNL     1     111.646 127.252 142.505  0.00  0.00    +0.000 OA
ATOM     13  O   UNL     1     110.921 128.647 143.006  0.00  0.00    +0.000 OA
ATOM     14  O   UNL     1     110.874 129.958 142.004  0.00  0.00    +0.000 OA
ATOM     15  C   UNL     1     111.961 127.864 141.254  0.00  0.00    +0.000 C 
ATOM     16  C   UNL     1     111.622 127.906 142.005  0.00  0.00    +0.000 C 
ATOM     17  C   UNL     1     111.260 128.605 142.255  0.00  0.00    +0.000 C 
ATOM     18  C   UNL     1     111.236 129.259 141.754  0.00  0.00    +0.000 C 
ATOM     19  C   UNL     1     111.575 129.217 141.003  0.00  0.00    +0.000 C 
BRANCH  19  21
ATOM     20  O   UNL     1     112.234 130.318 140.375  0.00  0.00    +0.000 OA
ATOM     21  C   UNL     1     111.551 129.872 140.502  0.00  0.00    +0.000 C 
ENDBRANCH  19  21
ENDBRANCH  10  15
ENDBRANCH   4  10
BRANCH   8  22
ATOM     22  O   UNL     1     112.458 126.439 137.787  0.00  0.00    +0.000 OA
BRANCH  22  27
ATOM     23  O   UNL     1     113.924 127.100 136.311  0.00  0.00    +0.000 OA
ATOM     24  O   UNL     1     112.062 128.035 137.647  0.00  0.00    +0.000 OA
ATOM     25  O   UNL     1     112.267 129.342 137.071  0.00  0.00    +0.000 OA
ATOM     26  O   UNL     1     114.397 129.709 135.107  0.00  0.00    +0.000 OA
ATOM     27  C   UNL     1     112.880 126.925 137.272  0.00  0.00    +0.000 A 
ATOM     28  C   UNL     1     113.501 126.614 136.827  0.00  0.00    +0.000 A 
ATOM     29  C   UNL     1     112.683 127.723 137.201  0.00  0.00    +0.000 A 
ATOM     30  C   UNL     1     113.105 128.209 136.686  0.00  0.00    +0.000 A 
ATOM     31  C   UNL     1     113.726 127.898 136.241  0.00  0.00    +0.000 A 
ATOM     32  C   UNL     1     112.889 129.039 136.622  0.00  0.00    +0.000 A 
ATOM     33  C   UNL     1     114.174 128.394 135.701  0.00  0.00    +0.000 A 
ATOM     34  C   UNL     1     113.326 129.550 136.087  0.00  0.00    +0.000 A 
ATOM     35  C   UNL     1     113.972 129.226 135.624  0.00  0.00    +0.000 A 
BRANCH  28  36
ATOM     36  C   UNL     1     113.700 125.816 136.896  0.00  0.00    +0.000 A 
ATOM     37  C   UNL     1     114.387 125.596 137.298  0.00  0.00    +0.000 A 
ATOM     38  C   UNL     1     113.212 125.239 136.566  0.00  0.00    +0.000 A 
ATOM     39  C   UNL     1     114.586 124.798 137.367  0.00  0.00    +0.000 A 
ATOM     40  C   UNL     1     113.412 124.441 136.636  0.00  0.00    +0.000 A 
ATOM     41  C   UNL     1     114.098 124.221 137.037  0.00  0.00    +0.000 A 
ENDBRANCH  28  36
ENDBRANCH  22  27
ENDBRANCH   8  22
TORSDOF 6
ENDMDL
