MODEL 1
REMARK VINA RESULT:      -9.5      0.000      0.000
REMARK  Name = 131834256
REMARK  7 active torsions:
REMARK  status: ('A' for Active; 'I' for Inactive)
REMARK    1  A    between atoms: S_1  and  O_12
REMARK    2  A    between atoms: O_3  and  C_19
REMARK    3  A    between atoms: O_3  and  C_27
REMARK    4  A    between atoms: O_12  and  C_34
REMARK    5  A    between atoms: C_20  and  C_29
REMARK    6  A    between atoms: C_22  and  C_26
REMARK    7  A    between atoms: C_35  and  C_37
REMARK                            x       y       z     vdW  Elec       q    Type
REMARK                         _______ _______ _______ _____ _____    ______ ____
ROOT
ATOM      1  O   UNL     1     104.392 128.427 141.955  0.00  0.00    +0.000 OA
ATOM      2  O   UNL     1     105.220 130.423 141.646  0.00  0.00    +0.000 OA
ATOM      3  O   UNL     1     107.276 128.270 141.966  0.00  0.00    +0.000 OA
ATOM      4  C   UNL     1     105.174 129.609 141.771  0.00  0.00    +0.000 C 
ATOM      5  C   UNL     1     104.438 129.242 141.830  0.00  0.00    +0.000 C 
ATOM      6  C   UNL     1     105.864 129.163 141.836  0.00  0.00    +0.000 C 
ATOM      7  C   UNL     1     105.818 128.349 141.961  0.00  0.00    +0.000 A 
ATOM      8  C   UNL     1     105.082 127.981 142.021  0.00  0.00    +0.000 A 
ATOM      9  C   UNL     1     105.737 126.663 142.220  0.00  0.00    +0.000 A 
ATOM     10  C   UNL     1     105.021 127.134 142.151  0.00  0.00    +0.000 A 
ATOM     11  C   UNL     1     106.544 127.894 142.027  0.00  0.00    +0.000 A 
ATOM     12  C   UNL     1     106.504 127.046 142.158  0.00  0.00    +0.000 A 
ENDROOT
BRANCH   5  13
ATOM     13  C   UNL     1     103.747 129.689 141.765  0.00  0.00    +0.000 A 
ATOM     14  C   UNL     1     103.308 129.670 141.067  0.00  0.00    +0.000 A 
ATOM     15  C   UNL     1     103.496 130.154 142.398  0.00  0.00    +0.000 A 
ATOM     16  C   UNL     1     102.618 130.116 141.000  0.00  0.00    +0.000 A 
ATOM     17  C   UNL     1     102.367 130.582 141.633  0.00  0.00    +0.000 A 
ATOM     18  C   UNL     1     102.805 130.601 142.332  0.00  0.00    +0.000 A 
BRANCH  17  19
ATOM     19  C   UNL     1     101.676 131.029 141.568  0.00  0.00    +0.000 C 
ATOM     20  C   UNL     1     101.495 131.596 142.139  0.00  0.00    +0.000 C 
ENDBRANCH  17  19
BRANCH  16  21
ATOM     21  O   UNL     1     102.179 130.098 140.302  0.00  0.00    +0.000 OA
BRANCH  21  22
ATOM     22  S   UNL     1     102.399 129.590 139.690  0.00  0.00    +0.000 S 
ATOM     23  O   UNL     1     102.620 129.083 139.078  0.00  0.00    +0.000 OA
ATOM     24  O   UNL     1     101.939 128.991 140.021  0.00  0.00    +0.000 OA
ATOM     25  O   UNL     1     102.860 130.190 139.359  0.00  0.00    +0.000 OA
ENDBRANCH  21  22
ENDBRANCH  16  21
ENDBRANCH   5  13
BRANCH   9  26
ATOM     26  O   UNL     1     105.688 125.849 142.345  0.00  0.00    +0.000 OA
BRANCH  26  34
ATOM     27  O   UNL     1     105.354 125.421 141.023  0.00  0.00    +0.000 OA
ATOM     28  O   UNL     1     106.994 123.576 141.206  0.00  0.00    +0.000 OA
ATOM     29  O   UNL     1     106.781 124.619 142.467  0.00  0.00    +0.000 OA
ATOM     30  O   UNL     1     106.113 123.764 139.824  0.00  0.00    +0.000 OA
ATOM     31  C   UNL     1     106.447 124.191 141.145  0.00  0.00    +0.000 C 
ATOM     32  C   UNL     1     106.341 124.712 141.776  0.00  0.00    +0.000 C 
ATOM     33  C   UNL     1     106.007 124.285 140.454  0.00  0.00    +0.000 C 
ATOM     34  C   UNL     1     105.795 125.328 141.715  0.00  0.00    +0.000 C 
ATOM     35  C   UNL     1     105.461 124.900 140.393  0.00  0.00    +0.000 C 
BRANCH  35  38
ATOM     36  O   UNL     1     105.344 125.399 139.059  0.00  0.00    +0.000 OA
ATOM     37  O   UNL     1     104.258 124.683 139.652  0.00  0.00    +0.000 OA
ATOM     38  C   UNL     1     105.021 124.994 139.702  0.00  0.00    +0.000 C 
ENDBRANCH  35  38
ENDBRANCH  26  34
ENDBRANCH   9  26
TORSDOF 7
ENDMDL
MODEL 2
REMARK VINA RESULT:      -9.5      6.546      9.179
REMARK  Name = 131834256
REMARK  7 active torsions:
REMARK  status: ('A' for Active; 'I' for Inactive)
REMARK    1  A    between atoms: S_1  and  O_12
REMARK    2  A    between atoms: O_3  and  C_19
REMARK    3  A    between atoms: O_3  and  C_27
REMARK    4  A    between atoms: O_12  and  C_34
REMARK    5  A    between atoms: C_20  and  C_29
REMARK    6  A    between atoms: C_22  and  C_26
REMARK    7  A    between atoms: C_35  and  C_37
REMARK                            x       y       z     vdW  Elec       q    Type
REMARK                         _______ _______ _______ _____ _____    ______ ____
ROOT
ATOM      1  O   UNL     1     111.793 127.572 138.041  0.00  0.00    +0.000 OA
ATOM      2  O   UNL     1     111.734 126.036 139.591  0.00  0.00    +0.000 OA
ATOM      3  O   UNL     1     109.948 128.383 140.111  0.00  0.00    +0.000 OA
ATOM      4  C   UNL     1     111.575 126.731 139.175  0.00  0.00    +0.000 C 
ATOM      5  C   UNL     1     111.952 126.877 138.456  0.00  0.00    +0.000 C 
ATOM      6  C   UNL     1     111.039 127.279 139.480  0.00  0.00    +0.000 C 
ATOM      7  C   UNL     1     110.881 127.974 139.064  0.00  0.00    +0.000 A 
ATOM      8  C   UNL     1     111.257 128.121 138.345  0.00  0.00    +0.000 A 
ATOM      9  C   UNL     1     110.543 129.415 138.215  0.00  0.00    +0.000 A 
ATOM     10  C   UNL     1     111.100 128.840 137.903  0.00  0.00    +0.000 A 
ATOM     11  C   UNL     1     110.320 128.538 139.391  0.00  0.00    +0.000 A 
ATOM     12  C   UNL     1     110.151 129.263 138.963  0.00  0.00    +0.000 A 
ENDROOT
BRANCH   5  13
ATOM     13  C   UNL     1     112.488 126.328 138.153  0.00  0.00    +0.000 A 
ATOM     14  C   UNL     1     112.248 125.797 137.569  0.00  0.00    +0.000 A 
ATOM     15  C   UNL     1     113.264 126.310 138.433  0.00  0.00    +0.000 A 
ATOM     16  C   UNL     1     112.783 125.248 137.265  0.00  0.00    +0.000 A 
ATOM     17  C   UNL     1     113.559 125.230 137.545  0.00  0.00    +0.000 A 
ATOM     18  C   UNL     1     113.800 125.762 138.129  0.00  0.00    +0.000 A 
BRANCH  17  19
ATOM     19  C   UNL     1     114.095 124.681 137.241  0.00  0.00    +0.000 C 
ATOM     20  C   UNL     1     114.892 124.722 137.451  0.00  0.00    +0.000 C 
ENDBRANCH  17  19
BRANCH  16  21
ATOM     21  O   UNL     1     112.543 124.717 136.681  0.00  0.00    +0.000 OA
BRANCH  21  22
ATOM     22  S   UNL     1     111.769 124.738 136.396  0.00  0.00    +0.000 S 
ATOM     23  O   UNL     1     110.995 124.760 136.111  0.00  0.00    +0.000 OA
ATOM     24  O   UNL     1     111.990 125.308 135.841  0.00  0.00    +0.000 OA
ATOM     25  O   UNL     1     111.549 124.169 136.951  0.00  0.00    +0.000 OA
ENDBRANCH  21  22
ENDBRANCH  16  21
ENDBRANCH   5  13
BRANCH   9  26
ATOM     26  O   UNL     1     110.386 130.110 137.798  0.00  0.00    +0.000 OA
BRANCH  26  34
ATOM     27  O   UNL     1     109.547 129.555 136.783  0.00  0.00    +0.000 OA
ATOM     28  O   UNL     1     108.051 131.521 136.946  0.00  0.00    +0.000 OA
ATOM     29  O   UNL     1     109.389 131.420 137.907  0.00  0.00    +0.000 OA
ATOM     30  O   UNL     1     107.711 130.312 135.877  0.00  0.00    +0.000 OA
ATOM     31  C   UNL     1     108.550 130.866 136.892  0.00  0.00    +0.000 C 
ATOM     32  C   UNL     1     109.219 130.816 137.372  0.00  0.00    +0.000 C 
ATOM     33  C   UNL     1     108.379 130.262 136.357  0.00  0.00    +0.000 C 
ATOM     34  C   UNL     1     109.717 130.161 137.318  0.00  0.00    +0.000 C 
ATOM     35  C   UNL     1     108.878 129.606 136.303  0.00  0.00    +0.000 C 
BRANCH  35  38
ATOM     36  O   UNL     1     109.037 129.016 135.011  0.00  0.00    +0.000 OA
ATOM     37  O   UNL     1     108.209 128.382 135.990  0.00  0.00    +0.000 OA
ATOM     38  C   UNL     1     108.708 129.001 135.768  0.00  0.00    +0.000 C 
ENDBRANCH  35  38
ENDBRANCH  26  34
ENDBRANCH   9  26
TORSDOF 7
ENDMDL
MODEL 3
REMARK VINA RESULT:      -9.4      6.715      9.505
REMARK  Name = 131834256
REMARK  7 active torsions:
REMARK  status: ('A' for Active; 'I' for Inactive)
REMARK    1  A    between atoms: S_1  and  O_12
REMARK    2  A    between atoms: O_3  and  C_19
REMARK    3  A    between atoms: O_3  and  C_27
REMARK    4  A    between atoms: O_12  and  C_34
REMARK    5  A    between atoms: C_20  and  C_29
REMARK    6  A    between atoms: C_22  and  C_26
REMARK    7  A    between atoms: C_35  and  C_37
REMARK                            x       y       z     vdW  Elec       q    Type
REMARK                         _______ _______ _______ _____ _____    ______ ____
ROOT
ATOM      1  O   UNL     1     111.171 127.331 136.563  0.00  0.00    +0.000 OA
ATOM      2  O   UNL     1     110.674 125.255 137.018  0.00  0.00    +0.000 OA
ATOM      3  O   UNL     1     108.352 126.906 136.095  0.00  0.00    +0.000 OA
ATOM      4  C   UNL     1     110.594 126.043 136.789  0.00  0.00    +0.000 C 
ATOM      5  C   UNL     1     111.251 126.542 136.791  0.00  0.00    +0.000 C 
ATOM      6  C   UNL     1     109.857 126.333 136.560  0.00  0.00    +0.000 C 
ATOM      7  C   UNL     1     109.777 127.121 136.332  0.00  0.00    +0.000 A 
ATOM      8  C   UNL     1     110.434 127.621 136.333  0.00  0.00    +0.000 A 
ATOM      9  C   UNL     1     109.598 128.752 135.857  0.00  0.00    +0.000 A 
ATOM     10  C   UNL     1     110.363 128.444 136.098  0.00  0.00    +0.000 A 
ATOM     11  C   UNL     1     109.004 127.412 136.094  0.00  0.00    +0.000 A 
ATOM     12  C   UNL     1     108.914 128.233 135.855  0.00  0.00    +0.000 A 
ENDROOT
BRANCH   5  13
ATOM     13  C   UNL     1     111.989 126.252 137.021  0.00  0.00    +0.000 A 
ATOM     14  C   UNL     1     112.266 126.390 137.786  0.00  0.00    +0.000 A 
ATOM     15  C   UNL     1     112.449 125.824 136.487  0.00  0.00    +0.000 A 
ATOM     16  C   UNL     1     113.003 126.100 138.017  0.00  0.00    +0.000 A 
ATOM     17  C   UNL     1     113.463 125.672 137.482  0.00  0.00    +0.000 A 
ATOM     18  C   UNL     1     113.186 125.533 136.717  0.00  0.00    +0.000 A 
BRANCH  17  19
ATOM     19  C   UNL     1     114.200 125.382 137.712  0.00  0.00    +0.000 C 
ATOM     20  C   UNL     1     114.628 124.892 137.205  0.00  0.00    +0.000 C 
ENDBRANCH  17  19
BRANCH  16  21
ATOM     21  O   UNL     1     113.280 126.238 138.781  0.00  0.00    +0.000 OA
BRANCH  21  22
ATOM     22  S   UNL     1     112.854 126.725 139.293  0.00  0.00    +0.000 S 
ATOM     23  O   UNL     1     112.428 127.213 139.805  0.00  0.00    +0.000 OA
ATOM     24  O   UNL     1     113.249 127.385 138.993  0.00  0.00    +0.000 OA
ATOM     25  O   UNL     1     112.459 126.066 139.593  0.00  0.00    +0.000 OA
ENDBRANCH  21  22
ENDBRANCH  16  21
ENDBRANCH   5  13
BRANCH   9  26
ATOM     26  O   UNL     1     109.521 129.541 135.630  0.00  0.00    +0.000 OA
BRANCH  26  34
ATOM     27  O   UNL     1     109.336 130.074 136.942  0.00  0.00    +0.000 OA
ATOM     28  O   UNL     1     107.728 131.728 136.045  0.00  0.00    +0.000 OA
ATOM     29  O   UNL     1     108.448 130.643 135.031  0.00  0.00    +0.000 OA
ATOM     30  O   UNL     1     108.080 131.710 137.656  0.00  0.00    +0.000 OA
ATOM     31  C   UNL     1     108.264 131.177 136.344  0.00  0.00    +0.000 C 
ATOM     32  C   UNL     1     108.624 130.634 135.837  0.00  0.00    +0.000 C 
ATOM     33  C   UNL     1     108.440 131.168 137.149  0.00  0.00    +0.000 C 
ATOM     34  C   UNL     1     109.160 130.083 136.136  0.00  0.00    +0.000 C 
ATOM     35  C   UNL     1     108.976 130.617 137.449  0.00  0.00    +0.000 C 
BRANCH  35  38
ATOM     36  O   UNL     1     109.813 131.014 138.536  0.00  0.00    +0.000 OA
ATOM     37  O   UNL     1     108.669 130.192 138.778  0.00  0.00    +0.000 OA
ATOM     38  C   UNL     1     109.152 130.608 138.254  0.00  0.00    +0.000 C 
ENDBRANCH  35  38
ENDBRANCH  26  34
ENDBRANCH   9  26
TORSDOF 7
ENDMDL
MODEL 4
REMARK VINA RESULT:      -9.4      6.995      9.455
REMARK  Name = 131834256
REMARK  7 active torsions:
REMARK  status: ('A' for Active; 'I' for Inactive)
REMARK    1  A    between atoms: S_1  and  O_12
REMARK    2  A    between atoms: O_3  and  C_19
REMARK    3  A    between atoms: O_3  and  C_27
REMARK    4  A    between atoms: O_12  and  C_34
REMARK    5  A    between atoms: C_20  and  C_29
REMARK    6  A    between atoms: C_22  and  C_26
REMARK    7  A    between atoms: C_35  and  C_37
REMARK                            x       y       z     vdW  Elec       q    Type
REMARK                         _______ _______ _______ _____ _____    ______ ____
ROOT
ATOM      1  O   UNL     1     111.602 128.029 137.125  0.00  0.00    +0.000 OA
ATOM      2  O   UNL     1     113.368 127.818 135.859  0.00  0.00    +0.000 OA
ATOM      3  O   UNL     1     112.633 130.652 136.490  0.00  0.00    +0.000 OA
ATOM      4  C   UNL     1     112.763 128.162 136.303  0.00  0.00    +0.000 C 
ATOM      5  C   UNL     1     112.207 127.685 136.681  0.00  0.00    +0.000 C 
ATOM      6  C   UNL     1     112.716 128.983 136.368  0.00  0.00    +0.000 C 
ATOM      7  C   UNL     1     112.112 129.327 136.812  0.00  0.00    +0.000 A 
ATOM      8  C   UNL     1     111.555 128.850 137.191  0.00  0.00    +0.000 A 
ATOM      9  C   UNL     1     110.866 130.051 137.727  0.00  0.00    +0.000 A 
ATOM     10  C   UNL     1     110.921 129.196 137.656  0.00  0.00    +0.000 A 
ATOM     11  C   UNL     1     112.072 130.183 136.873  0.00  0.00    +0.000 A 
ATOM     12  C   UNL     1     111.445 130.547 137.333  0.00  0.00    +0.000 A 
ENDROOT
BRANCH   5  13
ATOM     13  C   UNL     1     112.255 126.864 136.616  0.00  0.00    +0.000 A 
ATOM     14  C   UNL     1     111.702 126.453 136.162  0.00  0.00    +0.000 A 
ATOM     15  C   UNL     1     112.856 126.454 137.004  0.00  0.00    +0.000 A 
ATOM     16  C   UNL     1     111.749 125.633 136.096  0.00  0.00    +0.000 A 
ATOM     17  C   UNL     1     112.350 125.222 136.484  0.00  0.00    +0.000 A 
ATOM     18  C   UNL     1     112.904 125.632 136.938  0.00  0.00    +0.000 A 
BRANCH  17  19
ATOM     19  C   UNL     1     112.398 124.401 136.419  0.00  0.00    +0.000 C 
ATOM     20  C   UNL     1     113.027 123.995 136.765  0.00  0.00    +0.000 C 
ENDBRANCH  17  19
BRANCH  16  21
ATOM     21  O   UNL     1     111.195 125.222 135.642  0.00  0.00    +0.000 OA
BRANCH  21  22
ATOM     22  S   UNL     1     110.509 125.601 135.386  0.00  0.00    +0.000 S 
ATOM     23  O   UNL     1     109.822 125.980 135.130  0.00  0.00    +0.000 OA
ATOM     24  O   UNL     1     110.873 125.775 134.667  0.00  0.00    +0.000 OA
ATOM     25  O   UNL     1     110.145 125.428 136.106  0.00  0.00    +0.000 OA
ENDBRANCH  21  22
ENDBRANCH  16  21
ENDBRANCH   5  13
BRANCH   9  26
ATOM     26  O   UNL     1     110.260 130.392 138.172  0.00  0.00    +0.000 OA
BRANCH  26  34
ATOM     27  O   UNL     1     109.313 130.367 137.103  0.00  0.00    +0.000 OA
ATOM     28  O   UNL     1     108.202 132.370 138.041  0.00  0.00    +0.000 OA
ATOM     29  O   UNL     1     109.520 131.727 138.797  0.00  0.00    +0.000 OA
ATOM     30  O   UNL     1     107.625 131.677 136.660  0.00  0.00    +0.000 OA
ATOM     31  C   UNL     1     108.572 131.702 137.728  0.00  0.00    +0.000 C 
ATOM     32  C   UNL     1     109.231 131.381 138.107  0.00  0.00    +0.000 C 
ATOM     33  C   UNL     1     108.284 131.356 137.038  0.00  0.00    +0.000 C 
ATOM     34  C   UNL     1     109.602 130.714 137.794  0.00  0.00    +0.000 C 
ATOM     35  C   UNL     1     108.654 130.689 136.725  0.00  0.00    +0.000 C 
BRANCH  35  38
ATOM     36  O   UNL     1     108.639 130.601 135.299  0.00  0.00    +0.000 OA
ATOM     37  O   UNL     1     107.806 129.738 136.077  0.00  0.00    +0.000 OA
ATOM     38  C   UNL     1     108.366 130.342 136.034  0.00  0.00    +0.000 C 
ENDBRANCH  35  38
ENDBRANCH  26  34
ENDBRANCH   9  26
TORSDOF 7
ENDMDL
MODEL 5
REMARK VINA RESULT:      -9.4      6.870      9.206
REMARK  Name = 131834256
REMARK  7 active torsions:
REMARK  status: ('A' for Active; 'I' for Inactive)
REMARK    1  A    between atoms: S_1  and  O_12
REMARK    2  A    between atoms: O_3  and  C_19
REMARK    3  A    between atoms: O_3  and  C_27
REMARK    4  A    between atoms: O_12  and  C_34
REMARK    5  A    between atoms: C_20  and  C_29
REMARK    6  A    between atoms: C_22  and  C_26
REMARK    7  A    between atoms: C_35  and  C_37
REMARK                            x       y       z     vdW  Elec       q    Type
REMARK                         _______ _______ _______ _____ _____    ______ ____
ROOT
ATOM      1  O   UNL     1     111.724 126.490 138.951  0.00  0.00    +0.000 OA
ATOM      2  O   UNL     1     109.717 125.632 138.959  0.00  0.00    +0.000 OA
ATOM      3  O   UNL     1     110.681 126.540 141.645  0.00  0.00    +0.000 OA
ATOM      4  C   UNL     1     110.417 125.981 139.222  0.00  0.00    +0.000 C 
ATOM      5  C   UNL     1     111.025 126.142 138.688  0.00  0.00    +0.000 C 
ATOM      6  C   UNL     1     110.509 126.167 140.020  0.00  0.00    +0.000 C 
ATOM      7  C   UNL     1     111.209 126.515 140.284  0.00  0.00    +0.000 A 
ATOM      8  C   UNL     1     111.817 126.677 139.749  0.00  0.00    +0.000 A 
ATOM      9  C   UNL     1     112.652 127.236 140.842  0.00  0.00    +0.000 A 
ATOM     10  C   UNL     1     112.551 127.040 140.012  0.00  0.00    +0.000 A 
ATOM     11  C   UNL     1     111.294 126.705 141.118  0.00  0.00    +0.000 A 
ATOM     12  C   UNL     1     112.020 127.068 141.398  0.00  0.00    +0.000 A 
ENDROOT
BRANCH   5  13
ATOM     13  C   UNL     1     110.932 125.955 137.889  0.00  0.00    +0.000 A 
ATOM     14  C   UNL     1     111.313 125.295 137.573  0.00  0.00    +0.000 A 
ATOM     15  C   UNL     1     110.458 126.428 137.407  0.00  0.00    +0.000 A 
ATOM     16  C   UNL     1     111.221 125.108 136.776  0.00  0.00    +0.000 A 
ATOM     17  C   UNL     1     110.747 125.581 136.293  0.00  0.00    +0.000 A 
ATOM     18  C   UNL     1     110.365 126.241 136.609  0.00  0.00    +0.000 A 
BRANCH  17  19
ATOM     19  C   UNL     1     110.654 125.394 135.495  0.00  0.00    +0.000 C 
ATOM     20  C   UNL     1     110.083 125.781 135.043  0.00  0.00    +0.000 C 
ENDBRANCH  17  19
BRANCH  16  21
ATOM     21  O   UNL     1     111.602 124.448 136.459  0.00  0.00    +0.000 OA
BRANCH  21  22
ATOM     22  S   UNL     1     112.233 124.103 136.863  0.00  0.00    +0.000 S 
ATOM     23  O   UNL     1     112.865 123.759 137.267  0.00  0.00    +0.000 OA
ATOM     24  O   UNL     1     111.716 123.565 137.214  0.00  0.00    +0.000 OA
ATOM     25  O   UNL     1     112.751 124.641 136.512  0.00  0.00    +0.000 OA
ENDBRANCH  21  22
ENDBRANCH  16  21
ENDBRANCH   5  13
BRANCH   9  26
ATOM     26  O   UNL     1     113.353 127.585 141.103  0.00  0.00    +0.000 OA
BRANCH  26  34
ATOM     27  O   UNL     1     112.844 128.920 141.118  0.00  0.00    +0.000 OA
ATOM     28  O   UNL     1     115.081 129.780 140.500  0.00  0.00    +0.000 OA
ATOM     29  O   UNL     1     114.845 128.158 140.691  0.00  0.00    +0.000 OA
ATOM     30  O   UNL     1     113.827 130.827 140.722  0.00  0.00    +0.000 OA
ATOM     31  C   UNL     1     114.335 129.493 140.706  0.00  0.00    +0.000 C 
ATOM     32  C   UNL     1     114.218 128.682 140.801  0.00  0.00    +0.000 C 
ATOM     33  C   UNL     1     113.709 130.017 140.817  0.00  0.00    +0.000 C 
ATOM     34  C   UNL     1     113.472 128.395 141.007  0.00  0.00    +0.000 C 
ATOM     35  C   UNL     1     112.963 129.730 141.023  0.00  0.00    +0.000 C 
BRANCH  35  38
ATOM     36  O   UNL     1     112.141 130.509 141.894  0.00  0.00    +0.000 OA
ATOM     37  O   UNL     1     111.902 130.523 140.485  0.00  0.00    +0.000 OA
ATOM     38  C   UNL     1     112.335 130.254 141.134  0.00  0.00    +0.000 C 
ENDBRANCH  35  38
ENDBRANCH  26  34
ENDBRANCH   9  26
TORSDOF 7
ENDMDL
MODEL 6
REMARK VINA RESULT:      -9.3      4.391      6.372
REMARK  Name = 131834256
REMARK  7 active torsions:
REMARK  status: ('A' for Active; 'I' for Inactive)
REMARK    1  A    between atoms: S_1  and  O_12
REMARK    2  A    between atoms: O_3  and  C_19
REMARK    3  A    between atoms: O_3  and  C_27
REMARK    4  A    between atoms: O_12  and  C_34
REMARK    5  A    between atoms: C_20  and  C_29
REMARK    6  A    between atoms: C_22  and  C_26
REMARK    7  A    between atoms: C_35  and  C_37
REMARK                            x       y       z     vdW  Elec       q    Type
REMARK                         _______ _______ _______ _____ _____    ______ ____
ROOT
ATOM      1  O   UNL     1     106.365 125.878 145.704  0.00  0.00    +0.000 OA
ATOM      2  O   UNL     1     106.911 127.415 147.156  0.00  0.00    +0.000 OA
ATOM      3  O   UNL     1     106.212 128.473 144.443  0.00  0.00    +0.000 OA
ATOM      4  C   UNL     1     106.677 127.057 146.450  0.00  0.00    +0.000 C 
ATOM      5  C   UNL     1     106.599 126.236 146.410  0.00  0.00    +0.000 C 
ATOM      6  C   UNL     1     106.522 127.519 145.785  0.00  0.00    +0.000 C 
ATOM      7  C   UNL     1     106.289 127.161 145.079  0.00  0.00    +0.000 A 
ATOM      8  C   UNL     1     106.210 126.341 145.038  0.00  0.00    +0.000 A 
ATOM      9  C   UNL     1     105.805 126.433 143.613  0.00  0.00    +0.000 A 
ATOM     10  C   UNL     1     105.968 125.956 144.309  0.00  0.00    +0.000 A 
ATOM     11  C   UNL     1     106.130 127.653 144.393  0.00  0.00    +0.000 A 
ATOM     12  C   UNL     1     105.887 127.287 143.655  0.00  0.00    +0.000 A 
ENDROOT
BRANCH   5  13
ATOM     13  C   UNL     1     106.754 125.774 147.075  0.00  0.00    +0.000 A 
ATOM     14  C   UNL     1     106.130 125.485 147.531  0.00  0.00    +0.000 A 
ATOM     15  C   UNL     1     107.532 125.601 147.285  0.00  0.00    +0.000 A 
ATOM     16  C   UNL     1     106.284 125.023 148.196  0.00  0.00    +0.000 A 
ATOM     17  C   UNL     1     107.063 124.850 148.406  0.00  0.00    +0.000 A 
ATOM     18  C   UNL     1     107.687 125.139 147.951  0.00  0.00    +0.000 A 
BRANCH  17  19
ATOM     19  C   UNL     1     107.218 124.387 149.072  0.00  0.00    +0.000 C 
ATOM     20  C   UNL     1     107.972 124.382 149.405  0.00  0.00    +0.000 C 
ENDBRANCH  17  19
BRANCH  16  21
ATOM     21  O   UNL     1     105.660 124.734 148.652  0.00  0.00    +0.000 OA
BRANCH  21  22
ATOM     22  S   UNL     1     104.881 124.919 148.451  0.00  0.00    +0.000 S 
ATOM     23  O   UNL     1     104.103 125.103 148.249  0.00  0.00    +0.000 OA
ATOM     24  O   UNL     1     104.855 124.262 147.951  0.00  0.00    +0.000 OA
ATOM     25  O   UNL     1     104.908 125.575 148.950  0.00  0.00    +0.000 OA
ENDBRANCH  21  22
ENDBRANCH  16  21
ENDBRANCH   5  13
BRANCH   9  26
ATOM     26  O   UNL     1     105.572 126.072 142.909  0.00  0.00    +0.000 OA
BRANCH  26  34
ATOM     27  O   UNL     1     106.795 126.252 142.193  0.00  0.00    +0.000 OA
ATOM     28  O   UNL     1     106.536 124.007 141.185  0.00  0.00    +0.000 OA
ATOM     29  O   UNL     1     105.399 124.576 142.237  0.00  0.00    +0.000 OA
ATOM     30  O   UNL     1     107.845 124.935 140.805  0.00  0.00    +0.000 OA
ATOM     31  C   UNL     1     106.622 124.755 141.521  0.00  0.00    +0.000 C 
ATOM     32  C   UNL     1     106.053 125.039 142.047  0.00  0.00    +0.000 C 
ATOM     33  C   UNL     1     107.277 125.219 141.331  0.00  0.00    +0.000 C 
ATOM     34  C   UNL     1     106.140 125.788 142.383  0.00  0.00    +0.000 C 
ATOM     35  C   UNL     1     107.363 125.968 141.667  0.00  0.00    +0.000 C 
BRANCH  35  38
ATOM     36  O   UNL     1     108.715 126.360 141.914  0.00  0.00    +0.000 OA
ATOM     37  O   UNL     1     107.977 126.968 140.852  0.00  0.00    +0.000 OA
ATOM     38  C   UNL     1     108.018 126.432 141.477  0.00  0.00    +0.000 C 
ENDBRANCH  35  38
ENDBRANCH  26  34
ENDBRANCH   9  26
TORSDOF 7
ENDMDL
MODEL 7
REMARK VINA RESULT:      -9.3      7.332      9.945
REMARK  Name = 131834256
REMARK  7 active torsions:
REMARK  status: ('A' for Active; 'I' for Inactive)
REMARK    1  A    between atoms: S_1  and  O_12
REMARK    2  A    between atoms: O_3  and  C_19
REMARK    3  A    between atoms: O_3  and  C_27
REMARK    4  A    between atoms: O_12  and  C_34
REMARK    5  A    between atoms: C_20  and  C_29
REMARK    6  A    between atoms: C_22  and  C_26
REMARK    7  A    between atoms: C_35  and  C_37
REMARK                            x       y       z     vdW  Elec       q    Type
REMARK                         _______ _______ _______ _____ _____    ______ ____
ROOT
ATOM      1  O   UNL     1     112.065 128.242 136.503  0.00  0.00    +0.000 OA
ATOM      2  O   UNL     1     111.524 126.318 135.627  0.00  0.00    +0.000 OA
ATOM      3  O   UNL     1     109.915 128.630 134.614  0.00  0.00    +0.000 OA
ATOM      4  C   UNL     1     111.528 127.126 135.791  0.00  0.00    +0.000 C 
ATOM      5  C   UNL     1     112.061 127.434 136.340  0.00  0.00    +0.000 C 
ATOM      6  C   UNL     1     110.998 127.627 135.405  0.00  0.00    +0.000 C 
ATOM      7  C   UNL     1     111.001 128.435 135.569  0.00  0.00    +0.000 A 
ATOM      8  C   UNL     1     111.535 128.744 136.118  0.00  0.00    +0.000 A 
ATOM      9  C   UNL     1     110.998 130.110 135.898  0.00  0.00    +0.000 A 
ATOM     10  C   UNL     1     111.548 129.584 136.297  0.00  0.00    +0.000 A 
ATOM     11  C   UNL     1     110.444 128.947 135.161  0.00  0.00    +0.000 A 
ATOM     12  C   UNL     1     110.443 129.790 135.327  0.00  0.00    +0.000 A 
ENDROOT
BRANCH   5  13
ATOM     13  C   UNL     1     112.591 126.933 136.725  0.00  0.00    +0.000 A 
ATOM     14  C   UNL     1     112.443 126.693 137.501  0.00  0.00    +0.000 A 
ATOM     15  C   UNL     1     113.270 126.671 136.336  0.00  0.00    +0.000 A 
ATOM     16  C   UNL     1     112.972 126.192 137.887  0.00  0.00    +0.000 A 
ATOM     17  C   UNL     1     113.651 125.930 137.497  0.00  0.00    +0.000 A 
ATOM     18  C   UNL     1     113.800 126.170 136.721  0.00  0.00    +0.000 A 
BRANCH  17  19
ATOM     19  C   UNL     1     114.181 125.429 137.882  0.00  0.00    +0.000 C 
ATOM     20  C   UNL     1     114.740 125.007 137.448  0.00  0.00    +0.000 C 
ENDBRANCH  17  19
BRANCH  16  21
ATOM     21  O   UNL     1     112.823 125.952 138.662  0.00  0.00    +0.000 OA
BRANCH  21  22
ATOM     22  S   UNL     1     112.203 126.291 139.087  0.00  0.00    +0.000 S 
ATOM     23  O   UNL     1     111.584 126.631 139.513  0.00  0.00    +0.000 OA
ATOM     24  O   UNL     1     112.698 126.912 139.312  0.00  0.00    +0.000 OA
ATOM     25  O   UNL     1     111.709 125.670 138.863  0.00  0.00    +0.000 OA
ENDBRANCH  21  22
ENDBRANCH  16  21
ENDBRANCH   5  13
BRANCH   9  26
ATOM     26  O   UNL     1     111.004 130.919 136.064  0.00  0.00    +0.000 OA
BRANCH  26  34
ATOM     27  O   UNL     1     109.847 130.912 136.903  0.00  0.00    +0.000 OA
ATOM     28  O   UNL     1     110.863 132.672 138.316  0.00  0.00    +0.000 OA
ATOM     29  O   UNL     1     111.681 132.092 137.006  0.00  0.00    +0.000 OA
ATOM     30  O   UNL     1     109.368 132.079 138.683  0.00  0.00    +0.000 OA
ATOM     31  C   UNL     1     110.524 132.085 137.845  0.00  0.00    +0.000 C 
ATOM     32  C   UNL     1     110.934 131.795 137.190  0.00  0.00    +0.000 C 
ATOM     33  C   UNL     1     109.777 131.789 138.029  0.00  0.00    +0.000 C 
ATOM     34  C   UNL     1     110.596 131.209 136.719  0.00  0.00    +0.000 C 
ATOM     35  C   UNL     1     109.439 131.203 137.558  0.00  0.00    +0.000 C 
BRANCH  35  38
ATOM     36  O   UNL     1     108.618 130.260 138.250  0.00  0.00    +0.000 OA
ATOM     37  O   UNL     1     108.018 131.254 137.416  0.00  0.00    +0.000 OA
ATOM     38  C   UNL     1     108.691 130.906 137.741  0.00  0.00    +0.000 C 
ENDBRANCH  35  38
ENDBRANCH  26  34
ENDBRANCH   9  26
TORSDOF 7
ENDMDL
MODEL 8
REMARK VINA RESULT:      -9.3      7.646     10.170
REMARK  Name = 131834256
REMARK  7 active torsions:
REMARK  status: ('A' for Active; 'I' for Inactive)
REMARK    1  A    between atoms: S_1  and  O_12
REMARK    2  A    between atoms: O_3  and  C_19
REMARK    3  A    between atoms: O_3  and  C_27
REMARK    4  A    between atoms: O_12  and  C_34
REMARK    5  A    between atoms: C_20  and  C_29
REMARK    6  A    between atoms: C_22  and  C_26
REMARK    7  A    between atoms: C_35  and  C_37
REMARK                            x       y       z     vdW  Elec       q    Type
REMARK                         _______ _______ _______ _____ _____    ______ ____
ROOT
ATOM      1  O   UNL     1     112.313 128.750 137.208  0.00  0.00    +0.000 OA
ATOM      2  O   UNL     1     113.737 128.029 135.720  0.00  0.00    +0.000 OA
ATOM      3  O   UNL     1     113.874 130.976 136.232  0.00  0.00    +0.000 OA
ATOM      4  C   UNL     1     113.321 128.538 136.219  0.00  0.00    +0.000 C 
ATOM      5  C   UNL     1     112.728 128.241 136.709  0.00  0.00    +0.000 C 
ATOM      6  C   UNL     1     113.500 129.343 136.227  0.00  0.00    +0.000 C 
ATOM      7  C   UNL     1     113.084 129.852 136.726  0.00  0.00    +0.000 A 
ATOM      8  C   UNL     1     112.490 129.556 137.217  0.00  0.00    +0.000 A 
ATOM      9  C   UNL     1     112.232 130.915 137.754  0.00  0.00    +0.000 A 
ATOM     10  C   UNL     1     112.051 130.075 137.741  0.00  0.00    +0.000 A 
ATOM     11  C   UNL     1     113.279 130.689 136.726  0.00  0.00    +0.000 A 
ATOM     12  C   UNL     1     112.850 131.224 137.243  0.00  0.00    +0.000 A 
ENDROOT
BRANCH   5  13
ATOM     13  C   UNL     1     112.550 127.435 136.701  0.00  0.00    +0.000 A 
ATOM     14  C   UNL     1     112.850 126.940 137.289  0.00  0.00    +0.000 A 
ATOM     15  C   UNL     1     112.073 127.125 136.104  0.00  0.00    +0.000 A 
ATOM     16  C   UNL     1     112.672 126.135 137.281  0.00  0.00    +0.000 A 
ATOM     17  C   UNL     1     112.195 125.824 136.684  0.00  0.00    +0.000 A 
ATOM     18  C   UNL     1     111.895 126.319 136.095  0.00  0.00    +0.000 A 
BRANCH  17  19
ATOM     19  C   UNL     1     112.017 125.019 136.676  0.00  0.00    +0.000 C 
ATOM     20  C   UNL     1     111.507 124.714 136.103  0.00  0.00    +0.000 C 
ENDBRANCH  17  19
BRANCH  16  21
ATOM     21  O   UNL     1     112.972 125.640 137.869  0.00  0.00    +0.000 OA
BRANCH  21  22
ATOM     22  S   UNL     1     113.432 125.954 138.478  0.00  0.00    +0.000 S 
ATOM     23  O   UNL     1     113.892 126.269 139.086  0.00  0.00    +0.000 OA
ATOM     24  O   UNL     1     114.115 125.792 138.045  0.00  0.00    +0.000 OA
ATOM     25  O   UNL     1     112.749 126.117 138.910  0.00  0.00    +0.000 OA
ENDBRANCH  21  22
ENDBRANCH  16  21
ENDBRANCH   5  13
BRANCH   9  26
ATOM     26  O   UNL     1     111.815 131.422 138.254  0.00  0.00    +0.000 OA
BRANCH  26  34
ATOM     27  O   UNL     1     110.873 131.907 137.295  0.00  0.00    +0.000 OA
ATOM     28  O   UNL     1     109.090 131.835 139.010  0.00  0.00    +0.000 OA
ATOM     29  O   UNL     1     110.627 131.374 139.397  0.00  0.00    +0.000 OA
ATOM     30  O   UNL     1     108.743 132.344 137.480  0.00  0.00    +0.000 OA
ATOM     31  C   UNL     1     109.685 131.859 138.438  0.00  0.00    +0.000 C 
ATOM     32  C   UNL     1     110.453 131.629 138.632  0.00  0.00    +0.000 C 
ATOM     33  C   UNL     1     109.511 132.114 137.674  0.00  0.00    +0.000 C 
ATOM     34  C   UNL     1     111.047 131.653 138.061  0.00  0.00    +0.000 C 
ATOM     35  C   UNL     1     110.105 132.138 137.102  0.00  0.00    +0.000 C 
BRANCH  35  38
ATOM     36  O   UNL     1     110.042 133.184 136.131  0.00  0.00    +0.000 OA
ATOM     37  O   UNL     1     109.649 131.856 135.777  0.00  0.00    +0.000 OA
ATOM     38  C   UNL     1     109.932 132.392 136.337  0.00  0.00    +0.000 C 
ENDBRANCH  35  38
ENDBRANCH  26  34
ENDBRANCH   9  26
TORSDOF 7
ENDMDL
MODEL 9
REMARK VINA RESULT:      -9.3      2.648      3.626
REMARK  Name = 131834256
REMARK  7 active torsions:
REMARK  status: ('A' for Active; 'I' for Inactive)
REMARK    1  A    between atoms: S_1  and  O_12
REMARK    2  A    between atoms: O_3  and  C_19
REMARK    3  A    between atoms: O_3  and  C_27
REMARK    4  A    between atoms: O_12  and  C_34
REMARK    5  A    between atoms: C_20  and  C_29
REMARK    6  A    between atoms: C_22  and  C_26
REMARK    7  A    between atoms: C_35  and  C_37
REMARK                            x       y       z     vdW  Elec       q    Type
REMARK                         _______ _______ _______ _____ _____    ______ ____
ROOT
ATOM      1  O   UNL     1     104.793 128.406 143.191  0.00  0.00    +0.000 OA
ATOM      2  O   UNL     1     105.850 129.022 141.383  0.00  0.00    +0.000 OA
ATOM      3  O   UNL     1     107.622 127.931 143.537  0.00  0.00    +0.000 OA
ATOM      4  C   UNL     1     105.707 128.728 142.141  0.00  0.00    +0.000 C 
ATOM      5  C   UNL     1     104.936 128.700 142.433  0.00  0.00    +0.000 C 
ATOM      6  C   UNL     1     106.335 128.464 142.605  0.00  0.00    +0.000 C 
ATOM      7  C   UNL     1     106.192 128.171 143.363  0.00  0.00    +0.000 A 
ATOM      8  C   UNL     1     105.421 128.142 143.656  0.00  0.00    +0.000 A 
ATOM      9  C   UNL     1     105.910 127.561 144.932  0.00  0.00    +0.000 A 
ATOM     10  C   UNL     1     105.260 127.838 144.444  0.00  0.00    +0.000 A 
ATOM     11  C   UNL     1     106.854 127.898 143.838  0.00  0.00    +0.000 A 
ATOM     12  C   UNL     1     106.712 127.591 144.628  0.00  0.00    +0.000 A 
ENDROOT
BRANCH   5  13
ATOM     13  C   UNL     1     104.308 128.964 141.968  0.00  0.00    +0.000 A 
ATOM     14  C   UNL     1     103.944 129.685 142.138  0.00  0.00    +0.000 A 
ATOM     15  C   UNL     1     104.045 128.509 141.333  0.00  0.00    +0.000 A 
ATOM     16  C   UNL     1     103.316 129.950 141.674  0.00  0.00    +0.000 A 
ATOM     17  C   UNL     1     103.053 129.494 141.039  0.00  0.00    +0.000 A 
ATOM     18  C   UNL     1     103.417 128.774 140.868  0.00  0.00    +0.000 A 
BRANCH  17  19
ATOM     19  C   UNL     1     102.425 129.759 140.574  0.00  0.00    +0.000 C 
ATOM     20  C   UNL     1     102.221 129.354 139.884  0.00  0.00    +0.000 C 
ENDBRANCH  17  19
BRANCH  16  21
ATOM     21  O   UNL     1     102.952 130.670 141.844  0.00  0.00    +0.000 OA
BRANCH  21  22
ATOM     22  S   UNL     1     103.182 131.103 142.508  0.00  0.00    +0.000 S 
ATOM     23  O   UNL     1     103.413 131.535 143.172  0.00  0.00    +0.000 OA
ATOM     24  O   UNL     1     102.633 130.692 142.966  0.00  0.00    +0.000 OA
ATOM     25  O   UNL     1     103.732 131.514 142.050  0.00  0.00    +0.000 OA
ENDBRANCH  21  22
ENDBRANCH  16  21
ENDBRANCH   5  13
BRANCH   9  26
ATOM     26  O   UNL     1     105.764 127.268 145.690  0.00  0.00    +0.000 OA
BRANCH  26  34
ATOM     27  O   UNL     1     105.688 125.905 145.269  0.00  0.00    +0.000 OA
ATOM     28  O   UNL     1     104.109 125.423 147.112  0.00  0.00    +0.000 OA
ATOM     29  O   UNL     1     104.712 126.947 146.919  0.00  0.00    +0.000 OA
ATOM     30  O   UNL     1     104.560 124.221 146.077  0.00  0.00    +0.000 OA
ATOM     31  C   UNL     1     104.636 125.584 146.498  0.00  0.00    +0.000 C 
ATOM     32  C   UNL     1     104.936 126.346 146.402  0.00  0.00    +0.000 C 
ATOM     33  C   UNL     1     104.861 124.983 145.980  0.00  0.00    +0.000 C 
ATOM     34  C   UNL     1     105.463 126.507 145.787  0.00  0.00    +0.000 C 
ATOM     35  C   UNL     1     105.387 125.143 145.366  0.00  0.00    +0.000 C 
BRANCH  35  38
ATOM     36  O   UNL     1     105.135 124.356 144.200  0.00  0.00    +0.000 OA
ATOM     37  O   UNL     1     106.314 124.128 144.976  0.00  0.00    +0.000 OA
ATOM     38  C   UNL     1     105.613 124.542 144.848  0.00  0.00    +0.000 C 
ENDBRANCH  35  38
ENDBRANCH  26  34
ENDBRANCH   9  26
TORSDOF 7
ENDMDL
MODEL 10
REMARK VINA RESULT:      -9.2      7.751     10.163
REMARK  Name = 131834256
REMARK  7 active torsions:
REMARK  status: ('A' for Active; 'I' for Inactive)
REMARK    1  A    between atoms: S_1  and  O_12
REMARK    2  A    between atoms: O_3  and  C_19
REMARK    3  A    between atoms: O_3  and  C_27
REMARK    4  A    between atoms: O_12  and  C_34
REMARK    5  A    between atoms: C_20  and  C_29
REMARK    6  A    between atoms: C_22  and  C_26
REMARK    7  A    between atoms: C_35  and  C_37
REMARK                            x       y       z     vdW  Elec       q    Type
REMARK                         _______ _______ _______ _____ _____    ______ ____
ROOT
ATOM      1  O   UNL     1     112.691 128.003 137.504  0.00  0.00    +0.000 OA
ATOM      2  O   UNL     1     113.926 127.646 135.740  0.00  0.00    +0.000 OA
ATOM      3  O   UNL     1     113.762 130.519 136.572  0.00  0.00    +0.000 OA
ATOM      4  C   UNL     1     113.538 128.038 136.354  0.00  0.00    +0.000 C 
ATOM      5  C   UNL     1     113.080 127.611 136.891  0.00  0.00    +0.000 C 
ATOM      6  C   UNL     1     113.609 128.856 136.430  0.00  0.00    +0.000 C 
ATOM      7  C   UNL     1     113.221 129.248 137.044  0.00  0.00    +0.000 A 
ATOM      8  C   UNL     1     112.762 128.821 137.581  0.00  0.00    +0.000 A 
ATOM      9  C   UNL     1     112.422 130.070 138.309  0.00  0.00    +0.000 A 
ATOM     10  C   UNL     1     112.353 129.217 138.224  0.00  0.00    +0.000 A 
ATOM     11  C   UNL     1     113.301 130.100 137.114  0.00  0.00    +0.000 A 
ATOM     12  C   UNL     1     112.900 130.514 137.750  0.00  0.00    +0.000 A 
ENDROOT
BRANCH   5  13
ATOM     13  C   UNL     1     113.009 126.793 136.814  0.00  0.00    +0.000 A 
ATOM     14  C   UNL     1     112.323 126.466 136.494  0.00  0.00    +0.000 A 
ATOM     15  C   UNL     1     113.626 126.301 137.057  0.00  0.00    +0.000 A 
ATOM     16  C   UNL     1     112.252 125.648 136.417  0.00  0.00    +0.000 A 
ATOM     17  C   UNL     1     112.868 125.156 136.660  0.00  0.00    +0.000 A 
ATOM     18  C   UNL     1     113.555 125.483 136.980  0.00  0.00    +0.000 A 
BRANCH  17  19
ATOM     19  C   UNL     1     112.798 124.338 136.583  0.00  0.00    +0.000 C 
ATOM     20  C   UNL     1     113.392 123.843 136.871  0.00  0.00    +0.000 C 
ENDBRANCH  17  19
BRANCH  16  21
ATOM     21  O   UNL     1     111.565 125.321 136.097  0.00  0.00    +0.000 OA
BRANCH  21  22
ATOM     22  S   UNL     1     110.917 125.804 135.930  0.00  0.00    +0.000 S 
ATOM     23  O   UNL     1     110.269 126.287 135.763  0.00  0.00    +0.000 OA
ATOM     24  O   UNL     1     110.643 125.703 136.701  0.00  0.00    +0.000 OA
ATOM     25  O   UNL     1     111.191 125.905 135.158  0.00  0.00    +0.000 OA
ENDBRANCH  21  22
ENDBRANCH  16  21
ENDBRANCH   5  13
BRANCH   9  26
ATOM     26  O   UNL     1     112.033 130.459 138.924  0.00  0.00    +0.000 OA
BRANCH  26  34
ATOM     27  O   UNL     1     113.108 130.457 139.866  0.00  0.00    +0.000 OA
ATOM     28  O   UNL     1     111.505 129.985 141.692  0.00  0.00    +0.000 OA
ATOM     29  O   UNL     1     110.965 130.145 140.141  0.00  0.00    +0.000 OA
ATOM     30  O   UNL     1     113.113 130.141 142.025  0.00  0.00    +0.000 OA
ATOM     31  C   UNL     1     112.040 130.143 141.083  0.00  0.00    +0.000 C 
ATOM     32  C   UNL     1     111.769 130.222 140.308  0.00  0.00    +0.000 C 
ATOM     33  C   UNL     1     112.843 130.220 141.250  0.00  0.00    +0.000 C 
ATOM     34  C   UNL     1     112.303 130.379 139.699  0.00  0.00    +0.000 C 
ATOM     35  C   UNL     1     113.377 130.377 140.641  0.00  0.00    +0.000 C 
BRANCH  35  38
ATOM     36  O   UNL     1     114.669 129.788 140.805  0.00  0.00    +0.000 OA
ATOM     37  O   UNL     1     114.499 131.198 140.974  0.00  0.00    +0.000 OA
ATOM     38  C   UNL     1     114.181 130.455 140.807  0.00  0.00    +0.000 C 
ENDBRANCH  35  38
ENDBRANCH  26  34
ENDBRANCH   9  26
TORSDOF 7
ENDMDL
