MODEL 1
REMARK VINA RESULT:      -9.5      0.000      0.000
REMARK  Name = 44257802
REMARK  5 active torsions:
REMARK  status: ('A' for Active; 'I' for Inactive)
REMARK    1  A    between atoms: O_2  and  C_16
REMARK    2  A    between atoms: O_2  and  C_18
REMARK    3  A    between atoms: O_6  and  C_17
REMARK    4  A    between atoms: C_15  and  C_17
REMARK    5  A    between atoms: C_26  and  C_28
REMARK                            x       y       z     vdW  Elec       q    Type
REMARK                         _______ _______ _______ _____ _____    ______ ____
ROOT
ATOM      1  O   UNL     1     112.274 126.500 136.205  0.00  0.00    +0.000 OA
ATOM      2  O   UNL     1     109.766 125.713 135.006  0.00  0.00    +0.000 OA
ATOM      3  O   UNL     1     110.688 124.729 135.518  0.00  0.00    +0.000 OA
ATOM      4  C   UNL     1     110.642 127.750 135.327  0.00  0.00    +0.000 A 
ATOM      5  C   UNL     1     111.382 127.532 135.706  0.00  0.00    +0.000 A 
ATOM      6  C   UNL     1     110.091 127.135 135.089  0.00  0.00    +0.000 A 
ATOM      7  C   UNL     1     111.562 126.703 135.841  0.00  0.00    +0.000 A 
ATOM      8  C   UNL     1     111.034 126.113 135.612  0.00  0.00    +0.000 A 
ATOM      9  C   UNL     1     110.288 126.311 135.232  0.00  0.00    +0.000 A 
ATOM     10  C   UNL     1     111.217 125.320 135.747  0.00  0.00    +0.000 A 
ATOM     11  C   UNL     1     112.458 125.708 136.340  0.00  0.00    +0.000 A 
ATOM     12  C   UNL     1     111.929 125.117 136.111  0.00  0.00    +0.000 A 
ENDROOT
BRANCH  11  14
ATOM     13  O   UNL     1     115.306 124.897 137.796  0.00  0.00    +0.000 OA
ATOM     14  C   UNL     1     113.170 125.505 136.704  0.00  0.00    +0.000 A 
ATOM     15  C   UNL     1     113.800 125.226 136.250  0.00  0.00    +0.000 A 
ATOM     16  C   UNL     1     113.251 125.582 137.522  0.00  0.00    +0.000 A 
ATOM     17  C   UNL     1     114.512 125.023 136.615  0.00  0.00    +0.000 A 
ATOM     18  C   UNL     1     113.963 125.379 137.886  0.00  0.00    +0.000 A 
ATOM     19  C   UNL     1     114.594 125.100 137.432  0.00  0.00    +0.000 A 
ENDBRANCH  11  14
BRANCH   4  20
ATOM     20  O   UNL     1     110.462 128.544 135.194  0.00  0.00    +0.000 OA
BRANCH  20  29
ATOM     21  O   UNL     1     110.096 128.895 136.530  0.00  0.00    +0.000 OA
ATOM     22  O   UNL     1     108.229 130.266 135.659  0.00  0.00    +0.000 OA
ATOM     23  O   UNL     1     108.486 130.161 137.285  0.00  0.00    +0.000 OA
ATOM     24  O   UNL     1     109.217 129.458 134.613  0.00  0.00    +0.000 OA
ATOM     25  C   UNL     1     108.851 129.809 135.949  0.00  0.00    +0.000 C 
ATOM     26  C   UNL     1     108.980 129.756 136.763  0.00  0.00    +0.000 C 
ATOM     27  C   UNL     1     109.345 129.405 135.427  0.00  0.00    +0.000 C 
ATOM     28  C   UNL     1     109.603 129.299 137.053  0.00  0.00    +0.000 C 
ATOM     29  C   UNL     1     109.968 128.948 135.717  0.00  0.00    +0.000 C 
BRANCH  28  31
ATOM     30  O   UNL     1     109.277 128.730 138.322  0.00  0.00    +0.000 OA
ATOM     31  C   UNL     1     109.731 129.247 137.866  0.00  0.00    +0.000 C 
BRANCH  31  32
ATOM     32  O   UNL     1     110.313 129.710 138.223  0.00  0.00    +0.000 OA
ATOM     33  C   UNL     1     110.570 129.533 138.986  0.00  0.00    +0.000 C 
ENDBRANCH  31  32
ENDBRANCH  28  31
ENDBRANCH  20  29
ENDBRANCH   4  20
TORSDOF 5
ENDMDL
MODEL 2
REMARK VINA RESULT:      -9.3      1.223      1.996
REMARK  Name = 44257802
REMARK  5 active torsions:
REMARK  status: ('A' for Active; 'I' for Inactive)
REMARK    1  A    between atoms: O_2  and  C_16
REMARK    2  A    between atoms: O_2  and  C_18
REMARK    3  A    between atoms: O_6  and  C_17
REMARK    4  A    between atoms: C_15  and  C_17
REMARK    5  A    between atoms: C_26  and  C_28
REMARK                            x       y       z     vdW  Elec       q    Type
REMARK                         _______ _______ _______ _____ _____    ______ ____
ROOT
ATOM      1  O   UNL     1     112.751 127.061 136.237  0.00  0.00    +0.000 OA
ATOM      2  O   UNL     1     113.088 129.763 135.273  0.00  0.00    +0.000 OA
ATOM      3  O   UNL     1     114.210 129.003 135.766  0.00  0.00    +0.000 OA
ATOM      4  C   UNL     1     111.246 128.495 135.419  0.00  0.00    +0.000 A 
ATOM      5  C   UNL     1     111.587 127.781 135.752  0.00  0.00    +0.000 A 
ATOM      6  C   UNL     1     111.753 129.170 135.255  0.00  0.00    +0.000 A 
ATOM      7  C   UNL     1     112.430 127.750 135.917  0.00  0.00    +0.000 A 
ATOM      8  C   UNL     1     112.916 128.397 135.760  0.00  0.00    +0.000 A 
ATOM      9  C   UNL     1     112.593 129.121 135.427  0.00  0.00    +0.000 A 
ATOM     10  C   UNL     1     113.723 128.355 135.923  0.00  0.00    +0.000 A 
ATOM     11  C   UNL     1     113.559 127.018 136.400  0.00  0.00    +0.000 A 
ATOM     12  C   UNL     1     114.045 127.666 136.243  0.00  0.00    +0.000 A 
ENDROOT
BRANCH  11  14
ATOM     13  O   UNL     1     114.845 124.262 137.680  0.00  0.00    +0.000 OA
ATOM     14  C   UNL     1     113.880 126.329 136.720  0.00  0.00    +0.000 A 
ATOM     15  C   UNL     1     113.802 126.173 137.527  0.00  0.00    +0.000 A 
ATOM     16  C   UNL     1     114.281 125.797 136.233  0.00  0.00    +0.000 A 
ATOM     17  C   UNL     1     114.123 125.484 137.846  0.00  0.00    +0.000 A 
ATOM     18  C   UNL     1     114.602 125.107 136.553  0.00  0.00    +0.000 A 
ATOM     19  C   UNL     1     114.524 124.951 137.360  0.00  0.00    +0.000 A 
ENDBRANCH  11  14
BRANCH   4  20
ATOM     20  O   UNL     1     110.438 128.534 135.257  0.00  0.00    +0.000 OA
BRANCH  20  29
ATOM     21  O   UNL     1     110.052 128.911 136.580  0.00  0.00    +0.000 OA
ATOM     22  O   UNL     1     108.193 130.257 135.654  0.00  0.00    +0.000 OA
ATOM     23  O   UNL     1     108.426 130.186 137.286  0.00  0.00    +0.000 OA
ATOM     24  O   UNL     1     109.198 129.431 134.640  0.00  0.00    +0.000 OA
ATOM     25  C   UNL     1     108.812 129.808 135.963  0.00  0.00    +0.000 C 
ATOM     26  C   UNL     1     108.929 129.773 136.779  0.00  0.00    +0.000 C 
ATOM     27  C   UNL     1     109.315 129.395 135.456  0.00  0.00    +0.000 C 
ATOM     28  C   UNL     1     109.549 129.324 137.088  0.00  0.00    +0.000 C 
ATOM     29  C   UNL     1     109.935 128.947 135.765  0.00  0.00    +0.000 C 
BRANCH  28  31
ATOM     30  O   UNL     1     109.246 128.741 138.356  0.00  0.00    +0.000 OA
ATOM     31  C   UNL     1     109.666 129.288 137.903  0.00  0.00    +0.000 C 
BRANCH  31  32
ATOM     32  O   UNL     1     110.202 129.800 138.267  0.00  0.00    +0.000 OA
ATOM     33  C   UNL     1     110.519 129.610 139.004  0.00  0.00    +0.000 C 
ENDBRANCH  31  32
ENDBRANCH  28  31
ENDBRANCH  20  29
ENDBRANCH   4  20
TORSDOF 5
ENDMDL
MODEL 3
REMARK VINA RESULT:      -9.2      7.070     10.235
REMARK  Name = 44257802
REMARK  5 active torsions:
REMARK  status: ('A' for Active; 'I' for Inactive)
REMARK    1  A    between atoms: O_2  and  C_16
REMARK    2  A    between atoms: O_2  and  C_18
REMARK    3  A    between atoms: O_6  and  C_17
REMARK    4  A    between atoms: C_15  and  C_17
REMARK    5  A    between atoms: C_26  and  C_28
REMARK                            x       y       z     vdW  Elec       q    Type
REMARK                         _______ _______ _______ _____ _____    ______ ____
ROOT
ATOM      1  O   UNL     1     103.154 130.261 141.967  0.00  0.00    +0.000 OA
ATOM      2  O   UNL     1     103.673 127.999 140.246  0.00  0.00    +0.000 OA
ATOM      3  O   UNL     1     102.751 129.038 139.854  0.00  0.00    +0.000 OA
ATOM      4  C   UNL     1     104.502 128.504 142.266  0.00  0.00    +0.000 A 
ATOM      5  C   UNL     1     104.091 129.244 142.411  0.00  0.00    +0.000 A 
ATOM      6  C   UNL     1     104.362 128.079 141.531  0.00  0.00    +0.000 A 
ATOM      7  C   UNL     1     103.546 129.550 141.821  0.00  0.00    +0.000 A 
ATOM      8  C   UNL     1     103.412 129.142 141.117  0.00  0.00    +0.000 A 
ATOM      9  C   UNL     1     103.813 128.400 140.953  0.00  0.00    +0.000 A 
ATOM     10  C   UNL     1     102.886 129.446 140.559  0.00  0.00    +0.000 A 
ATOM     11  C   UNL     1     102.628 130.565 141.408  0.00  0.00    +0.000 A 
ATOM     12  C   UNL     1     102.494 130.157 140.704  0.00  0.00    +0.000 A 
ENDROOT
BRANCH  11  14
ATOM     13  O   UNL     1     101.061 133.410 141.991  0.00  0.00    +0.000 OA
ATOM     14  C   UNL     1     102.237 131.277 141.554  0.00  0.00    +0.000 A 
ATOM     15  C   UNL     1     102.589 131.992 141.343  0.00  0.00    +0.000 A 
ATOM     16  C   UNL     1     101.492 131.272 141.911  0.00  0.00    +0.000 A 
ATOM     17  C   UNL     1     102.197 132.703 141.489  0.00  0.00    +0.000 A 
ATOM     18  C   UNL     1     101.101 131.983 142.056  0.00  0.00    +0.000 A 
ATOM     19  C   UNL     1     101.453 132.699 141.845  0.00  0.00    +0.000 A 
ENDBRANCH  11  14
BRANCH   4  20
ATOM     20  O   UNL     1     105.027 128.203 142.826  0.00  0.00    +0.000 OA
BRANCH  20  29
ATOM     21  O   UNL     1     106.195 128.805 142.263  0.00  0.00    +0.000 OA
ATOM     22  O   UNL     1     107.542 126.853 142.971  0.00  0.00    +0.000 OA
ATOM     23  O   UNL     1     108.260 128.106 142.172  0.00  0.00    +0.000 OA
ATOM     24  O   UNL     1     105.925 126.902 143.298  0.00  0.00    +0.000 OA
ATOM     25  C   UNL     1     107.093 127.504 142.735  0.00  0.00    +0.000 C 
ATOM     26  C   UNL     1     107.452 128.131 142.336  0.00  0.00    +0.000 C 
ATOM     27  C   UNL     1     106.285 127.529 142.898  0.00  0.00    +0.000 C 
ATOM     28  C   UNL     1     107.003 128.781 142.100  0.00  0.00    +0.000 C 
ATOM     29  C   UNL     1     105.836 128.179 142.662  0.00  0.00    +0.000 C 
BRANCH  28  31
ATOM     30  O   UNL     1     107.515 129.347 140.892  0.00  0.00    +0.000 OA
ATOM     31  C   UNL     1     107.362 129.407 141.701  0.00  0.00    +0.000 C 
BRANCH  31  32
ATOM     32  O   UNL     1     107.569 130.094 142.109  0.00  0.00    +0.000 OA
ATOM     33  C   UNL     1     107.719 130.791 141.696  0.00  0.00    +0.000 C 
ENDBRANCH  31  32
ENDBRANCH  28  31
ENDBRANCH  20  29
ENDBRANCH   4  20
TORSDOF 5
ENDMDL
MODEL 4
REMARK VINA RESULT:      -9.0      8.168     10.345
REMARK  Name = 44257802
REMARK  5 active torsions:
REMARK  status: ('A' for Active; 'I' for Inactive)
REMARK    1  A    between atoms: O_2  and  C_16
REMARK    2  A    between atoms: O_2  and  C_18
REMARK    3  A    between atoms: O_6  and  C_17
REMARK    4  A    between atoms: C_15  and  C_17
REMARK    5  A    between atoms: C_26  and  C_28
REMARK                            x       y       z     vdW  Elec       q    Type
REMARK                         _______ _______ _______ _____ _____    ______ ____
ROOT
ATOM      1  O   UNL     1     106.574 125.754 146.309  0.00  0.00    +0.000 OA
ATOM      2  O   UNL     1     105.986 128.410 145.338  0.00  0.00    +0.000 OA
ATOM      3  O   UNL     1     106.524 128.203 146.661  0.00  0.00    +0.000 OA
ATOM      4  C   UNL     1     105.747 126.417 144.342  0.00  0.00    +0.000 A 
ATOM      5  C   UNL     1     106.034 125.906 144.970  0.00  0.00    +0.000 A 
ATOM      6  C   UNL     1     105.729 127.268 144.465  0.00  0.00    +0.000 A 
ATOM      7  C   UNL     1     106.299 126.250 145.710  0.00  0.00    +0.000 A 
ATOM      8  C   UNL     1     106.283 127.066 145.828  0.00  0.00    +0.000 A 
ATOM      9  C   UNL     1     105.999 127.595 145.212  0.00  0.00    +0.000 A 
ATOM     10  C   UNL     1     106.541 127.386 146.543  0.00  0.00    +0.000 A 
ATOM     11  C   UNL     1     106.832 126.072 147.025  0.00  0.00    +0.000 A 
ATOM     12  C   UNL     1     106.815 126.889 147.142  0.00  0.00    +0.000 A 
ENDROOT
BRANCH  11  14
ATOM     13  O   UNL     1     107.930 124.085 149.420  0.00  0.00    +0.000 OA
ATOM     14  C   UNL     1     107.107 125.575 147.624  0.00  0.00    +0.000 A 
ATOM     15  C   UNL     1     107.895 125.331 147.628  0.00  0.00    +0.000 A 
ATOM     16  C   UNL     1     106.592 125.323 148.218  0.00  0.00    +0.000 A 
ATOM     17  C   UNL     1     108.168 124.835 148.227  0.00  0.00    +0.000 A 
ATOM     18  C   UNL     1     106.867 124.826 148.817  0.00  0.00    +0.000 A 
ATOM     19  C   UNL     1     107.655 124.582 148.821  0.00  0.00    +0.000 A 
ENDBRANCH  11  14
BRANCH   4  20
ATOM     20  O   UNL     1     105.489 126.095 143.628  0.00  0.00    +0.000 OA
BRANCH  20  29
ATOM     21  O   UNL     1     106.616 126.470 142.832  0.00  0.00    +0.000 OA
ATOM     22  O   UNL     1     106.511 124.294 141.658  0.00  0.00    +0.000 OA
ATOM     23  O   UNL     1     107.672 125.394 141.254  0.00  0.00    +0.000 OA
ATOM     24  O   UNL     1     105.420 124.644 142.845  0.00  0.00    +0.000 OA
ATOM     25  C   UNL     1     106.546 125.019 142.050  0.00  0.00    +0.000 C 
ATOM     26  C   UNL     1     107.127 125.570 141.847  0.00  0.00    +0.000 C 
ATOM     27  C   UNL     1     106.001 125.195 142.643  0.00  0.00    +0.000 C 
ATOM     28  C   UNL     1     107.162 126.295 142.239  0.00  0.00    +0.000 C 
ATOM     29  C   UNL     1     106.035 125.920 143.034  0.00  0.00    +0.000 C 
BRANCH  28  31
ATOM     30  O   UNL     1     108.508 126.763 142.332  0.00  0.00    +0.000 OA
ATOM     31  C   UNL     1     107.742 126.845 142.037  0.00  0.00    +0.000 C 
BRANCH  31  32
ATOM     32  O   UNL     1     107.557 127.477 141.540  0.00  0.00    +0.000 OA
ATOM     33  C   UNL     1     108.032 128.151 141.534  0.00  0.00    +0.000 C 
ENDBRANCH  31  32
ENDBRANCH  28  31
ENDBRANCH  20  29
ENDBRANCH   4  20
TORSDOF 5
ENDMDL
MODEL 5
REMARK VINA RESULT:      -9.0      3.564      4.791
REMARK  Name = 44257802
REMARK  5 active torsions:
REMARK  status: ('A' for Active; 'I' for Inactive)
REMARK    1  A    between atoms: O_2  and  C_16
REMARK    2  A    between atoms: O_2  and  C_18
REMARK    3  A    between atoms: O_6  and  C_17
REMARK    4  A    between atoms: C_15  and  C_17
REMARK    5  A    between atoms: C_26  and  C_28
REMARK                            x       y       z     vdW  Elec       q    Type
REMARK                         _______ _______ _______ _____ _____    ______ ____
ROOT
ATOM      1  O   UNL     1     113.410 126.362 138.901  0.00  0.00    +0.000 OA
ATOM      2  O   UNL     1     110.690 126.419 139.874  0.00  0.00    +0.000 OA
ATOM      3  O   UNL     1     111.016 125.806 138.609  0.00  0.00    +0.000 OA
ATOM      4  C   UNL     1     112.573 127.217 140.789  0.00  0.00    +0.000 A 
ATOM      5  C   UNL     1     113.137 126.992 140.181  0.00  0.00    +0.000 A 
ATOM      6  C   UNL     1     111.741 127.024 140.687  0.00  0.00    +0.000 A 
ATOM      7  C   UNL     1     112.863 126.576 139.481  0.00  0.00    +0.000 A 
ATOM      8  C   UNL     1     112.066 126.391 139.384  0.00  0.00    +0.000 A 
ATOM      9  C   UNL     1     111.486 126.608 139.980  0.00  0.00    +0.000 A 
ATOM     10  C   UNL     1     111.814 125.992 138.707  0.00  0.00    +0.000 A 
ATOM     11  C   UNL     1     113.159 125.963 138.224  0.00  0.00    +0.000 A 
ATOM     12  C   UNL     1     112.361 125.778 138.127  0.00  0.00    +0.000 A 
ENDROOT
BRANCH  11  14
ATOM     13  O   UNL     1     115.345 125.106 135.906  0.00  0.00    +0.000 OA
ATOM     14  C   UNL     1     113.706 125.749 137.645  0.00  0.00    +0.000 A 
ATOM     15  C   UNL     1     113.797 126.216 136.971  0.00  0.00    +0.000 A 
ATOM     16  C   UNL     1     114.161 125.067 137.739  0.00  0.00    +0.000 A 
ATOM     17  C   UNL     1     114.343 126.001 136.392  0.00  0.00    +0.000 A 
ATOM     18  C   UNL     1     114.708 124.852 137.160  0.00  0.00    +0.000 A 
ATOM     19  C   UNL     1     114.799 125.320 136.486  0.00  0.00    +0.000 A 
ENDBRANCH  11  14
BRANCH   4  20
ATOM     20  O   UNL     1     112.827 127.617 141.464  0.00  0.00    +0.000 OA
BRANCH  20  29
ATOM     21  O   UNL     1     113.099 128.899 140.896  0.00  0.00    +0.000 OA
ATOM     22  O   UNL     1     111.982 129.988 142.818  0.00  0.00    +0.000 OA
ATOM     23  O   UNL     1     112.627 130.908 141.609  0.00  0.00    +0.000 OA
ATOM     24  O   UNL     1     112.082 128.342 142.746  0.00  0.00    +0.000 OA
ATOM     25  C   UNL     1     112.355 129.625 142.177  0.00  0.00    +0.000 C 
ATOM     26  C   UNL     1     112.677 130.085 141.572  0.00  0.00    +0.000 C 
ATOM     27  C   UNL     1     112.405 128.802 142.141  0.00  0.00    +0.000 C 
ATOM     28  C   UNL     1     113.050 129.722 140.932  0.00  0.00    +0.000 C 
ATOM     29  C   UNL     1     112.777 128.440 141.500  0.00  0.00    +0.000 C 
BRANCH  28  31
ATOM     30  O   UNL     1     112.878 130.521 139.760  0.00  0.00    +0.000 OA
ATOM     31  C   UNL     1     113.372 130.182 140.328  0.00  0.00    +0.000 C 
BRANCH  31  32
ATOM     32  O   UNL     1     114.187 130.303 140.291  0.00  0.00    +0.000 OA
ATOM     33  C   UNL     1     114.532 130.581 139.595  0.00  0.00    +0.000 C 
ENDBRANCH  31  32
ENDBRANCH  28  31
ENDBRANCH  20  29
ENDBRANCH   4  20
TORSDOF 5
ENDMDL
MODEL 6
REMARK VINA RESULT:      -8.9      1.536      2.650
REMARK  Name = 44257802
REMARK  5 active torsions:
REMARK  status: ('A' for Active; 'I' for Inactive)
REMARK    1  A    between atoms: O_2  and  C_16
REMARK    2  A    between atoms: O_2  and  C_18
REMARK    3  A    between atoms: O_6  and  C_17
REMARK    4  A    between atoms: C_15  and  C_17
REMARK    5  A    between atoms: C_26  and  C_28
REMARK                            x       y       z     vdW  Elec       q    Type
REMARK                         _______ _______ _______ _____ _____    ______ ____
ROOT
ATOM      1  O   UNL     1     112.649 127.357 137.183  0.00  0.00    +0.000 OA
ATOM      2  O   UNL     1     113.080 129.882 135.847  0.00  0.00    +0.000 OA
ATOM      3  O   UNL     1     113.963 128.762 135.627  0.00  0.00    +0.000 OA
ATOM      4  C   UNL     1     111.489 129.264 137.299  0.00  0.00    +0.000 A 
ATOM      5  C   UNL     1     111.730 128.452 137.442  0.00  0.00    +0.000 A 
ATOM      6  C   UNL     1     111.946 129.752 136.758  0.00  0.00    +0.000 A 
ATOM      7  C   UNL     1     112.423 128.138 137.042  0.00  0.00    +0.000 A 
ATOM      8  C   UNL     1     112.861 128.606 136.524  0.00  0.00    +0.000 A 
ATOM      9  C   UNL     1     112.636 129.421 136.368  0.00  0.00    +0.000 A 
ATOM     10  C   UNL     1     113.524 128.294 136.146  0.00  0.00    +0.000 A 
ATOM     11  C   UNL     1     113.313 127.044 136.806  0.00  0.00    +0.000 A 
ATOM     12  C   UNL     1     113.751 127.513 136.287  0.00  0.00    +0.000 A 
ENDROOT
BRANCH  11  14
ATOM     13  O   UNL     1     114.217 123.921 137.370  0.00  0.00    +0.000 OA
ATOM     14  C   UNL     1     113.539 126.264 136.947  0.00  0.00    +0.000 A 
ATOM     15  C   UNL     1     114.079 126.092 137.548  0.00  0.00    +0.000 A 
ATOM     16  C   UNL     1     113.225 125.654 136.488  0.00  0.00    +0.000 A 
ATOM     17  C   UNL     1     114.304 125.312 137.688  0.00  0.00    +0.000 A 
ATOM     18  C   UNL     1     113.451 124.873 136.629  0.00  0.00    +0.000 A 
ATOM     19  C   UNL     1     113.991 124.702 137.229  0.00  0.00    +0.000 A 
ENDBRANCH  11  14
BRANCH   4  20
ATOM     20  O   UNL     1     110.825 129.573 137.678  0.00  0.00    +0.000 OA
BRANCH  20  29
ATOM     21  O   UNL     1     109.873 128.990 136.786  0.00  0.00    +0.000 OA
ATOM     22  O   UNL     1     108.395 130.953 137.080  0.00  0.00    +0.000 OA
ATOM     23  O   UNL     1     107.936 129.715 136.090  0.00  0.00    +0.000 OA
ATOM     24  O   UNL     1     109.839 130.882 137.874  0.00  0.00    +0.000 OA
ATOM     25  C   UNL     1     108.888 130.299 136.982  0.00  0.00    +0.000 C 
ATOM     26  C   UNL     1     108.658 129.679 136.487  0.00  0.00    +0.000 C 
ATOM     27  C   UNL     1     109.610 130.262 137.379  0.00  0.00    +0.000 C 
ATOM     28  C   UNL     1     109.151 129.025 136.388  0.00  0.00    +0.000 C 
ATOM     29  C   UNL     1     110.103 129.608 137.281  0.00  0.00    +0.000 C 
BRANCH  28  31
ATOM     30  O   UNL     1     109.061 128.455 135.082  0.00  0.00    +0.000 OA
ATOM     31  C   UNL     1     108.922 128.407 135.894  0.00  0.00    +0.000 C 
BRANCH  31  32
ATOM     32  O   UNL     1     108.553 127.740 136.209  0.00  0.00    +0.000 OA
ATOM     33  C   UNL     1     108.595 127.018 135.813  0.00  0.00    +0.000 C 
ENDBRANCH  31  32
ENDBRANCH  28  31
ENDBRANCH  20  29
ENDBRANCH   4  20
TORSDOF 5
ENDMDL
MODEL 7
REMARK VINA RESULT:      -8.9      7.777     10.403
REMARK  Name = 44257802
REMARK  5 active torsions:
REMARK  status: ('A' for Active; 'I' for Inactive)
REMARK    1  A    between atoms: O_2  and  C_16
REMARK    2  A    between atoms: O_2  and  C_18
REMARK    3  A    between atoms: O_6  and  C_17
REMARK    4  A    between atoms: C_15  and  C_17
REMARK    5  A    between atoms: C_26  and  C_28
REMARK                            x       y       z     vdW  Elec       q    Type
REMARK                         _______ _______ _______ _____ _____    ______ ____
ROOT
ATOM      1  O   UNL     1     104.958 127.757 142.543  0.00  0.00    +0.000 OA
ATOM      2  O   UNL     1     107.835 127.537 142.684  0.00  0.00    +0.000 OA
ATOM      3  O   UNL     1     107.200 128.775 142.300  0.00  0.00    +0.000 OA
ATOM      4  C   UNL     1     106.243 126.014 143.093  0.00  0.00    +0.000 A 
ATOM      5  C   UNL     1     105.544 126.488 142.935  0.00  0.00    +0.000 A 
ATOM      6  C   UNL     1     107.022 126.367 143.009  0.00  0.00    +0.000 A 
ATOM      7  C   UNL     1     105.633 127.308 142.694  0.00  0.00    +0.000 A 
ATOM      8  C   UNL     1     106.380 127.646 142.613  0.00  0.00    +0.000 A 
ATOM      9  C   UNL     1     107.091 127.189 142.767  0.00  0.00    +0.000 A 
ATOM     10  C   UNL     1     106.452 128.435 142.382  0.00  0.00    +0.000 A 
ATOM     11  C   UNL     1     105.029 128.546 142.312  0.00  0.00    +0.000 A 
ATOM     12  C   UNL     1     105.777 128.885 142.231  0.00  0.00    +0.000 A 
ENDROOT
BRANCH  11  14
ATOM     13  O   UNL     1     102.329 130.344 141.708  0.00  0.00    +0.000 OA
ATOM     14  C   UNL     1     104.354 128.996 142.161  0.00  0.00    +0.000 A 
ATOM     15  C   UNL     1     104.057 129.501 142.741  0.00  0.00    +0.000 A 
ATOM     16  C   UNL     1     103.976 128.939 141.429  0.00  0.00    +0.000 A 
ATOM     17  C   UNL     1     103.383 129.951 142.590  0.00  0.00    +0.000 A 
ATOM     18  C   UNL     1     103.301 129.389 141.279  0.00  0.00    +0.000 A 
ATOM     19  C   UNL     1     103.004 129.894 141.859  0.00  0.00    +0.000 A 
ENDBRANCH  11  14
BRANCH   4  20
ATOM     20  O   UNL     1     106.167 125.226 143.324  0.00  0.00    +0.000 OA
BRANCH  20  29
ATOM     21  O   UNL     1     106.397 125.412 144.723  0.00  0.00    +0.000 OA
ATOM     22  O   UNL     1     104.636 123.749 145.233  0.00  0.00    +0.000 OA
ATOM     23  O   UNL     1     105.453 124.489 146.461  0.00  0.00    +0.000 OA
ATOM     24  O   UNL     1     104.993 124.117 143.665  0.00  0.00    +0.000 OA
ATOM     25  C   UNL     1     105.223 124.303 145.063  0.00  0.00    +0.000 C 
ATOM     26  C   UNL     1     105.632 124.673 145.677  0.00  0.00    +0.000 C 
ATOM     27  C   UNL     1     105.402 124.487 144.279  0.00  0.00    +0.000 C 
ATOM     28  C   UNL     1     106.219 125.228 145.507  0.00  0.00    +0.000 C 
ATOM     29  C   UNL     1     105.989 125.042 144.109  0.00  0.00    +0.000 C 
BRANCH  28  31
ATOM     30  O   UNL     1     107.294 125.239 146.447  0.00  0.00    +0.000 OA
ATOM     31  C   UNL     1     106.626 125.598 146.121  0.00  0.00    +0.000 C 
BRANCH  31  32
ATOM     32  O   UNL     1     106.368 126.326 146.409  0.00  0.00    +0.000 OA
ATOM     33  C   UNL     1     106.882 126.807 146.839  0.00  0.00    +0.000 C 
ENDBRANCH  31  32
ENDBRANCH  28  31
ENDBRANCH  20  29
ENDBRANCH   4  20
TORSDOF 5
ENDMDL
MODEL 8
REMARK VINA RESULT:      -8.9      1.911      3.220
REMARK  Name = 44257802
REMARK  5 active torsions:
REMARK  status: ('A' for Active; 'I' for Inactive)
REMARK    1  A    between atoms: O_2  and  C_16
REMARK    2  A    between atoms: O_2  and  C_18
REMARK    3  A    between atoms: O_6  and  C_17
REMARK    4  A    between atoms: C_15  and  C_17
REMARK    5  A    between atoms: C_26  and  C_28
REMARK                            x       y       z     vdW  Elec       q    Type
REMARK                         _______ _______ _______ _____ _____    ______ ____
ROOT
ATOM      1  O   UNL     1     110.333 127.937 135.989  0.00  0.00    +0.000 OA
ATOM      2  O   UNL     1     107.880 129.454 135.809  0.00  0.00    +0.000 OA
ATOM      3  O   UNL     1     107.868 128.012 135.774  0.00  0.00    +0.000 OA
ATOM      4  C   UNL     1     110.002 130.147 136.011  0.00  0.00    +0.000 A 
ATOM      5  C   UNL     1     110.402 129.387 136.029  0.00  0.00    +0.000 A 
ATOM      6  C   UNL     1     109.145 130.173 135.937  0.00  0.00    +0.000 A 
ATOM      7  C   UNL     1     109.942 128.664 135.972  0.00  0.00    +0.000 A 
ATOM      8  C   UNL     1     109.121 128.689 135.900  0.00  0.00    +0.000 A 
ATOM      9  C   UNL     1     108.702 129.439 135.881  0.00  0.00    +0.000 A 
ATOM     10  C   UNL     1     108.690 127.987 135.846  0.00  0.00    +0.000 A 
ATOM     11  C   UNL     1     109.902 127.235 135.935  0.00  0.00    +0.000 A 
ATOM     12  C   UNL     1     109.081 127.261 135.864  0.00  0.00    +0.000 A 
ENDROOT
BRANCH  11  14
ATOM     13  O   UNL     1     111.464 124.329 136.004  0.00  0.00    +0.000 OA
ATOM     14  C   UNL     1     110.293 126.509 135.953  0.00  0.00    +0.000 A 
ATOM     15  C   UNL     1     110.529 126.184 136.674  0.00  0.00    +0.000 A 
ATOM     16  C   UNL     1     110.447 126.107 135.248  0.00  0.00    +0.000 A 
ATOM     17  C   UNL     1     110.919 125.458 136.690  0.00  0.00    +0.000 A 
ATOM     18  C   UNL     1     110.837 125.380 135.266  0.00  0.00    +0.000 A 
ATOM     19  C   UNL     1     111.073 125.056 135.987  0.00  0.00    +0.000 A 
ENDBRANCH  11  14
BRANCH   4  20
ATOM     20  O   UNL     1     110.435 130.847 136.066  0.00  0.00    +0.000 OA
BRANCH  20  29
ATOM     21  O   UNL     1     110.621 130.875 137.482  0.00  0.00    +0.000 OA
ATOM     22  O   UNL     1     110.172 133.309 137.493  0.00  0.00    +0.000 OA
ATOM     23  O   UNL     1     110.508 132.526 138.906  0.00  0.00    +0.000 OA
ATOM     24  O   UNL     1     110.136 132.470 136.072  0.00  0.00    +0.000 OA
ATOM     25  C   UNL     1     110.322 132.498 137.489  0.00  0.00    +0.000 C 
ATOM     26  C   UNL     1     110.490 132.106 138.196  0.00  0.00    +0.000 C 
ATOM     27  C   UNL     1     110.304 132.078 136.780  0.00  0.00    +0.000 C 
ATOM     28  C   UNL     1     110.639 131.294 138.193  0.00  0.00    +0.000 C 
ATOM     29  C   UNL     1     110.453 131.266 136.776  0.00  0.00    +0.000 C 
BRANCH  28  31
ATOM     30  O   UNL     1     111.572 130.918 139.207  0.00  0.00    +0.000 OA
ATOM     31  C   UNL     1     110.807 130.903 138.899  0.00  0.00    +0.000 C 
BRANCH  31  32
ATOM     32  O   UNL     1     110.210 130.497 139.298  0.00  0.00    +0.000 OA
ATOM     33  C   UNL     1     110.403 129.917 139.851  0.00  0.00    +0.000 C 
ENDBRANCH  31  32
ENDBRANCH  28  31
ENDBRANCH  20  29
ENDBRANCH   4  20
TORSDOF 5
ENDMDL
MODEL 9
REMARK VINA RESULT:      -8.9      2.465      4.101
REMARK  Name = 44257802
REMARK  5 active torsions:
REMARK  status: ('A' for Active; 'I' for Inactive)
REMARK    1  A    between atoms: O_2  and  C_16
REMARK    2  A    between atoms: O_2  and  C_18
REMARK    3  A    between atoms: O_6  and  C_17
REMARK    4  A    between atoms: C_15  and  C_17
REMARK    5  A    between atoms: C_26  and  C_28
REMARK                            x       y       z     vdW  Elec       q    Type
REMARK                         _______ _______ _______ _____ _____    ______ ____
ROOT
ATOM      1  O   UNL     1     112.706 128.344 135.500  0.00  0.00    +0.000 OA
ATOM      2  O   UNL     1     109.922 128.433 134.733  0.00  0.00    +0.000 OA
ATOM      3  O   UNL     1     110.765 129.598 134.613  0.00  0.00    +0.000 OA
ATOM      4  C   UNL     1     111.145 126.746 135.558  0.00  0.00    +0.000 A 
ATOM      5  C   UNL     1     111.902 127.143 135.642  0.00  0.00    +0.000 A 
ATOM      6  C   UNL     1     110.470 127.182 135.250  0.00  0.00    +0.000 A 
ATOM      7  C   UNL     1     111.976 127.969 135.417  0.00  0.00    +0.000 A 
ATOM      8  C   UNL     1     111.330 128.386 135.121  0.00  0.00    +0.000 A 
ATOM      9  C   UNL     1     110.563 128.007 135.030  0.00  0.00    +0.000 A 
ATOM     10  C   UNL     1     111.412 129.179 134.909  0.00  0.00    +0.000 A 
ATOM     11  C   UNL     1     112.790 129.137 135.287  0.00  0.00    +0.000 A 
ATOM     12  C   UNL     1     112.143 129.554 134.992  0.00  0.00    +0.000 A 
ENDROOT
BRANCH  11  14
ATOM     13  O   UNL     1     115.710 130.638 135.619  0.00  0.00    +0.000 OA
ATOM     14  C   UNL     1     113.520 129.512 135.370  0.00  0.00    +0.000 A 
ATOM     15  C   UNL     1     113.691 129.933 136.059  0.00  0.00    +0.000 A 
ATOM     16  C   UNL     1     114.078 129.466 134.764  0.00  0.00    +0.000 A 
ATOM     17  C   UNL     1     114.421 130.308 136.141  0.00  0.00    +0.000 A 
ATOM     18  C   UNL     1     114.808 129.841 134.847  0.00  0.00    +0.000 A 
ATOM     19  C   UNL     1     114.980 130.262 135.536  0.00  0.00    +0.000 A 
ENDBRANCH  11  14
BRANCH   4  20
ATOM     20  O   UNL     1     111.065 125.953 135.771  0.00  0.00    +0.000 OA
BRANCH  20  29
ATOM     21  O   UNL     1     110.554 126.227 137.077  0.00  0.00    +0.000 OA
ATOM     22  O   UNL     1     111.620 124.162 137.928  0.00  0.00    +0.000 OA
ATOM     23  O   UNL     1     110.754 125.124 138.950  0.00  0.00    +0.000 OA
ATOM     24  O   UNL     1     111.776 124.577 136.338  0.00  0.00    +0.000 OA
ATOM     25  C   UNL     1     111.265 124.850 137.644  0.00  0.00    +0.000 C 
ATOM     26  C   UNL     1     110.831 125.332 138.156  0.00  0.00    +0.000 C 
ATOM     27  C   UNL     1     111.342 125.058 136.850  0.00  0.00    +0.000 C 
ATOM     28  C   UNL     1     110.476 126.020 137.872  0.00  0.00    +0.000 C 
ATOM     29  C   UNL     1     110.987 125.747 136.566  0.00  0.00    +0.000 C 
BRANCH  28  31
ATOM     30  O   UNL     1     109.246 126.340 138.526  0.00  0.00    +0.000 OA
ATOM     31  C   UNL     1     110.043 126.501 138.384  0.00  0.00    +0.000 C 
BRANCH  31  32
ATOM     32  O   UNL     1     110.405 127.144 138.753  0.00  0.00    +0.000 OA
ATOM     33  C   UNL     1     109.946 127.733 139.101  0.00  0.00    +0.000 C 
ENDBRANCH  31  32
ENDBRANCH  28  31
ENDBRANCH  20  29
ENDBRANCH   4  20
TORSDOF 5
ENDMDL
MODEL 10
REMARK VINA RESULT:      -8.9      2.742      5.377
REMARK  Name = 44257802
REMARK  5 active torsions:
REMARK  status: ('A' for Active; 'I' for Inactive)
REMARK    1  A    between atoms: O_2  and  C_16
REMARK    2  A    between atoms: O_2  and  C_18
REMARK    3  A    between atoms: O_6  and  C_17
REMARK    4  A    between atoms: C_15  and  C_17
REMARK    5  A    between atoms: C_26  and  C_28
REMARK                            x       y       z     vdW  Elec       q    Type
REMARK                         _______ _______ _______ _____ _____    ______ ____
ROOT
ATOM      1  O   UNL     1     113.760 128.918 136.778  0.00  0.00    +0.000 OA
ATOM      2  O   UNL     1     111.155 128.687 138.004  0.00  0.00    +0.000 OA
ATOM      3  O   UNL     1     111.513 129.851 137.230  0.00  0.00    +0.000 OA
ATOM      4  C   UNL     1     112.895 127.276 138.023  0.00  0.00    +0.000 A 
ATOM      5  C   UNL     1     113.452 127.725 137.547  0.00  0.00    +0.000 A 
ATOM      6  C   UNL     1     112.114 127.600 138.180  0.00  0.00    +0.000 A 
ATOM      7  C   UNL     1     113.221 128.491 137.234  0.00  0.00    +0.000 A 
ATOM      8  C   UNL     1     112.473 128.802 137.385  0.00  0.00    +0.000 A 
ATOM      9  C   UNL     1     111.902 128.368 137.859  0.00  0.00    +0.000 A 
ATOM     10  C   UNL     1     112.263 129.539 137.079  0.00  0.00    +0.000 A 
ATOM     11  C   UNL     1     113.551 129.655 136.472  0.00  0.00    +0.000 A 
ATOM     12  C   UNL     1     112.802 129.965 136.623  0.00  0.00    +0.000 A 
ENDROOT
BRANCH  11  14
ATOM     13  O   UNL     1     115.708 131.360 134.647  0.00  0.00    +0.000 OA
ATOM     14  C   UNL     1     114.090 130.081 136.015  0.00  0.00    +0.000 A 
ATOM     15  C   UNL     1     114.296 129.813 135.262  0.00  0.00    +0.000 A 
ATOM     16  C   UNL     1     114.424 130.775 136.312  0.00  0.00    +0.000 A 
ATOM     17  C   UNL     1     114.835 130.240 134.807  0.00  0.00    +0.000 A 
ATOM     18  C   UNL     1     114.963 131.201 135.856  0.00  0.00    +0.000 A 
ATOM     19  C   UNL     1     115.168 130.934 135.103  0.00  0.00    +0.000 A 
ENDBRANCH  11  14
BRANCH   4  20
ATOM     20  O   UNL     1     113.108 126.539 138.327  0.00  0.00    +0.000 OA
BRANCH  20  29
ATOM     21  O   UNL     1     112.443 125.699 137.381  0.00  0.00    +0.000 OA
ATOM     22  O   UNL     1     114.436 124.235 137.281  0.00  0.00    +0.000 OA
ATOM     23  O   UNL     1     113.107 123.883 136.368  0.00  0.00    +0.000 OA
ATOM     24  O   UNL     1     114.436 125.563 138.260  0.00  0.00    +0.000 OA
ATOM     25  C   UNL     1     113.772 124.723 137.314  0.00  0.00    +0.000 C 
ATOM     26  C   UNL     1     113.107 124.547 136.858  0.00  0.00    +0.000 C 
ATOM     27  C   UNL     1     113.771 125.387 137.804  0.00  0.00    +0.000 C 
ATOM     28  C   UNL     1     112.442 125.035 136.891  0.00  0.00    +0.000 C 
ATOM     29  C   UNL     1     113.107 125.875 137.837  0.00  0.00    +0.000 C 
BRANCH  28  31
ATOM     30  O   UNL     1     111.258 124.267 136.677  0.00  0.00    +0.000 OA
ATOM     31  C   UNL     1     111.779 124.860 136.435  0.00  0.00    +0.000 C 
BRANCH  31  32
ATOM     32  O   UNL     1     111.635 125.276 135.737  0.00  0.00    +0.000 OA
ATOM     33  C   UNL     1     110.878 125.285 135.411  0.00  0.00    +0.000 C 
ENDBRANCH  31  32
ENDBRANCH  28  31
ENDBRANCH  20  29
ENDBRANCH   4  20
TORSDOF 5
ENDMDL
