MODEL 1
REMARK VINA RESULT:     -10.3      0.000      0.000
REMARK  Name = 
REMARK  6 active torsions:
REMARK  status: ('A' for Active; 'I' for Inactive)
REMARK    1  A    between atoms: C_7  and  C_9
REMARK    2  A    between atoms: C_10  and  O_11
REMARK    3  A    between atoms: O_11  and  C_12
REMARK    4  A    between atoms: C_18  and  O_19
REMARK    5  A    between atoms: O_19  and  C_20
REMARK    6  A    between atoms: C_20  and  C_21
REMARK                            x       y       z     vdW  Elec       q    Type
REMARK                         _______ _______ _______ _____ _____    ______ ____
ROOT
ATOM      1  C   UNL     1     112.589 127.486 136.618  0.00  0.00    +0.000 A 
ATOM      2  C   UNL     1     112.057 128.054 137.245  0.00  0.00    +0.000 A 
ATOM      3  O   UNL     1     113.374 127.873 136.134  0.00  0.00    +0.000 OA
ATOM      4  C   UNL     1     113.627 128.831 136.278  0.00  0.00    +0.000 A 
ATOM      5  C   UNL     1     113.095 129.400 136.905  0.00  0.00    +0.000 A 
ATOM      6  C   UNL     1     112.310 129.011 137.388  0.00  0.00    +0.000 A 
ATOM      7  O   UNL     1     111.778 129.580 138.016  0.00  0.00    +0.000 OA
ATOM      8  C   UNL     1     114.412 129.219 135.794  0.00  0.00    +0.000 A 
ATOM      9  C   UNL     1     114.664 130.175 135.938  0.00  0.00    +0.000 A 
ATOM     10  C   UNL     1     114.132 130.744 136.565  0.00  0.00    +0.000 A 
ATOM     11  C   UNL     1     113.348 130.357 137.048  0.00  0.00    +0.000 A 
ATOM     12  O   UNL     1     112.816 130.926 137.676  0.00  0.00    +0.000 OA
ATOM     13  O   UNL     1     115.449 130.563 135.454  0.00  0.00    +0.000 OA
ENDROOT
BRANCH   1  20
ATOM     14  C   UNL     1     111.832 124.616 136.187  0.00  0.00    +0.000 A 
ATOM     15  O   UNL     1     111.579 123.658 136.043  0.00  0.00    +0.000 OA
ATOM     16  C   UNL     1     111.252 125.346 135.826  0.00  0.00    +0.000 A 
ATOM     17  O   UNL     1     110.418 125.118 135.321  0.00  0.00    +0.000 OA
ATOM     18  C   UNL     1     112.665 124.843 136.692  0.00  0.00    +0.000 A 
ATOM     19  C   UNL     1     112.917 125.799 136.835  0.00  0.00    +0.000 A 
ATOM     20  C   UNL     1     112.337 126.529 136.474  0.00  0.00    +0.000 A 
ATOM     21  C   UNL     1     111.505 126.303 135.970  0.00  0.00    +0.000 A 
ATOM     22  O   UNL     1     113.245 124.113 137.053  0.00  0.00    +0.000 OA
ENDBRANCH   1  20
BRANCH   2  23
ATOM     23  O   UNL     1     111.273 127.666 137.728  0.00  0.00    +0.000 OA
BRANCH  23  24
ATOM     24  C   UNL     1     111.328 127.491 138.711  0.00  0.00    +0.000 C 
ATOM     25  C   UNL     1     110.492 127.377 139.247  0.00  0.00    +0.000 C 
ATOM     26  O   UNL     1     109.600 127.439 138.799  0.00  0.00    +0.000 OA
ATOM     27  O   UNL     1     112.220 127.429 139.159  0.00  0.00    +0.000 OA
ATOM     28  C   UNL     1     112.275 127.254 140.142  0.00  0.00    +0.000 C 
ATOM     29  C   UNL     1     111.439 127.140 140.677  0.00  0.00    +0.000 C 
ATOM     30  C   UNL     1     110.547 127.202 140.230  0.00  0.00    +0.000 C 
ATOM     31  O   UNL     1     111.494 126.965 141.660  0.00  0.00    +0.000 OA
ATOM     32  C   UNL     1     113.168 127.192 140.589  0.00  0.00    +0.000 C 
BRANCH  30  33
ATOM     33  O   UNL     1     109.711 127.088 140.765  0.00  0.00    +0.000 OA
BRANCH  33  34
ATOM     34  C   UNL     1     109.297 126.183 140.860  0.00  0.00    +0.000 C 
ATOM     35  O   UNL     1     109.815 125.367 140.602  0.00  0.00    +0.000 OA
BRANCH  34  36
ATOM     36  C   UNL     1     108.364 126.093 141.212  0.00  0.00    +0.000 A 
ATOM     37  C   UNL     1     107.774 125.356 140.884  0.00  0.00    +0.000 A 
ATOM     38  C   UNL     1     108.023 126.743 141.891  0.00  0.00    +0.000 A 
ATOM     39  C   UNL     1     107.091 126.654 142.244  0.00  0.00    +0.000 A 
ATOM     40  O   UNL     1     106.749 127.303 142.923  0.00  0.00    +0.000 OA
ATOM     41  C   UNL     1     106.501 125.916 141.916  0.00  0.00    +0.000 A 
ATOM     42  O   UNL     1     105.569 125.827 142.268  0.00  0.00    +0.000 OA
ATOM     43  C   UNL     1     106.842 125.267 141.237  0.00  0.00    +0.000 A 
ATOM     44  O   UNL     1     106.252 124.529 140.909  0.00  0.00    +0.000 OA
ENDBRANCH  34  36
ENDBRANCH  33  34
ENDBRANCH  30  33
ENDBRANCH  23  24
ENDBRANCH   2  23
TORSDOF 6
ENDMDL
MODEL 2
REMARK VINA RESULT:     -10.2      0.045      1.280
REMARK  Name = 
REMARK  6 active torsions:
REMARK  status: ('A' for Active; 'I' for Inactive)
REMARK    1  A    between atoms: C_7  and  C_9
REMARK    2  A    between atoms: C_10  and  O_11
REMARK    3  A    between atoms: O_11  and  C_12
REMARK    4  A    between atoms: C_18  and  O_19
REMARK    5  A    between atoms: O_19  and  C_20
REMARK    6  A    between atoms: C_20  and  C_21
REMARK                            x       y       z     vdW  Elec       q    Type
REMARK                         _______ _______ _______ _____ _____    ______ ____
ROOT
ATOM      1  C   UNL     1     112.581 127.522 136.624  0.00  0.00    +0.000 A 
ATOM      2  C   UNL     1     112.041 128.090 137.245  0.00  0.00    +0.000 A 
ATOM      3  O   UNL     1     113.364 127.914 136.141  0.00  0.00    +0.000 OA
ATOM      4  C   UNL     1     113.607 128.875 136.278  0.00  0.00    +0.000 A 
ATOM      5  C   UNL     1     113.067 129.443 136.899  0.00  0.00    +0.000 A 
ATOM      6  C   UNL     1     112.284 129.050 137.382  0.00  0.00    +0.000 A 
ATOM      7  O   UNL     1     111.743 129.618 138.003  0.00  0.00    +0.000 OA
ATOM      8  C   UNL     1     114.390 129.267 135.795  0.00  0.00    +0.000 A 
ATOM      9  C   UNL     1     114.632 130.226 135.932  0.00  0.00    +0.000 A 
ATOM     10  C   UNL     1     114.091 130.795 136.553  0.00  0.00    +0.000 A 
ATOM     11  C   UNL     1     113.309 130.403 137.036  0.00  0.00    +0.000 A 
ATOM     12  O   UNL     1     112.769 130.972 137.657  0.00  0.00    +0.000 OA
ATOM     13  O   UNL     1     115.414 130.618 135.449  0.00  0.00    +0.000 OA
ENDROOT
BRANCH   1  20
ATOM     14  C   UNL     1     111.853 124.641 136.212  0.00  0.00    +0.000 A 
ATOM     15  O   UNL     1     111.611 123.680 136.075  0.00  0.00    +0.000 OA
ATOM     16  C   UNL     1     112.684 124.880 136.715  0.00  0.00    +0.000 A 
ATOM     17  O   UNL     1     113.272 124.158 137.081  0.00  0.00    +0.000 OA
ATOM     18  C   UNL     1     111.265 125.363 135.846  0.00  0.00    +0.000 A 
ATOM     19  C   UNL     1     111.508 126.322 135.984  0.00  0.00    +0.000 A 
ATOM     20  C   UNL     1     112.339 126.561 136.487  0.00  0.00    +0.000 A 
ATOM     21  C   UNL     1     112.926 125.841 136.852  0.00  0.00    +0.000 A 
ATOM     22  O   UNL     1     110.435 125.124 135.344  0.00  0.00    +0.000 OA
ENDBRANCH   1  20
BRANCH   2  23
ATOM     23  O   UNL     1     111.258 127.698 137.728  0.00  0.00    +0.000 OA
BRANCH  23  24
ATOM     24  C   UNL     1     111.312 127.530 138.713  0.00  0.00    +0.000 C 
ATOM     25  C   UNL     1     110.475 127.407 139.245  0.00  0.00    +0.000 C 
ATOM     26  O   UNL     1     109.584 127.453 138.793  0.00  0.00    +0.000 OA
ATOM     27  O   UNL     1     112.202 127.484 139.164  0.00  0.00    +0.000 OA
ATOM     28  C   UNL     1     112.256 127.316 140.149  0.00  0.00    +0.000 C 
ATOM     29  C   UNL     1     111.418 127.193 140.681  0.00  0.00    +0.000 C 
ATOM     30  C   UNL     1     110.528 127.239 140.229  0.00  0.00    +0.000 C 
ATOM     31  O   UNL     1     111.472 127.025 141.666  0.00  0.00    +0.000 OA
ATOM     32  C   UNL     1     113.147 127.270 140.601  0.00  0.00    +0.000 C 
BRANCH  30  33
ATOM     33  O   UNL     1     109.691 127.117 140.762  0.00  0.00    +0.000 OA
BRANCH  33  34
ATOM     34  C   UNL     1     109.293 126.205 140.865  0.00  0.00    +0.000 C 
ATOM     35  O   UNL     1     109.825 125.396 140.617  0.00  0.00    +0.000 OA
BRANCH  34  36
ATOM     36  C   UNL     1     108.362 126.103 141.218  0.00  0.00    +0.000 A 
ATOM     37  C   UNL     1     108.014 126.741 141.905  0.00  0.00    +0.000 A 
ATOM     38  C   UNL     1     107.779 125.363 140.883  0.00  0.00    +0.000 A 
ATOM     39  C   UNL     1     106.849 125.261 141.235  0.00  0.00    +0.000 A 
ATOM     40  O   UNL     1     106.266 124.521 140.900  0.00  0.00    +0.000 OA
ATOM     41  C   UNL     1     106.501 125.899 141.923  0.00  0.00    +0.000 A 
ATOM     42  O   UNL     1     105.571 125.797 142.275  0.00  0.00    +0.000 OA
ATOM     43  C   UNL     1     107.084 126.639 142.258  0.00  0.00    +0.000 A 
ATOM     44  O   UNL     1     106.737 127.277 142.945  0.00  0.00    +0.000 OA
ENDBRANCH  34  36
ENDBRANCH  33  34
ENDBRANCH  30  33
ENDBRANCH  23  24
ENDBRANCH   2  23
TORSDOF 6
ENDMDL
MODEL 3
REMARK VINA RESULT:     -10.0      5.552      8.730
REMARK  Name = 
REMARK  6 active torsions:
REMARK  status: ('A' for Active; 'I' for Inactive)
REMARK    1  A    between atoms: C_7  and  C_9
REMARK    2  A    between atoms: C_10  and  O_11
REMARK    3  A    between atoms: O_11  and  C_12
REMARK    4  A    between atoms: C_18  and  O_19
REMARK    5  A    between atoms: O_19  and  C_20
REMARK    6  A    between atoms: C_20  and  C_21
REMARK                            x       y       z     vdW  Elec       q    Type
REMARK                         _______ _______ _______ _____ _____    ______ ____
ROOT
ATOM      1  C   UNL     1     106.552 127.159 143.618  0.00  0.00    +0.000 A 
ATOM      2  C   UNL     1     105.960 126.392 143.368  0.00  0.00    +0.000 A 
ATOM      3  O   UNL     1     106.919 127.225 144.546  0.00  0.00    +0.000 OA
ATOM      4  C   UNL     1     106.694 126.525 145.225  0.00  0.00    +0.000 A 
ATOM      5  C   UNL     1     106.102 125.758 144.975  0.00  0.00    +0.000 A 
ATOM      6  C   UNL     1     105.735 125.692 144.046  0.00  0.00    +0.000 A 
ATOM      7  O   UNL     1     105.144 124.926 143.796  0.00  0.00    +0.000 OA
ATOM      8  C   UNL     1     107.061 126.591 146.153  0.00  0.00    +0.000 A 
ATOM      9  C   UNL     1     106.836 125.892 146.830  0.00  0.00    +0.000 A 
ATOM     10  C   UNL     1     106.244 125.125 146.580  0.00  0.00    +0.000 A 
ATOM     11  C   UNL     1     105.877 125.058 145.653  0.00  0.00    +0.000 A 
ATOM     12  O   UNL     1     105.286 124.292 145.403  0.00  0.00    +0.000 OA
ATOM     13  O   UNL     1     107.203 125.958 147.758  0.00  0.00    +0.000 OA
ENDROOT
BRANCH   1  20
ATOM     14  C   UNL     1     107.227 129.258 141.585  0.00  0.00    +0.000 A 
ATOM     15  O   UNL     1     107.451 129.958 140.907  0.00  0.00    +0.000 OA
ATOM     16  C   UNL     1     106.305 129.213 141.971  0.00  0.00    +0.000 A 
ATOM     17  O   UNL     1     105.608 129.870 141.679  0.00  0.00    +0.000 OA
ATOM     18  C   UNL     1     107.923 128.602 141.877  0.00  0.00    +0.000 A 
ATOM     19  C   UNL     1     107.698 127.903 142.554  0.00  0.00    +0.000 A 
ATOM     20  C   UNL     1     106.777 127.859 142.940  0.00  0.00    +0.000 A 
ATOM     21  C   UNL     1     106.080 128.513 142.649  0.00  0.00    +0.000 A 
ATOM     22  O   UNL     1     108.845 128.647 141.491  0.00  0.00    +0.000 OA
ENDBRANCH   1  20
BRANCH   2  23
ATOM     23  O   UNL     1     105.593 126.326 142.440  0.00  0.00    +0.000 OA
BRANCH  23  24
ATOM     24  C   UNL     1     105.928 125.616 141.820  0.00  0.00    +0.000 C 
ATOM     25  C   UNL     1     105.417 125.397 140.989  0.00  0.00    +0.000 C 
ATOM     26  O   UNL     1     104.572 125.888 140.778  0.00  0.00    +0.000 OA
ATOM     27  O   UNL     1     106.773 125.125 142.031  0.00  0.00    +0.000 OA
ATOM     28  C   UNL     1     107.107 124.416 141.411  0.00  0.00    +0.000 C 
ATOM     29  C   UNL     1     106.596 124.197 140.580  0.00  0.00    +0.000 C 
ATOM     30  C   UNL     1     105.752 124.688 140.369  0.00  0.00    +0.000 C 
ATOM     31  O   UNL     1     106.930 123.487 139.959  0.00  0.00    +0.000 OA
ATOM     32  C   UNL     1     107.952 123.925 141.622  0.00  0.00    +0.000 C 
BRANCH  30  33
ATOM     33  O   UNL     1     105.241 124.469 139.538  0.00  0.00    +0.000 OA
BRANCH  33  34
ATOM     34  C   UNL     1     104.544 123.751 139.553  0.00  0.00    +0.000 C 
ATOM     35  O   UNL     1     104.432 123.181 140.367  0.00  0.00    +0.000 OA
BRANCH  34  36
ATOM     36  C   UNL     1     103.960 123.604 138.754  0.00  0.00    +0.000 A 
ATOM     37  C   UNL     1     104.371 123.430 137.859  0.00  0.00    +0.000 A 
ATOM     38  C   UNL     1     102.965 123.632 138.851  0.00  0.00    +0.000 A 
ATOM     39  C   UNL     1     102.381 123.485 138.053  0.00  0.00    +0.000 A 
ATOM     40  O   UNL     1     101.386 123.513 138.149  0.00  0.00    +0.000 OA
ATOM     41  C   UNL     1     102.792 123.311 137.158  0.00  0.00    +0.000 A 
ATOM     42  O   UNL     1     102.207 123.164 136.359  0.00  0.00    +0.000 OA
ATOM     43  C   UNL     1     103.787 123.284 137.061  0.00  0.00    +0.000 A 
ATOM     44  O   UNL     1     104.197 123.109 136.166  0.00  0.00    +0.000 OA
ENDBRANCH  34  36
ENDBRANCH  33  34
ENDBRANCH  30  33
ENDBRANCH  23  24
ENDBRANCH   2  23
TORSDOF 6
ENDMDL
MODEL 4
REMARK VINA RESULT:     -10.0      1.169      1.551
REMARK  Name = 
REMARK  6 active torsions:
REMARK  status: ('A' for Active; 'I' for Inactive)
REMARK    1  A    between atoms: C_7  and  C_9
REMARK    2  A    between atoms: C_10  and  O_11
REMARK    3  A    between atoms: O_11  and  C_12
REMARK    4  A    between atoms: C_18  and  O_19
REMARK    5  A    between atoms: O_19  and  C_20
REMARK    6  A    between atoms: C_20  and  C_21
REMARK                            x       y       z     vdW  Elec       q    Type
REMARK                         _______ _______ _______ _____ _____    ______ ____
ROOT
ATOM      1  C   UNL     1     112.972 127.545 136.486  0.00  0.00    +0.000 A 
ATOM      2  C   UNL     1     112.487 128.165 137.103  0.00  0.00    +0.000 A 
ATOM      3  O   UNL     1     113.707 127.893 135.905  0.00  0.00    +0.000 OA
ATOM      4  C   UNL     1     113.959 128.861 135.940  0.00  0.00    +0.000 A 
ATOM      5  C   UNL     1     113.474 129.481 136.557  0.00  0.00    +0.000 A 
ATOM      6  C   UNL     1     112.738 129.133 137.139  0.00  0.00    +0.000 A 
ATOM      7  O   UNL     1     112.253 129.753 137.756  0.00  0.00    +0.000 OA
ATOM      8  C   UNL     1     114.695 129.208 135.359  0.00  0.00    +0.000 A 
ATOM      9  C   UNL     1     114.945 130.174 135.395  0.00  0.00    +0.000 A 
ATOM     10  C   UNL     1     114.461 130.794 136.012  0.00  0.00    +0.000 A 
ATOM     11  C   UNL     1     113.725 130.448 136.593  0.00  0.00    +0.000 A 
ATOM     12  O   UNL     1     113.241 131.068 137.210  0.00  0.00    +0.000 OA
ATOM     13  O   UNL     1     115.681 130.522 134.813  0.00  0.00    +0.000 OA
ENDROOT
BRANCH   1  20
ATOM     14  C   UNL     1     112.219 124.644 136.380  0.00  0.00    +0.000 A 
ATOM     15  O   UNL     1     111.968 123.676 136.344  0.00  0.00    +0.000 OA
ATOM     16  C   UNL     1     111.604 125.335 136.000  0.00  0.00    +0.000 A 
ATOM     17  O   UNL     1     110.736 125.057 135.585  0.00  0.00    +0.000 OA
ATOM     18  C   UNL     1     113.086 124.921 136.794  0.00  0.00    +0.000 A 
ATOM     19  C   UNL     1     113.337 125.887 136.830  0.00  0.00    +0.000 A 
ATOM     20  C   UNL     1     112.721 126.578 136.451  0.00  0.00    +0.000 A 
ATOM     21  C   UNL     1     111.855 126.302 136.036  0.00  0.00    +0.000 A 
ATOM     22  O   UNL     1     113.702 124.230 137.174  0.00  0.00    +0.000 OA
ENDBRANCH   1  20
BRANCH   2  23
ATOM     23  O   UNL     1     111.751 127.818 137.684  0.00  0.00    +0.000 OA
BRANCH  23  24
ATOM     24  C   UNL     1     111.884 127.753 138.674  0.00  0.00    +0.000 C 
ATOM     25  C   UNL     1     111.094 127.672 139.280  0.00  0.00    +0.000 C 
ATOM     26  O   UNL     1     110.170 127.656 138.897  0.00  0.00    +0.000 OA
ATOM     27  O   UNL     1     112.808 127.769 139.056  0.00  0.00    +0.000 OA
ATOM     28  C   UNL     1     112.940 127.704 140.045  0.00  0.00    +0.000 C 
ATOM     29  C   UNL     1     112.149 127.623 140.652  0.00  0.00    +0.000 C 
ATOM     30  C   UNL     1     111.226 127.607 140.269  0.00  0.00    +0.000 C 
ATOM     31  O   UNL     1     112.282 127.558 141.641  0.00  0.00    +0.000 OA
ATOM     32  C   UNL     1     113.864 127.720 140.428  0.00  0.00    +0.000 C 
BRANCH  30  33
ATOM     33  O   UNL     1     110.435 127.527 140.875  0.00  0.00    +0.000 OA
BRANCH  33  34
ATOM     34  C   UNL     1     109.955 128.348 141.182  0.00  0.00    +0.000 C 
ATOM     35  O   UNL     1     110.418 129.234 141.164  0.00  0.00    +0.000 OA
BRANCH  34  36
ATOM     36  C   UNL     1     109.011 128.283 141.508  0.00  0.00    +0.000 A 
ATOM     37  C   UNL     1     108.340 128.974 141.240  0.00  0.00    +0.000 A 
ATOM     38  C   UNL     1     108.738 127.526 142.102  0.00  0.00    +0.000 A 
ATOM     39  C   UNL     1     107.795 127.460 142.427  0.00  0.00    +0.000 A 
ATOM     40  O   UNL     1     107.523 126.703 143.021  0.00  0.00    +0.000 OA
ATOM     41  C   UNL     1     107.124 128.151 142.159  0.00  0.00    +0.000 A 
ATOM     42  O   UNL     1     106.181 128.086 142.485  0.00  0.00    +0.000 OA
ATOM     43  C   UNL     1     107.397 128.909 141.566  0.00  0.00    +0.000 A 
ATOM     44  O   UNL     1     106.726 129.600 141.298  0.00  0.00    +0.000 OA
ENDBRANCH  34  36
ENDBRANCH  33  34
ENDBRANCH  30  33
ENDBRANCH  23  24
ENDBRANCH   2  23
TORSDOF 6
ENDMDL
MODEL 5
REMARK VINA RESULT:      -9.9      4.179      6.098
REMARK  Name = 
REMARK  6 active torsions:
REMARK  status: ('A' for Active; 'I' for Inactive)
REMARK    1  A    between atoms: C_7  and  C_9
REMARK    2  A    between atoms: C_10  and  O_11
REMARK    3  A    between atoms: O_11  and  C_12
REMARK    4  A    between atoms: C_18  and  O_19
REMARK    5  A    between atoms: O_19  and  C_20
REMARK    6  A    between atoms: C_20  and  C_21
REMARK                            x       y       z     vdW  Elec       q    Type
REMARK                         _______ _______ _______ _____ _____    ______ ____
ROOT
ATOM      1  C   UNL     1     111.709 128.847 138.544  0.00  0.00    +0.000 A 
ATOM      2  C   UNL     1     112.055 128.548 139.433  0.00  0.00    +0.000 A 
ATOM      3  O   UNL     1     111.995 128.373 137.711  0.00  0.00    +0.000 OA
ATOM      4  C   UNL     1     112.628 127.600 137.767  0.00  0.00    +0.000 A 
ATOM      5  C   UNL     1     112.974 127.301 138.657  0.00  0.00    +0.000 A 
ATOM      6  C   UNL     1     112.687 127.776 139.490  0.00  0.00    +0.000 A 
ATOM      7  O   UNL     1     113.033 127.477 140.379  0.00  0.00    +0.000 OA
ATOM      8  C   UNL     1     112.915 127.126 136.934  0.00  0.00    +0.000 A 
ATOM      9  C   UNL     1     113.547 126.355 136.992  0.00  0.00    +0.000 A 
ATOM     10  C   UNL     1     113.893 126.056 137.881  0.00  0.00    +0.000 A 
ATOM     11  C   UNL     1     113.607 126.529 138.713  0.00  0.00    +0.000 A 
ATOM     12  O   UNL     1     113.953 126.230 139.603  0.00  0.00    +0.000 OA
ATOM     13  O   UNL     1     113.833 125.881 136.159  0.00  0.00    +0.000 OA
ENDROOT
BRANCH   1  20
ATOM     14  C   UNL     1     109.811 131.163 138.374  0.00  0.00    +0.000 A 
ATOM     15  O   UNL     1     109.178 131.937 138.317  0.00  0.00    +0.000 OA
ATOM     16  C   UNL     1     110.767 131.279 138.106  0.00  0.00    +0.000 A 
ATOM     17  O   UNL     1     111.091 132.169 137.781  0.00  0.00    +0.000 OA
ATOM     18  C   UNL     1     109.487 130.275 138.699  0.00  0.00    +0.000 A 
ATOM     19  C   UNL     1     110.120 129.503 138.756  0.00  0.00    +0.000 A 
ATOM     20  C   UNL     1     111.076 129.619 138.487  0.00  0.00    +0.000 A 
ATOM     21  C   UNL     1     111.400 130.507 138.162  0.00  0.00    +0.000 A 
ATOM     22  O   UNL     1     108.531 130.158 138.968  0.00  0.00    +0.000 OA
ENDBRANCH   1  20
BRANCH   2  23
ATOM     23  O   UNL     1     111.768 129.022 140.266  0.00  0.00    +0.000 OA
BRANCH  23  24
ATOM     24  C   UNL     1     112.392 129.658 140.719  0.00  0.00    +0.000 C 
ATOM     25  C   UNL     1     112.143 130.063 141.598  0.00  0.00    +0.000 C 
ATOM     26  O   UNL     1     111.269 129.831 142.024  0.00  0.00    +0.000 OA
ATOM     27  O   UNL     1     113.267 129.890 140.293  0.00  0.00    +0.000 OA
ATOM     28  C   UNL     1     113.891 130.526 140.746  0.00  0.00    +0.000 C 
ATOM     29  C   UNL     1     113.641 130.931 141.625  0.00  0.00    +0.000 C 
ATOM     30  C   UNL     1     112.767 130.699 142.051  0.00  0.00    +0.000 C 
ATOM     31  O   UNL     1     114.265 131.568 142.079  0.00  0.00    +0.000 OA
ATOM     32  C   UNL     1     114.765 130.758 140.319  0.00  0.00    +0.000 C 
BRANCH  30  33
ATOM     33  O   UNL     1     112.517 131.104 142.931  0.00  0.00    +0.000 OA
BRANCH  33  34
ATOM     34  C   UNL     1     111.979 131.946 142.959  0.00  0.00    +0.000 C 
ATOM     35  O   UNL     1     111.540 132.287 142.127  0.00  0.00    +0.000 OA
BRANCH  34  36
ATOM     36  C   UNL     1     111.880 132.448 143.819  0.00  0.00    +0.000 A 
ATOM     37  C   UNL     1     111.739 131.951 144.675  0.00  0.00    +0.000 A 
ATOM     38  C   UNL     1     111.923 133.447 143.822  0.00  0.00    +0.000 A 
ATOM     39  C   UNL     1     111.824 133.949 144.681  0.00  0.00    +0.000 A 
ATOM     40  O   UNL     1     111.867 134.948 144.684  0.00  0.00    +0.000 OA
ATOM     41  C   UNL     1     111.683 133.452 145.537  0.00  0.00    +0.000 A 
ATOM     42  O   UNL     1     111.584 133.954 146.397  0.00  0.00    +0.000 OA
ATOM     43  C   UNL     1     111.640 132.453 145.534  0.00  0.00    +0.000 A 
ATOM     44  O   UNL     1     111.499 131.956 146.390  0.00  0.00    +0.000 OA
ENDBRANCH  34  36
ENDBRANCH  33  34
ENDBRANCH  30  33
ENDBRANCH  23  24
ENDBRANCH   2  23
TORSDOF 6
ENDMDL
MODEL 6
REMARK VINA RESULT:      -9.7      1.552      3.519
REMARK  Name = 
REMARK  6 active torsions:
REMARK  status: ('A' for Active; 'I' for Inactive)
REMARK    1  A    between atoms: C_7  and  C_9
REMARK    2  A    between atoms: C_10  and  O_11
REMARK    3  A    between atoms: O_11  and  C_12
REMARK    4  A    between atoms: C_18  and  O_19
REMARK    5  A    between atoms: O_19  and  C_20
REMARK    6  A    between atoms: C_20  and  C_21
REMARK                            x       y       z     vdW  Elec       q    Type
REMARK                         _______ _______ _______ _____ _____    ______ ____
ROOT
ATOM      1  C   UNL     1     112.176 127.671 137.296  0.00  0.00    +0.000 A 
ATOM      2  C   UNL     1     111.643 126.901 137.646  0.00  0.00    +0.000 A 
ATOM      3  O   UNL     1     113.059 127.508 136.855  0.00  0.00    +0.000 OA
ATOM      4  C   UNL     1     113.408 126.575 136.763  0.00  0.00    +0.000 A 
ATOM      5  C   UNL     1     112.875 125.805 137.113  0.00  0.00    +0.000 A 
ATOM      6  C   UNL     1     111.992 125.968 137.555  0.00  0.00    +0.000 A 
ATOM      7  O   UNL     1     111.458 125.198 137.905  0.00  0.00    +0.000 OA
ATOM      8  C   UNL     1     114.291 126.412 136.322  0.00  0.00    +0.000 A 
ATOM      9  C   UNL     1     114.639 125.480 136.231  0.00  0.00    +0.000 A 
ATOM     10  C   UNL     1     114.106 124.710 136.581  0.00  0.00    +0.000 A 
ATOM     11  C   UNL     1     113.224 124.872 137.022  0.00  0.00    +0.000 A 
ATOM     12  O   UNL     1     112.690 124.102 137.372  0.00  0.00    +0.000 OA
ATOM     13  O   UNL     1     115.522 125.317 135.790  0.00  0.00    +0.000 OA
ENDROOT
BRANCH   1  20
ATOM     14  C   UNL     1     111.129 130.468 137.569  0.00  0.00    +0.000 A 
ATOM     15  O   UNL     1     110.780 131.401 137.661  0.00  0.00    +0.000 OA
ATOM     16  C   UNL     1     111.902 130.166 138.128  0.00  0.00    +0.000 A 
ATOM     17  O   UNL     1     112.325 130.798 138.778  0.00  0.00    +0.000 OA
ATOM     18  C   UNL     1     110.705 129.837 136.919  0.00  0.00    +0.000 A 
ATOM     19  C   UNL     1     111.054 128.905 136.829  0.00  0.00    +0.000 A 
ATOM     20  C   UNL     1     111.827 128.603 137.387  0.00  0.00    +0.000 A 
ATOM     21  C   UNL     1     112.251 129.233 138.037  0.00  0.00    +0.000 A 
ATOM     22  O   UNL     1     109.933 130.138 136.361  0.00  0.00    +0.000 OA
ENDBRANCH   1  20
BRANCH   2  23
ATOM     23  O   UNL     1     110.760 127.063 138.087  0.00  0.00    +0.000 OA
BRANCH  23  24
ATOM     24  C   UNL     1     110.660 126.925 139.072  0.00  0.00    +0.000 C 
ATOM     25  C   UNL     1     109.774 126.666 139.454  0.00  0.00    +0.000 C 
ATOM     26  O   UNL     1     108.986 126.546 138.850  0.00  0.00    +0.000 OA
ATOM     27  O   UNL     1     111.448 127.045 139.676  0.00  0.00    +0.000 OA
ATOM     28  C   UNL     1     111.349 126.906 140.662  0.00  0.00    +0.000 C 
ATOM     29  C   UNL     1     110.461 126.647 141.043  0.00  0.00    +0.000 C 
ATOM     30  C   UNL     1     109.674 126.527 140.439  0.00  0.00    +0.000 C 
ATOM     31  O   UNL     1     110.361 126.509 142.028  0.00  0.00    +0.000 OA
ATOM     32  C   UNL     1     112.136 127.026 141.266  0.00  0.00    +0.000 C 
BRANCH  30  33
ATOM     33  O   UNL     1     108.787 126.269 140.820  0.00  0.00    +0.000 OA
BRANCH  33  34
ATOM     34  C   UNL     1     108.562 125.304 140.953  0.00  0.00    +0.000 C 
ATOM     35  O   UNL     1     109.279 124.609 140.887  0.00  0.00    +0.000 OA
BRANCH  34  36
ATOM     36  C   UNL     1     107.619 125.033 141.152  0.00  0.00    +0.000 A 
ATOM     37  C   UNL     1     107.245 124.194 140.756  0.00  0.00    +0.000 A 
ATOM     38  C   UNL     1     107.051 125.601 141.748  0.00  0.00    +0.000 A 
ATOM     39  C   UNL     1     106.109 125.330 141.948  0.00  0.00    +0.000 A 
ATOM     40  O   UNL     1     105.542 125.898 142.543  0.00  0.00    +0.000 OA
ATOM     41  C   UNL     1     105.735 124.492 141.551  0.00  0.00    +0.000 A 
ATOM     42  O   UNL     1     104.793 124.222 141.750  0.00  0.00    +0.000 OA
ATOM     43  C   UNL     1     106.303 123.924 140.955  0.00  0.00    +0.000 A 
ATOM     44  O   UNL     1     105.929 123.086 140.558  0.00  0.00    +0.000 OA
ENDBRANCH  34  36
ENDBRANCH  33  34
ENDBRANCH  30  33
ENDBRANCH  23  24
ENDBRANCH   2  23
TORSDOF 6
ENDMDL
MODEL 7
REMARK VINA RESULT:      -9.5      1.614      2.480
REMARK  Name = 
REMARK  6 active torsions:
REMARK  status: ('A' for Active; 'I' for Inactive)
REMARK    1  A    between atoms: C_7  and  C_9
REMARK    2  A    between atoms: C_10  and  O_11
REMARK    3  A    between atoms: O_11  and  C_12
REMARK    4  A    between atoms: C_18  and  O_19
REMARK    5  A    between atoms: O_19  and  C_20
REMARK    6  A    between atoms: C_20  and  C_21
REMARK                            x       y       z     vdW  Elec       q    Type
REMARK                         _______ _______ _______ _____ _____    ______ ____
ROOT
ATOM      1  C   UNL     1     112.667 128.186 136.229  0.00  0.00    +0.000 A 
ATOM      2  C   UNL     1     112.593 128.616 137.129  0.00  0.00    +0.000 A 
ATOM      3  O   UNL     1     113.293 128.562 135.546  0.00  0.00    +0.000 OA
ATOM      4  C   UNL     1     113.846 129.368 135.762  0.00  0.00    +0.000 A 
ATOM      5  C   UNL     1     113.771 129.798 136.662  0.00  0.00    +0.000 A 
ATOM      6  C   UNL     1     113.145 129.421 137.346  0.00  0.00    +0.000 A 
ATOM      7  O   UNL     1     113.070 129.851 138.246  0.00  0.00    +0.000 OA
ATOM      8  C   UNL     1     114.472 129.744 135.079  0.00  0.00    +0.000 A 
ATOM      9  C   UNL     1     115.022 130.549 135.296  0.00  0.00    +0.000 A 
ATOM     10  C   UNL     1     114.948 130.978 136.196  0.00  0.00    +0.000 A 
ATOM     11  C   UNL     1     114.323 130.603 136.879  0.00  0.00    +0.000 A 
ATOM     12  O   UNL     1     114.249 131.033 137.779  0.00  0.00    +0.000 OA
ATOM     13  O   UNL     1     115.648 130.925 134.613  0.00  0.00    +0.000 OA
ENDROOT
BRANCH   1  20
ATOM     14  C   UNL     1     111.013 125.770 135.580  0.00  0.00    +0.000 A 
ATOM     15  O   UNL     1     110.461 124.964 135.363  0.00  0.00    +0.000 OA
ATOM     16  C   UNL     1     110.764 126.663 135.205  0.00  0.00    +0.000 A 
ATOM     17  O   UNL     1     109.962 126.750 134.612  0.00  0.00    +0.000 OA
ATOM     18  C   UNL     1     111.815 125.683 136.172  0.00  0.00    +0.000 A 
ATOM     19  C   UNL     1     112.366 126.488 136.388  0.00  0.00    +0.000 A 
ATOM     20  C   UNL     1     112.116 127.381 136.013  0.00  0.00    +0.000 A 
ATOM     21  C   UNL     1     111.315 127.468 135.421  0.00  0.00    +0.000 A 
ATOM     22  O   UNL     1     112.065 124.790 136.547  0.00  0.00    +0.000 OA
ENDBRANCH   1  20
BRANCH   2  23
ATOM     23  O   UNL     1     111.967 128.240 137.813  0.00  0.00    +0.000 OA
BRANCH  23  24
ATOM     24  C   UNL     1     111.122 128.725 138.037  0.00  0.00    +0.000 C 
ATOM     25  C   UNL     1     110.544 128.402 138.785  0.00  0.00    +0.000 C 
ATOM     26  O   UNL     1     110.810 127.592 139.309  0.00  0.00    +0.000 OA
ATOM     27  O   UNL     1     110.856 129.534 137.513  0.00  0.00    +0.000 OA
ATOM     28  C   UNL     1     110.011 130.019 137.738  0.00  0.00    +0.000 C 
ATOM     29  C   UNL     1     109.432 129.695 138.486  0.00  0.00    +0.000 C 
ATOM     30  C   UNL     1     109.698 128.887 139.009  0.00  0.00    +0.000 C 
ATOM     31  O   UNL     1     108.587 130.180 138.711  0.00  0.00    +0.000 OA
ATOM     32  C   UNL     1     109.744 130.828 137.214  0.00  0.00    +0.000 C 
BRANCH  30  33
ATOM     33  O   UNL     1     109.120 128.563 139.758  0.00  0.00    +0.000 OA
BRANCH  33  34
ATOM     34  C   UNL     1     109.264 128.906 140.686  0.00  0.00    +0.000 C 
ATOM     35  O   UNL     1     110.067 129.464 140.893  0.00  0.00    +0.000 OA
BRANCH  34  36
ATOM     36  C   UNL     1     108.604 128.690 141.407  0.00  0.00    +0.000 A 
ATOM     37  C   UNL     1     108.033 129.412 141.795  0.00  0.00    +0.000 A 
ATOM     38  C   UNL     1     108.517 127.750 141.739  0.00  0.00    +0.000 A 
ATOM     39  C   UNL     1     107.858 127.534 142.459  0.00  0.00    +0.000 A 
ATOM     40  O   UNL     1     107.771 126.595 142.792  0.00  0.00    +0.000 OA
ATOM     41  C   UNL     1     107.287 128.256 142.848  0.00  0.00    +0.000 A 
ATOM     42  O   UNL     1     106.628 128.040 143.568  0.00  0.00    +0.000 OA
ATOM     43  C   UNL     1     107.374 129.196 142.516  0.00  0.00    +0.000 A 
ATOM     44  O   UNL     1     106.802 129.918 142.904  0.00  0.00    +0.000 OA
ENDBRANCH  34  36
ENDBRANCH  33  34
ENDBRANCH  30  33
ENDBRANCH  23  24
ENDBRANCH   2  23
TORSDOF 6
ENDMDL
