MODEL 1
REMARK VINA RESULT:     -10.5      0.000      0.000
REMARK  Name = 131752758
REMARK  8 active torsions:
REMARK  status: ('A' for Active; 'I' for Inactive)
REMARK    1  A    between atoms: O_2  and  C_18
REMARK    2  A    between atoms: O_2  and  C_20
REMARK    3  A    between atoms: O_6  and  C_19
REMARK    4  A    between atoms: O_6  and  C_30
REMARK    5  A    between atoms: C_16  and  C_19
REMARK    6  A    between atoms: C_21  and  C_29
REMARK    7  A    between atoms: C_30  and  C_33
REMARK    8  A    between atoms: C_37  and  C_38
REMARK                            x       y       z     vdW  Elec       q    Type
REMARK                         _______ _______ _______ _____ _____    ______ ____
ROOT
ATOM      1  O   UNL     1     110.246 128.021 135.481  0.00  0.00    +0.000 OA
ATOM      2  O   UNL     1     108.340 127.115 136.038  0.00  0.00    +0.000 OA
ATOM      3  O   UNL     1     107.883 128.682 135.800  0.00  0.00    +0.000 OA
ATOM      4  O   UNL     1     109.001 129.809 135.350  0.00  0.00    +0.000 OA
ATOM      5  C   UNL     1     108.900 127.678 135.812  0.00  0.00    +0.000 C 
ATOM      6  C   UNL     1     108.671 128.462 135.694  0.00  0.00    +0.000 C 
ATOM      7  C   UNL     1     109.688 127.457 135.706  0.00  0.00    +0.000 C 
ATOM      8  C   UNL     1     109.230 129.025 135.468  0.00  0.00    +0.000 C 
ATOM      9  C   UNL     1     110.018 128.805 135.362  0.00  0.00    +0.000 C 
ENDROOT
BRANCH   9  10
ATOM     10  O   UNL     1     110.577 129.369 135.137  0.00  0.00    +0.000 OA
BRANCH  10  14
ATOM     11  O   UNL     1     112.522 129.460 137.303  0.00  0.00    +0.000 OA
ATOM     12  O   UNL     1     113.411 128.897 134.612  0.00  0.00    +0.000 OA
ATOM     13  O   UNL     1     114.346 128.950 135.710  0.00  0.00    +0.000 OA
ATOM     14  C   UNL     1     111.355 129.306 135.403  0.00  0.00    +0.000 A 
ATOM     15  C   UNL     1     113.299 129.398 137.571  0.00  0.00    +0.000 C 
ATOM     16  C   UNL     1     112.352 129.351 136.502  0.00  0.00    +0.000 A 
ATOM     17  C   UNL     1     111.539 129.418 136.235  0.00  0.00    +0.000 A 
ATOM     18  C   UNL     1     112.960 129.181 135.971  0.00  0.00    +0.000 A 
ATOM     19  C   UNL     1     113.907 129.228 137.041  0.00  0.00    +0.000 C 
ATOM     20  C   UNL     1     111.989 129.129 134.849  0.00  0.00    +0.000 A 
ATOM     21  C   UNL     1     113.737 129.120 136.241  0.00  0.00    +0.000 C 
ATOM     22  C   UNL     1     112.796 129.067 135.136  0.00  0.00    +0.000 A 
BRANCH  15  25
ATOM     23  O   UNL     1     114.270 131.046 139.695  0.00  0.00    +0.000 OA
ATOM     24  O   UNL     1     113.976 129.831 140.773  0.00  0.00    +0.000 OA
ATOM     25  C   UNL     1     113.469 129.507 138.372  0.00  0.00    +0.000 A 
ATOM     26  C   UNL     1     113.785 130.222 138.633  0.00  0.00    +0.000 A 
ATOM     27  C   UNL     1     113.322 128.899 138.911  0.00  0.00    +0.000 A 
ATOM     28  C   UNL     1     113.954 130.330 139.433  0.00  0.00    +0.000 A 
ATOM     29  C   UNL     1     113.491 129.008 139.711  0.00  0.00    +0.000 A 
ATOM     30  C   UNL     1     113.807 129.723 139.972  0.00  0.00    +0.000 A 
ENDBRANCH  15  25
ENDBRANCH  10  14
ENDBRANCH   9  10
BRANCH   7  31
ATOM     31  C   UNL     1     109.916 126.674 135.825  0.00  0.00    +0.000 C 
BRANCH  31  32
ATOM     32  O   UNL     1     110.666 126.422 135.589  0.00  0.00    +0.000 OA
BRANCH  32  34
ATOM     33  O   UNL     1     110.648 124.995 135.649  0.00  0.00    +0.000 OA
ATOM     34  C   UNL     1     110.975 125.716 135.882  0.00  0.00    +0.000 C 
BRANCH  34  35
ATOM     35  C   UNL     1     111.611 125.730 136.407  0.00  0.00    +0.000 C 
ATOM     36  C   UNL     1     112.349 125.452 136.169  0.00  0.00    +0.000 C 
BRANCH  36  38
ATOM     37  O   UNL     1     114.895 125.506 138.268  0.00  0.00    +0.000 OA
ATOM     38  C   UNL     1     112.986 125.466 136.694  0.00  0.00    +0.000 A 
ATOM     39  C   UNL     1     112.850 125.470 137.507  0.00  0.00    +0.000 A 
ATOM     40  C   UNL     1     113.758 125.475 136.406  0.00  0.00    +0.000 A 
ATOM     41  C   UNL     1     113.485 125.483 138.032  0.00  0.00    +0.000 A 
ATOM     42  C   UNL     1     114.395 125.488 136.930  0.00  0.00    +0.000 A 
ATOM     43  C   UNL     1     114.258 125.493 137.743  0.00  0.00    +0.000 A 
ENDBRANCH  36  38
ENDBRANCH  34  35
ENDBRANCH  32  34
ENDBRANCH  31  32
ENDBRANCH   7  31
TORSDOF 8
ENDMDL
MODEL 2
REMARK VINA RESULT:     -10.0      1.048      4.735
REMARK  Name = 131752758
REMARK  8 active torsions:
REMARK  status: ('A' for Active; 'I' for Inactive)
REMARK    1  A    between atoms: O_2  and  C_18
REMARK    2  A    between atoms: O_2  and  C_20
REMARK    3  A    between atoms: O_6  and  C_19
REMARK    4  A    between atoms: O_6  and  C_30
REMARK    5  A    between atoms: C_16  and  C_19
REMARK    6  A    between atoms: C_21  and  C_29
REMARK    7  A    between atoms: C_30  and  C_33
REMARK    8  A    between atoms: C_37  and  C_38
REMARK                            x       y       z     vdW  Elec       q    Type
REMARK                         _______ _______ _______ _____ _____    ______ ____
ROOT
ATOM      1  O   UNL     1     113.397 129.330 139.256  0.00  0.00    +0.000 OA
ATOM      2  O   UNL     1     114.474 128.773 141.071  0.00  0.00    +0.000 OA
ATOM      3  O   UNL     1     115.063 130.293 140.813  0.00  0.00    +0.000 OA
ATOM      4  O   UNL     1     114.541 131.171 139.517  0.00  0.00    +0.000 OA
ATOM      5  C   UNL     1     114.213 129.212 140.423  0.00  0.00    +0.000 C 
ATOM      6  C   UNL     1     114.508 129.972 140.294  0.00  0.00    +0.000 C 
ATOM      7  C   UNL     1     113.658 128.891 139.904  0.00  0.00    +0.000 C 
ATOM      8  C   UNL     1     114.246 130.411 139.646  0.00  0.00    +0.000 C 
ATOM      9  C   UNL     1     113.691 130.090 139.127  0.00  0.00    +0.000 C 
ENDROOT
BRANCH   9  10
ATOM     10  O   UNL     1     113.431 130.529 138.479  0.00  0.00    +0.000 OA
BRANCH  10  14
ATOM     11  O   UNL     1     111.307 129.405 136.834  0.00  0.00    +0.000 OA
ATOM     12  O   UNL     1     114.040 129.288 135.906  0.00  0.00    +0.000 OA
ATOM     13  O   UNL     1     112.962 128.741 135.118  0.00  0.00    +0.000 OA
ATOM     14  C   UNL     1     113.185 130.144 137.792  0.00  0.00    +0.000 A 
ATOM     15  C   UNL     1     111.059 129.020 136.148  0.00  0.00    +0.000 C 
ATOM     16  C   UNL     1     112.107 129.569 136.948  0.00  0.00    +0.000 A 
ATOM     17  C   UNL     1     112.354 129.970 137.667  0.00  0.00    +0.000 A 
ATOM     18  C   UNL     1     112.660 129.348 136.376  0.00  0.00    +0.000 A 
ATOM     19  C   UNL     1     111.610 128.799 135.576  0.00  0.00    +0.000 C 
ATOM     20  C   UNL     1     113.761 129.913 137.196  0.00  0.00    +0.000 A 
ATOM     21  C   UNL     1     112.410 128.963 135.691  0.00  0.00    +0.000 C 
ATOM     22  C   UNL     1     113.496 129.513 136.483  0.00  0.00    +0.000 A 
BRANCH  15  25
ATOM     23  O   UNL     1     108.440 129.877 135.390  0.00  0.00    +0.000 OA
ATOM     24  O   UNL     1     107.856 128.364 135.692  0.00  0.00    +0.000 OA
ATOM     25  C   UNL     1     110.257 128.856 136.033  0.00  0.00    +0.000 A 
ATOM     26  C   UNL     1     109.749 129.449 135.769  0.00  0.00    +0.000 A 
ATOM     27  C   UNL     1     109.966 128.099 136.184  0.00  0.00    +0.000 A 
ATOM     28  C   UNL     1     108.949 129.285 135.655  0.00  0.00    +0.000 A 
ATOM     29  C   UNL     1     109.166 127.935 136.070  0.00  0.00    +0.000 A 
ATOM     30  C   UNL     1     108.657 128.528 135.806  0.00  0.00    +0.000 A 
ENDBRANCH  15  25
ENDBRANCH  10  14
ENDBRANCH   9  10
BRANCH   7  31
ATOM     31  C   UNL     1     113.364 128.131 140.033  0.00  0.00    +0.000 C 
BRANCH  31  32
ATOM     32  O   UNL     1     113.420 127.560 139.440  0.00  0.00    +0.000 OA
BRANCH  32  34
ATOM     33  O   UNL     1     113.008 126.445 140.232  0.00  0.00    +0.000 OA
ATOM     34  C   UNL     1     113.010 126.849 139.512  0.00  0.00    +0.000 C 
BRANCH  34  35
ATOM     35  C   UNL     1     112.601 126.540 138.866  0.00  0.00    +0.000 C 
ATOM     36  C   UNL     1     112.939 125.942 138.410  0.00  0.00    +0.000 C 
BRANCH  36  38
ATOM     37  O   UNL     1     111.305 124.708 135.822  0.00  0.00    +0.000 OA
ATOM     38  C   UNL     1     112.530 125.633 137.763  0.00  0.00    +0.000 A 
ATOM     39  C   UNL     1     111.764 125.343 137.859  0.00  0.00    +0.000 A 
ATOM     40  C   UNL     1     112.887 125.614 137.020  0.00  0.00    +0.000 A 
ATOM     41  C   UNL     1     111.355 125.035 137.213  0.00  0.00    +0.000 A 
ATOM     42  C   UNL     1     112.480 125.306 136.373  0.00  0.00    +0.000 A 
ATOM     43  C   UNL     1     111.713 125.016 136.470  0.00  0.00    +0.000 A 
ENDBRANCH  36  38
ENDBRANCH  34  35
ENDBRANCH  32  34
ENDBRANCH  31  32
ENDBRANCH   7  31
TORSDOF 8
ENDMDL
MODEL 3
REMARK VINA RESULT:     -10.0      1.955      3.366
REMARK  Name = 131752758
REMARK  8 active torsions:
REMARK  status: ('A' for Active; 'I' for Inactive)
REMARK    1  A    between atoms: O_2  and  C_18
REMARK    2  A    between atoms: O_2  and  C_20
REMARK    3  A    between atoms: O_6  and  C_19
REMARK    4  A    between atoms: O_6  and  C_30
REMARK    5  A    between atoms: C_16  and  C_19
REMARK    6  A    between atoms: C_21  and  C_29
REMARK    7  A    between atoms: C_30  and  C_33
REMARK    8  A    between atoms: C_37  and  C_38
REMARK                            x       y       z     vdW  Elec       q    Type
REMARK                         _______ _______ _______ _____ _____    ______ ____
ROOT
ATOM      1  O   UNL     1     110.101 130.752 136.761  0.00  0.00    +0.000 OA
ATOM      2  O   UNL     1     108.156 131.441 137.472  0.00  0.00    +0.000 OA
ATOM      3  O   UNL     1     109.152 132.574 138.142  0.00  0.00    +0.000 OA
ATOM      4  O   UNL     1     110.781 132.492 137.891  0.00  0.00    +0.000 OA
ATOM      5  C   UNL     1     108.970 131.400 137.346  0.00  0.00    +0.000 C 
ATOM      6  C   UNL     1     109.469 131.966 137.681  0.00  0.00    +0.000 C 
ATOM      7  C   UNL     1     109.287 130.793 136.886  0.00  0.00    +0.000 C 
ATOM      8  C   UNL     1     110.283 131.925 137.556  0.00  0.00    +0.000 C 
ATOM      9  C   UNL     1     110.599 131.318 137.095  0.00  0.00    +0.000 C 
ENDROOT
BRANCH   9  10
ATOM     10  O   UNL     1     111.414 131.277 136.970  0.00  0.00    +0.000 OA
BRANCH  10  14
ATOM     11  O   UNL     1     112.243 128.823 138.300  0.00  0.00    +0.000 OA
ATOM     12  O   UNL     1     112.903 129.227 135.517  0.00  0.00    +0.000 OA
ATOM     13  O   UNL     1     113.297 128.024 136.209  0.00  0.00    +0.000 OA
ATOM     14  C   UNL     1     111.791 130.544 136.949  0.00  0.00    +0.000 A 
ATOM     15  C   UNL     1     112.620 128.089 138.282  0.00  0.00    +0.000 C 
ATOM     16  C   UNL     1     112.217 129.290 137.621  0.00  0.00    +0.000 A 
ATOM     17  C   UNL     1     111.822 130.052 137.653  0.00  0.00    +0.000 A 
ATOM     18  C   UNL     1     112.568 129.024 136.924  0.00  0.00    +0.000 A 
ATOM     19  C   UNL     1     112.971 127.823 137.586  0.00  0.00    +0.000 C 
ATOM     20  C   UNL     1     112.158 130.267 136.222  0.00  0.00    +0.000 A 
ATOM     21  C   UNL     1     112.945 128.291 136.906  0.00  0.00    +0.000 C 
ATOM     22  C   UNL     1     112.548 129.502 136.210  0.00  0.00    +0.000 A 
BRANCH  15  25
ATOM     23  O   UNL     1     111.494 126.031 139.915  0.00  0.00    +0.000 OA
ATOM     24  O   UNL     1     112.722 126.220 141.001  0.00  0.00    +0.000 OA
ATOM     25  C   UNL     1     112.645 127.621 138.962  0.00  0.00    +0.000 A 
ATOM     26  C   UNL     1     112.056 127.060 139.098  0.00  0.00    +0.000 A 
ATOM     27  C   UNL     1     113.260 127.716 139.505  0.00  0.00    +0.000 A 
ATOM     28  C   UNL     1     112.082 126.593 139.778  0.00  0.00    +0.000 A 
ATOM     29  C   UNL     1     113.285 127.249 140.184  0.00  0.00    +0.000 A 
ATOM     30  C   UNL     1     112.696 126.687 140.321  0.00  0.00    +0.000 A 
ENDBRANCH  15  25
ENDBRANCH  10  14
ENDBRANCH   9  10
BRANCH   7  31
ATOM     31  C   UNL     1     108.789 130.227 136.551  0.00  0.00    +0.000 C 
BRANCH  31  32
ATOM     32  O   UNL     1     109.093 129.666 136.029  0.00  0.00    +0.000 OA
BRANCH  32  34
ATOM     33  O   UNL     1     107.892 128.970 135.692  0.00  0.00    +0.000 OA
ATOM     34  C   UNL     1     108.690 128.958 135.902  0.00  0.00    +0.000 C 
BRANCH  34  35
ATOM     35  C   UNL     1     109.083 128.237 135.985  0.00  0.00    +0.000 C 
ATOM     36  C   UNL     1     109.347 127.832 135.317  0.00  0.00    +0.000 C 
BRANCH  36  38
ATOM     37  O   UNL     1     110.921 124.950 135.645  0.00  0.00    +0.000 OA
ATOM     38  C   UNL     1     109.741 127.111 135.400  0.00  0.00    +0.000 A 
ATOM     39  C   UNL     1     109.690 126.692 136.108  0.00  0.00    +0.000 A 
ATOM     40  C   UNL     1     110.185 126.810 134.773  0.00  0.00    +0.000 A 
ATOM     41  C   UNL     1     110.083 125.972 136.190  0.00  0.00    +0.000 A 
ATOM     42  C   UNL     1     110.578 126.090 134.855  0.00  0.00    +0.000 A 
ATOM     43  C   UNL     1     110.527 125.671 135.563  0.00  0.00    +0.000 A 
ENDBRANCH  36  38
ENDBRANCH  34  35
ENDBRANCH  32  34
ENDBRANCH  31  32
ENDBRANCH   7  31
TORSDOF 8
ENDMDL
MODEL 4
REMARK VINA RESULT:      -9.9      1.511      4.000
REMARK  Name = 131752758
REMARK  8 active torsions:
REMARK  status: ('A' for Active; 'I' for Inactive)
REMARK    1  A    between atoms: O_2  and  C_18
REMARK    2  A    between atoms: O_2  and  C_20
REMARK    3  A    between atoms: O_6  and  C_19
REMARK    4  A    between atoms: O_6  and  C_30
REMARK    5  A    between atoms: C_16  and  C_19
REMARK    6  A    between atoms: C_21  and  C_29
REMARK    7  A    between atoms: C_30  and  C_33
REMARK    8  A    between atoms: C_37  and  C_38
REMARK                            x       y       z     vdW  Elec       q    Type
REMARK                         _______ _______ _______ _____ _____    ______ ____
ROOT
ATOM      1  O   UNL     1     112.535 125.749 136.303  0.00  0.00    +0.000 OA
ATOM      2  O   UNL     1     111.612 123.779 136.480  0.00  0.00    +0.000 OA
ATOM      3  O   UNL     1     113.093 123.490 137.146  0.00  0.00    +0.000 OA
ATOM      4  O   UNL     1     114.203 124.707 137.250  0.00  0.00    +0.000 OA
ATOM      5  C   UNL     1     112.166 124.388 136.532  0.00  0.00    +0.000 C 
ATOM      6  C   UNL     1     112.907 124.243 136.865  0.00  0.00    +0.000 C 
ATOM      7  C   UNL     1     111.980 125.141 136.251  0.00  0.00    +0.000 C 
ATOM      8  C   UNL     1     113.462 124.852 136.917  0.00  0.00    +0.000 C 
ATOM      9  C   UNL     1     113.276 125.605 136.636  0.00  0.00    +0.000 C 
ENDROOT
BRANCH   9  10
ATOM     10  O   UNL     1     113.831 126.213 136.688  0.00  0.00    +0.000 OA
BRANCH  10  14
ATOM     11  O   UNL     1     112.512 128.435 138.032  0.00  0.00    +0.000 OA
ATOM     12  O   UNL     1     113.614 128.821 135.390  0.00  0.00    +0.000 OA
ATOM     13  O   UNL     1     112.954 129.898 136.086  0.00  0.00    +0.000 OA
ATOM     14  C   UNL     1     113.581 126.999 136.695  0.00  0.00    +0.000 A 
ATOM     15  C   UNL     1     112.261 129.221 138.041  0.00  0.00    +0.000 C 
ATOM     16  C   UNL     1     112.910 128.136 137.374  0.00  0.00    +0.000 A 
ATOM     17  C   UNL     1     113.166 127.316 137.376  0.00  0.00    +0.000 A 
ATOM     18  C   UNL     1     113.058 128.624 136.725  0.00  0.00    +0.000 A 
ATOM     19  C   UNL     1     112.408 129.708 137.393  0.00  0.00    +0.000 C 
ATOM     20  C   UNL     1     113.735 127.508 136.018  0.00  0.00    +0.000 A 
ATOM     21  C   UNL     1     112.807 129.410 136.735  0.00  0.00    +0.000 C 
ATOM     22  C   UNL     1     113.471 128.325 136.034  0.00  0.00    +0.000 A 
BRANCH  15  25
ATOM     23  O   UNL     1     112.293 130.643 140.520  0.00  0.00    +0.000 OA
ATOM     24  O   UNL     1     110.667 130.412 140.674  0.00  0.00    +0.000 OA
ATOM     25  C   UNL     1     111.862 129.519 138.700  0.00  0.00    +0.000 A 
ATOM     26  C   UNL     1     112.277 129.932 139.280  0.00  0.00    +0.000 A 
ATOM     27  C   UNL     1     111.049 129.403 138.777  0.00  0.00    +0.000 A 
ATOM     28  C   UNL     1     111.879 130.230 139.938  0.00  0.00    +0.000 A 
ATOM     29  C   UNL     1     110.651 129.701 139.435  0.00  0.00    +0.000 A 
ATOM     30  C   UNL     1     111.065 130.115 140.016  0.00  0.00    +0.000 A 
ENDBRANCH  15  25
ENDBRANCH  10  14
ENDBRANCH   9  10
BRANCH   7  31
ATOM     31  C   UNL     1     111.240 125.285 135.918  0.00  0.00    +0.000 C 
BRANCH  31  32
ATOM     32  O   UNL     1     111.159 125.842 135.314  0.00  0.00    +0.000 OA
BRANCH  32  34
ATOM     33  O   UNL     1     109.936 125.615 134.612  0.00  0.00    +0.000 OA
ATOM     34  C   UNL     1     110.410 126.097 135.085  0.00  0.00    +0.000 C 
BRANCH  34  35
ATOM     35  C   UNL     1     110.132 126.836 135.328  0.00  0.00    +0.000 C 
ATOM     36  C   UNL     1     110.026 127.439 134.776  0.00  0.00    +0.000 C 
BRANCH  36  38
ATOM     37  O   UNL     1     108.915 130.390 135.749  0.00  0.00    +0.000 OA
ATOM     38  C   UNL     1     109.749 128.177 135.019  0.00  0.00    +0.000 A 
ATOM     39  C   UNL     1     109.978 128.858 134.614  0.00  0.00    +0.000 A 
ATOM     40  C   UNL     1     109.242 128.234 135.667  0.00  0.00    +0.000 A 
ATOM     41  C   UNL     1     109.700 129.595 134.857  0.00  0.00    +0.000 A 
ATOM     42  C   UNL     1     108.963 128.971 135.911  0.00  0.00    +0.000 A 
ATOM     43  C   UNL     1     109.193 129.652 135.506  0.00  0.00    +0.000 A 
ENDBRANCH  36  38
ENDBRANCH  34  35
ENDBRANCH  32  34
ENDBRANCH  31  32
ENDBRANCH   7  31
TORSDOF 8
ENDMDL
MODEL 5
REMARK VINA RESULT:      -9.8      2.017      3.849
REMARK  Name = 131752758
REMARK  8 active torsions:
REMARK  status: ('A' for Active; 'I' for Inactive)
REMARK    1  A    between atoms: O_2  and  C_18
REMARK    2  A    between atoms: O_2  and  C_20
REMARK    3  A    between atoms: O_6  and  C_19
REMARK    4  A    between atoms: O_6  and  C_30
REMARK    5  A    between atoms: C_16  and  C_19
REMARK    6  A    between atoms: C_21  and  C_29
REMARK    7  A    between atoms: C_30  and  C_33
REMARK    8  A    between atoms: C_37  and  C_38
REMARK                            x       y       z     vdW  Elec       q    Type
REMARK                         _______ _______ _______ _____ _____    ______ ____
ROOT
ATOM      1  O   UNL     1     111.461 126.529 137.393  0.00  0.00    +0.000 OA
ATOM      2  O   UNL     1     111.493 124.458 138.082  0.00  0.00    +0.000 OA
ATOM      3  O   UNL     1     111.390 124.242 136.449  0.00  0.00    +0.000 OA
ATOM      4  O   UNL     1     111.335 125.551 135.446  0.00  0.00    +0.000 OA
ATOM      5  C   UNL     1     111.465 125.113 137.581  0.00  0.00    +0.000 C 
ATOM      6  C   UNL     1     111.414 125.005 136.764  0.00  0.00    +0.000 C 
ATOM      7  C   UNL     1     111.489 125.875 137.896  0.00  0.00    +0.000 C 
ATOM      8  C   UNL     1     111.386 125.659 136.263  0.00  0.00    +0.000 C 
ATOM      9  C   UNL     1     111.410 126.422 136.578  0.00  0.00    +0.000 C 
ENDROOT
BRANCH   9  10
ATOM     10  O   UNL     1     111.383 127.076 136.076  0.00  0.00    +0.000 OA
BRANCH  10  14
ATOM     11  O   UNL     1     111.340 129.807 137.086  0.00  0.00    +0.000 OA
ATOM     12  O   UNL     1     113.856 128.609 136.326  0.00  0.00    +0.000 OA
ATOM     13  O   UNL     1     113.797 129.959 136.831  0.00  0.00    +0.000 OA
ATOM     14  C   UNL     1     111.779 127.769 136.281  0.00  0.00    +0.000 A 
ATOM     15  C   UNL     1     111.734 130.502 137.292  0.00  0.00    +0.000 C 
ATOM     16  C   UNL     1     111.765 129.162 136.795  0.00  0.00    +0.000 A 
ATOM     17  C   UNL     1     111.343 128.444 136.584  0.00  0.00    +0.000 A 
ATOM     18  C   UNL     1     112.584 129.213 136.710  0.00  0.00    +0.000 A 
ATOM     19  C   UNL     1     112.552 130.553 137.207  0.00  0.00    +0.000 C 
ATOM     20  C   UNL     1     112.633 127.822 136.192  0.00  0.00    +0.000 A 
ATOM     21  C   UNL     1     112.977 129.908 136.916  0.00  0.00    +0.000 C 
ATOM     22  C   UNL     1     113.037 128.549 136.408  0.00  0.00    +0.000 A 
BRANCH  15  25
ATOM     23  O   UNL     1     110.371 131.800 139.443  0.00  0.00    +0.000 OA
ATOM     24  O   UNL     1     110.033 133.079 138.457  0.00  0.00    +0.000 OA
ATOM     25  C   UNL     1     111.308 131.147 137.584  0.00  0.00    +0.000 A 
ATOM     26  C   UNL     1     111.052 131.151 138.368  0.00  0.00    +0.000 A 
ATOM     27  C   UNL     1     111.140 131.786 137.091  0.00  0.00    +0.000 A 
ATOM     28  C   UNL     1     110.627 131.795 138.658  0.00  0.00    +0.000 A 
ATOM     29  C   UNL     1     110.715 132.430 137.382  0.00  0.00    +0.000 A 
ATOM     30  C   UNL     1     110.458 132.435 138.166  0.00  0.00    +0.000 A 
ENDBRANCH  15  25
ENDBRANCH  10  14
ENDBRANCH   9  10
BRANCH   7  31
ATOM     31  C   UNL     1     111.540 125.982 138.711  0.00  0.00    +0.000 C 
BRANCH  31  32
ATOM     32  O   UNL     1     112.184 126.384 139.036  0.00  0.00    +0.000 OA
BRANCH  32  34
ATOM     33  O   UNL     1     111.896 126.212 140.424  0.00  0.00    +0.000 OA
ATOM     34  C   UNL     1     112.136 126.693 139.798  0.00  0.00    +0.000 C 
BRANCH  34  35
ATOM     35  C   UNL     1     112.327 127.484 139.937  0.00  0.00    +0.000 C 
ATOM     36  C   UNL     1     113.008 127.676 140.360  0.00  0.00    +0.000 C 
BRANCH  36  38
ATOM     37  O   UNL     1     113.775 130.838 140.912  0.00  0.00    +0.000 OA
ATOM     38  C   UNL     1     113.199 128.467 140.498  0.00  0.00    +0.000 A 
ATOM     39  C   UNL     1     112.664 128.960 140.886  0.00  0.00    +0.000 A 
ATOM     40  C   UNL     1     113.927 128.765 140.248  0.00  0.00    +0.000 A 
ATOM     41  C   UNL     1     112.855 129.749 141.024  0.00  0.00    +0.000 A 
ATOM     42  C   UNL     1     114.119 129.555 140.386  0.00  0.00    +0.000 A 
ATOM     43  C   UNL     1     113.583 130.047 140.774  0.00  0.00    +0.000 A 
ENDBRANCH  36  38
ENDBRANCH  34  35
ENDBRANCH  32  34
ENDBRANCH  31  32
ENDBRANCH   7  31
TORSDOF 8
ENDMDL
MODEL 6
REMARK VINA RESULT:      -9.8      1.859      3.803
REMARK  Name = 131752758
REMARK  8 active torsions:
REMARK  status: ('A' for Active; 'I' for Inactive)
REMARK    1  A    between atoms: O_2  and  C_18
REMARK    2  A    between atoms: O_2  and  C_20
REMARK    3  A    between atoms: O_6  and  C_19
REMARK    4  A    between atoms: O_6  and  C_30
REMARK    5  A    between atoms: C_16  and  C_19
REMARK    6  A    between atoms: C_21  and  C_29
REMARK    7  A    between atoms: C_30  and  C_33
REMARK    8  A    between atoms: C_37  and  C_38
REMARK                            x       y       z     vdW  Elec       q    Type
REMARK                         _______ _______ _______ _____ _____    ______ ____
ROOT
ATOM      1  O   UNL     1     109.976 129.121 136.520  0.00  0.00    +0.000 OA
ATOM      2  O   UNL     1     108.441 130.465 137.295  0.00  0.00    +0.000 OA
ATOM      3  O   UNL     1     108.255 130.683 135.671  0.00  0.00    +0.000 OA
ATOM      4  O   UNL     1     109.216 129.860 134.612  0.00  0.00    +0.000 OA
ATOM      5  C   UNL     1     108.921 130.053 136.767  0.00  0.00    +0.000 C 
ATOM      6  C   UNL     1     108.828 130.163 135.954  0.00  0.00    +0.000 C 
ATOM      7  C   UNL     1     109.495 129.532 137.050  0.00  0.00    +0.000 C 
ATOM      8  C   UNL     1     109.309 129.751 135.425  0.00  0.00    +0.000 C 
ATOM      9  C   UNL     1     109.883 129.230 135.708  0.00  0.00    +0.000 C 
ENDROOT
BRANCH   9  10
ATOM     10  O   UNL     1     110.363 128.818 135.179  0.00  0.00    +0.000 OA
BRANCH  10  14
ATOM     11  O   UNL     1     112.016 126.577 136.033  0.00  0.00    +0.000 OA
ATOM     12  O   UNL     1     109.411 126.072 134.890  0.00  0.00    +0.000 OA
ATOM     13  O   UNL     1     110.258 124.987 135.325  0.00  0.00    +0.000 OA
ATOM     14  C   UNL     1     110.476 128.006 135.270  0.00  0.00    +0.000 A 
ATOM     15  C   UNL     1     112.132 125.766 136.126  0.00  0.00    +0.000 C 
ATOM     16  C   UNL     1     111.314 126.859 135.704  0.00  0.00    +0.000 A 
ATOM     17  C   UNL     1     111.205 127.706 135.612  0.00  0.00    +0.000 A 
ATOM     18  C   UNL     1     110.727 126.329 135.468  0.00  0.00    +0.000 A 
ATOM     19  C   UNL     1     111.546 125.236 135.890  0.00  0.00    +0.000 C 
ATOM     20  C   UNL     1     109.865 127.453 135.024  0.00  0.00    +0.000 A 
ATOM     21  C   UNL     1     110.844 125.518 135.561  0.00  0.00    +0.000 C 
ATOM     22  C   UNL     1     109.992 126.610 135.123  0.00  0.00    +0.000 A 
BRANCH  15  25
ATOM     23  O   UNL     1     114.973 125.917 136.399  0.00  0.00    +0.000 OA
ATOM     24  O   UNL     1     114.941 124.641 137.444  0.00  0.00    +0.000 OA
ATOM     25  C   UNL     1     112.835 125.484 136.456  0.00  0.00    +0.000 A 
ATOM     26  C   UNL     1     113.552 125.842 136.262  0.00  0.00    +0.000 A 
ATOM     27  C   UNL     1     112.818 124.846 136.978  0.00  0.00    +0.000 A 
ATOM     28  C   UNL     1     114.254 125.560 136.592  0.00  0.00    +0.000 A 
ATOM     29  C   UNL     1     113.521 124.565 137.307  0.00  0.00    +0.000 A 
ATOM     30  C   UNL     1     114.239 124.922 137.114  0.00  0.00    +0.000 A 
ENDBRANCH  15  25
ENDBRANCH  10  14
ENDBRANCH   9  10
BRANCH   7  31
ATOM     31  C   UNL     1     109.588 129.423 137.862  0.00  0.00    +0.000 C 
BRANCH  31  32
ATOM     32  O   UNL     1     109.778 128.678 138.160  0.00  0.00    +0.000 OA
BRANCH  32  34
ATOM     33  O   UNL     1     109.409 128.678 139.540  0.00  0.00    +0.000 OA
ATOM     34  C   UNL     1     109.983 128.590 138.954  0.00  0.00    +0.000 C 
BRANCH  34  35
ATOM     35  C   UNL     1     110.761 128.414 139.163  0.00  0.00    +0.000 C 
ATOM     36  C   UNL     1     110.980 127.636 139.325  0.00  0.00    +0.000 C 
BRANCH  36  38
ATOM     37  O   UNL     1     114.095 126.936 140.161  0.00  0.00    +0.000 OA
ATOM     38  C   UNL     1     111.758 127.461 139.535  0.00  0.00    +0.000 A 
ATOM     39  C   UNL     1     111.917 126.834 140.046  0.00  0.00    +0.000 A 
ATOM     40  C   UNL     1     112.378 127.913 139.232  0.00  0.00    +0.000 A 
ATOM     41  C   UNL     1     112.695 126.659 140.255  0.00  0.00    +0.000 A 
ATOM     42  C   UNL     1     113.157 127.738 139.440  0.00  0.00    +0.000 A 
ATOM     43  C   UNL     1     113.315 127.111 139.952  0.00  0.00    +0.000 A 
ENDBRANCH  36  38
ENDBRANCH  34  35
ENDBRANCH  32  34
ENDBRANCH  31  32
ENDBRANCH   7  31
TORSDOF 8
ENDMDL
MODEL 7
REMARK VINA RESULT:      -9.7      1.874      4.700
REMARK  Name = 131752758
REMARK  8 active torsions:
REMARK  status: ('A' for Active; 'I' for Inactive)
REMARK    1  A    between atoms: O_2  and  C_18
REMARK    2  A    between atoms: O_2  and  C_20
REMARK    3  A    between atoms: O_6  and  C_19
REMARK    4  A    between atoms: O_6  and  C_30
REMARK    5  A    between atoms: C_16  and  C_19
REMARK    6  A    between atoms: C_21  and  C_29
REMARK    7  A    between atoms: C_30  and  C_33
REMARK    8  A    between atoms: C_37  and  C_38
REMARK                            x       y       z     vdW  Elec       q    Type
REMARK                         _______ _______ _______ _____ _____    ______ ____
ROOT
ATOM      1  O   UNL     1     112.837 125.513 137.697  0.00  0.00    +0.000 OA
ATOM      2  O   UNL     1     113.850 124.333 136.166  0.00  0.00    +0.000 OA
ATOM      3  O   UNL     1     115.119 124.730 137.142  0.00  0.00    +0.000 OA
ATOM      4  O   UNL     1     114.867 125.650 138.489  0.00  0.00    +0.000 OA
ATOM      5  C   UNL     1     113.723 124.792 136.839  0.00  0.00    +0.000 C 
ATOM      6  C   UNL     1     114.358 124.991 137.327  0.00  0.00    +0.000 C 
ATOM      7  C   UNL     1     112.963 125.053 137.024  0.00  0.00    +0.000 C 
ATOM      8  C   UNL     1     114.232 125.451 138.000  0.00  0.00    +0.000 C 
ATOM      9  C   UNL     1     113.471 125.712 138.185  0.00  0.00    +0.000 C 
ENDROOT
BRANCH   9  10
ATOM     10  O   UNL     1     113.346 126.172 138.859  0.00  0.00    +0.000 OA
BRANCH  10  14
ATOM     11  O   UNL     1     112.038 128.704 138.257  0.00  0.00    +0.000 OA
ATOM     12  O   UNL     1     110.604 126.676 139.733  0.00  0.00    +0.000 OA
ATOM     13  O   UNL     1     109.989 127.942 139.417  0.00  0.00    +0.000 OA
ATOM     14  C   UNL     1     112.686 126.665 138.904  0.00  0.00    +0.000 A 
ATOM     15  C   UNL     1     111.379 129.199 138.301  0.00  0.00    +0.000 C 
ATOM     16  C   UNL     1     112.013 127.954 138.600  0.00  0.00    +0.000 A 
ATOM     17  C   UNL     1     112.705 127.448 138.549  0.00  0.00    +0.000 A 
ATOM     18  C   UNL     1     111.330 127.700 138.987  0.00  0.00    +0.000 A 
ATOM     19  C   UNL     1     110.697 128.946 138.687  0.00  0.00    +0.000 C 
ATOM     20  C   UNL     1     111.974 126.401 139.307  0.00  0.00    +0.000 A 
ATOM     21  C   UNL     1     110.672 128.196 139.030  0.00  0.00    +0.000 C 
ATOM     22  C   UNL     1     111.292 126.921 139.348  0.00  0.00    +0.000 A 
BRANCH  15  25
ATOM     23  O   UNL     1     110.987 132.024 138.492  0.00  0.00    +0.000 OA
ATOM     24  O   UNL     1     111.480 132.199 136.927  0.00  0.00    +0.000 OA
ATOM     25  C   UNL     1     111.405 129.950 137.957  0.00  0.00    +0.000 A 
ATOM     26  C   UNL     1     111.183 130.612 138.397  0.00  0.00    +0.000 A 
ATOM     27  C   UNL     1     111.651 130.037 137.175  0.00  0.00    +0.000 A 
ATOM     28  C   UNL     1     111.208 131.361 138.053  0.00  0.00    +0.000 A 
ATOM     29  C   UNL     1     111.676 130.787 136.832  0.00  0.00    +0.000 A 
ATOM     30  C   UNL     1     111.455 131.449 137.271  0.00  0.00    +0.000 A 
ENDBRANCH  15  25
ENDBRANCH  10  14
ENDBRANCH   9  10
BRANCH   7  31
ATOM     31  C   UNL     1     112.329 124.855 136.535  0.00  0.00    +0.000 C 
BRANCH  31  32
ATOM     32  O   UNL     1     111.944 125.439 136.099  0.00  0.00    +0.000 OA
BRANCH  32  34
ATOM     33  O   UNL     1     110.962 124.616 135.468  0.00  0.00    +0.000 OA
ATOM     34  C   UNL     1     111.169 125.321 135.843  0.00  0.00    +0.000 C 
BRANCH  34  35
ATOM     35  C   UNL     1     110.601 125.908 135.961  0.00  0.00    +0.000 C 
ATOM     36  C   UNL     1     110.399 126.418 135.346  0.00  0.00    +0.000 C 
BRANCH  36  38
ATOM     37  O   UNL     1     108.128 128.765 135.818  0.00  0.00    +0.000 OA
ATOM     38  C   UNL     1     109.831 127.004 135.464  0.00  0.00    +0.000 A 
ATOM     39  C   UNL     1     109.171 126.851 135.934  0.00  0.00    +0.000 A 
ATOM     40  C   UNL     1     109.923 127.744 135.112  0.00  0.00    +0.000 A 
ATOM     41  C   UNL     1     108.604 127.437 136.053  0.00  0.00    +0.000 A 
ATOM     42  C   UNL     1     109.356 128.331 135.229  0.00  0.00    +0.000 A 
ATOM     43  C   UNL     1     108.696 128.177 135.700  0.00  0.00    +0.000 A 
ENDBRANCH  36  38
ENDBRANCH  34  35
ENDBRANCH  32  34
ENDBRANCH  31  32
ENDBRANCH   7  31
TORSDOF 8
ENDMDL
MODEL 8
REMARK VINA RESULT:      -9.7      1.461      4.517
REMARK  Name = 131752758
REMARK  8 active torsions:
REMARK  status: ('A' for Active; 'I' for Inactive)
REMARK    1  A    between atoms: O_2  and  C_18
REMARK    2  A    between atoms: O_2  and  C_20
REMARK    3  A    between atoms: O_6  and  C_19
REMARK    4  A    between atoms: O_6  and  C_30
REMARK    5  A    between atoms: C_16  and  C_19
REMARK    6  A    between atoms: C_21  and  C_29
REMARK    7  A    between atoms: C_30  and  C_33
REMARK    8  A    between atoms: C_37  and  C_38
REMARK                            x       y       z     vdW  Elec       q    Type
REMARK                         _______ _______ _______ _____ _____    ______ ____
ROOT
ATOM      1  O   UNL     1     112.918 129.245 139.328  0.00  0.00    +0.000 OA
ATOM      2  O   UNL     1     112.519 128.893 141.445  0.00  0.00    +0.000 OA
ATOM      3  O   UNL     1     111.656 130.277 141.190  0.00  0.00    +0.000 OA
ATOM      4  O   UNL     1     111.635 130.972 139.694  0.00  0.00    +0.000 OA
ATOM      5  C   UNL     1     112.509 129.240 140.697  0.00  0.00    +0.000 C 
ATOM      6  C   UNL     1     112.077 129.933 140.570  0.00  0.00    +0.000 C 
ATOM      7  C   UNL     1     112.929 128.896 140.076  0.00  0.00    +0.000 C 
ATOM      8  C   UNL     1     112.067 130.280 139.821  0.00  0.00    +0.000 C 
ATOM      9  C   UNL     1     112.487 129.936 139.201  0.00  0.00    +0.000 C 
ENDROOT
BRANCH   9  10
ATOM     10  O   UNL     1     112.476 130.284 138.453  0.00  0.00    +0.000 OA
BRANCH  10  14
ATOM     11  O   UNL     1     111.578 128.347 136.472  0.00  0.00    +0.000 OA
ATOM     12  O   UNL     1     114.263 129.401 136.317  0.00  0.00    +0.000 OA
ATOM     13  O   UNL     1     113.783 128.440 135.354  0.00  0.00    +0.000 OA
ATOM     14  C   UNL     1     112.622 129.826 137.782  0.00  0.00    +0.000 A 
ATOM     15  C   UNL     1     111.721 127.888 135.802  0.00  0.00    +0.000 C 
ATOM     16  C   UNL     1     112.170 128.838 136.769  0.00  0.00    +0.000 A 
ATOM     17  C   UNL     1     112.009 129.312 137.468  0.00  0.00    +0.000 A 
ATOM     18  C   UNL     1     112.906 128.870 136.397  0.00  0.00    +0.000 A 
ATOM     19  C   UNL     1     112.455 127.919 135.429  0.00  0.00    +0.000 C 
ATOM     20  C   UNL     1     113.388 129.858 137.394  0.00  0.00    +0.000 A 
ATOM     21  C   UNL     1     113.048 128.410 135.727  0.00  0.00    +0.000 C 
ATOM     22  C   UNL     1     113.531 129.377 136.697  0.00  0.00    +0.000 A 
BRANCH  15  25
ATOM     23  O   UNL     1     110.368 125.370 135.785  0.00  0.00    +0.000 OA
ATOM     24  O   UNL     1     109.349 125.924 134.612  0.00  0.00    +0.000 OA
ATOM     25  C   UNL     1     111.127 127.396 135.504  0.00  0.00    +0.000 A 
ATOM     26  C   UNL     1     111.045 126.629 135.794  0.00  0.00    +0.000 A 
ATOM     27  C   UNL     1     110.618 127.674 134.918  0.00  0.00    +0.000 A 
ATOM     28  C   UNL     1     110.452 126.138 135.496  0.00  0.00    +0.000 A 
ATOM     29  C   UNL     1     110.025 127.183 134.621  0.00  0.00    +0.000 A 
ATOM     30  C   UNL     1     109.942 126.415 134.910  0.00  0.00    +0.000 A 
ENDBRANCH  15  25
ENDBRANCH  10  14
ENDBRANCH   9  10
BRANCH   7  31
ATOM     31  C   UNL     1     113.360 128.205 140.203  0.00  0.00    +0.000 C 
BRANCH  31  32
ATOM     32  O   UNL     1     113.119 127.498 139.854  0.00  0.00    +0.000 OA
BRANCH  32  34
ATOM     33  O   UNL     1     114.348 126.839 140.163  0.00  0.00    +0.000 OA
ATOM     34  C   UNL     1     113.671 126.906 139.697  0.00  0.00    +0.000 C 
BRANCH  34  35
ATOM     35  C   UNL     1     113.546 126.380 139.073  0.00  0.00    +0.000 C 
ATOM     36  C   UNL     1     114.179 126.143 138.600  0.00  0.00    +0.000 C 
BRANCH  36  38
ATOM     37  O   UNL     1     113.679 124.040 136.106  0.00  0.00    +0.000 OA
ATOM     38  C   UNL     1     114.055 125.618 137.976  0.00  0.00    +0.000 A 
ATOM     39  C   UNL     1     114.594 125.581 137.354  0.00  0.00    +0.000 A 
ATOM     40  C   UNL     1     113.390 125.129 137.976  0.00  0.00    +0.000 A 
ATOM     41  C   UNL     1     114.469 125.055 136.731  0.00  0.00    +0.000 A 
ATOM     42  C   UNL     1     113.264 124.603 137.353  0.00  0.00    +0.000 A 
ATOM     43  C   UNL     1     113.805 124.567 136.730  0.00  0.00    +0.000 A 
ENDBRANCH  36  38
ENDBRANCH  34  35
ENDBRANCH  32  34
ENDBRANCH  31  32
ENDBRANCH   7  31
TORSDOF 8
ENDMDL
MODEL 9
REMARK VINA RESULT:      -9.6      2.044      5.735
REMARK  Name = 131752758
REMARK  8 active torsions:
REMARK  status: ('A' for Active; 'I' for Inactive)
REMARK    1  A    between atoms: O_2  and  C_18
REMARK    2  A    between atoms: O_2  and  C_20
REMARK    3  A    between atoms: O_6  and  C_19
REMARK    4  A    between atoms: O_6  and  C_30
REMARK    5  A    between atoms: C_16  and  C_19
REMARK    6  A    between atoms: C_21  and  C_29
REMARK    7  A    between atoms: C_30  and  C_33
REMARK    8  A    between atoms: C_37  and  C_38
REMARK                            x       y       z     vdW  Elec       q    Type
REMARK                         _______ _______ _______ _____ _____    ______ ____
ROOT
ATOM      1  O   UNL     1     112.990 128.886 140.830  0.00  0.00    +0.000 OA
ATOM      2  O   UNL     1     112.546 130.866 141.636  0.00  0.00    +0.000 OA
ATOM      3  O   UNL     1     112.020 129.902 142.868  0.00  0.00    +0.000 OA
ATOM      4  O   UNL     1     112.140 128.262 142.742  0.00  0.00    +0.000 OA
ATOM      5  C   UNL     1     112.607 130.046 141.572  0.00  0.00    +0.000 C 
ATOM      6  C   UNL     1     112.343 129.564 142.189  0.00  0.00    +0.000 C 
ATOM      7  C   UNL     1     112.930 129.707 140.893  0.00  0.00    +0.000 C 
ATOM      8  C   UNL     1     112.404 128.744 142.125  0.00  0.00    +0.000 C 
ATOM      9  C   UNL     1     112.727 128.405 141.446  0.00  0.00    +0.000 C 
ENDROOT
BRANCH   9  10
ATOM     10  O   UNL     1     112.787 127.584 141.383  0.00  0.00    +0.000 OA
BRANCH  10  14
ATOM     11  O   UNL     1     113.429 126.302 138.848  0.00  0.00    +0.000 OA
ATOM     12  O   UNL     1     110.668 126.537 139.666  0.00  0.00    +0.000 OA
ATOM     13  O   UNL     1     111.024 125.908 138.417  0.00  0.00    +0.000 OA
ATOM     14  C   UNL     1     112.545 127.205 140.691  0.00  0.00    +0.000 A 
ATOM     15  C   UNL     1     113.190 125.923 138.155  0.00  0.00    +0.000 C 
ATOM     16  C   UNL     1     112.866 126.551 139.397  0.00  0.00    +0.000 A 
ATOM     17  C   UNL     1     113.127 126.944 140.115  0.00  0.00    +0.000 A 
ATOM     18  C   UNL     1     112.064 126.419 139.254  0.00  0.00    +0.000 A 
ATOM     19  C   UNL     1     112.389 125.792 138.012  0.00  0.00    +0.000 C 
ATOM     20  C   UNL     1     111.710 127.068 140.542  0.00  0.00    +0.000 A 
ATOM     21  C   UNL     1     111.826 126.040 138.561  0.00  0.00    +0.000 C 
ATOM     22  C   UNL     1     111.468 126.673 139.818  0.00  0.00    +0.000 A 
BRANCH  15  25
ATOM     23  O   UNL     1     114.802 126.447 135.854  0.00  0.00    +0.000 OA
ATOM     24  O   UNL     1     115.445 124.930 135.958  0.00  0.00    +0.000 OA
ATOM     25  C   UNL     1     113.754 125.675 137.605  0.00  0.00    +0.000 A 
ATOM     26  C   UNL     1     113.996 126.185 137.004  0.00  0.00    +0.000 A 
ATOM     27  C   UNL     1     114.075 124.917 137.658  0.00  0.00    +0.000 A 
ATOM     28  C   UNL     1     114.559 125.937 136.455  0.00  0.00    +0.000 A 
ATOM     29  C   UNL     1     114.639 124.669 137.109  0.00  0.00    +0.000 A 
ATOM     30  C   UNL     1     114.881 125.179 136.507  0.00  0.00    +0.000 A 
ENDBRANCH  15  25
ENDBRANCH  10  14
ENDBRANCH   9  10
BRANCH   7  31
ATOM     31  C   UNL     1     113.193 130.188 140.278  0.00  0.00    +0.000 C 
BRANCH  31  32
ATOM     32  O   UNL     1     113.522 129.851 139.600  0.00  0.00    +0.000 OA
BRANCH  32  34
ATOM     33  O   UNL     1     114.113 130.977 138.951  0.00  0.00    +0.000 OA
ATOM     34  C   UNL     1     113.632 130.308 138.923  0.00  0.00    +0.000 C 
BRANCH  34  35
ATOM     35  C   UNL     1     113.261 130.096 138.217  0.00  0.00    +0.000 C 
ATOM     36  C   UNL     1     113.713 129.894 137.558  0.00  0.00    +0.000 C 
BRANCH  36  38
ATOM     37  O   UNL     1     112.232 129.050 134.732  0.00  0.00    +0.000 OA
ATOM     38  C   UNL     1     113.342 129.683 136.851  0.00  0.00    +0.000 A 
ATOM     39  C   UNL     1     112.572 129.388 136.861  0.00  0.00    +0.000 A 
ATOM     40  C   UNL     1     113.742 129.767 136.135  0.00  0.00    +0.000 A 
ATOM     41  C   UNL     1     112.202 129.176 136.156  0.00  0.00    +0.000 A 
ATOM     42  C   UNL     1     113.372 129.556 135.428  0.00  0.00    +0.000 A 
ATOM     43  C   UNL     1     112.602 129.261 135.439  0.00  0.00    +0.000 A 
ENDBRANCH  36  38
ENDBRANCH  34  35
ENDBRANCH  32  34
ENDBRANCH  31  32
ENDBRANCH   7  31
TORSDOF 8
ENDMDL
MODEL 10
REMARK VINA RESULT:      -9.5      1.625      3.907
REMARK  Name = 131752758
REMARK  8 active torsions:
REMARK  status: ('A' for Active; 'I' for Inactive)
REMARK    1  A    between atoms: O_2  and  C_18
REMARK    2  A    between atoms: O_2  and  C_20
REMARK    3  A    between atoms: O_6  and  C_19
REMARK    4  A    between atoms: O_6  and  C_30
REMARK    5  A    between atoms: C_16  and  C_19
REMARK    6  A    between atoms: C_21  and  C_29
REMARK    7  A    between atoms: C_30  and  C_33
REMARK    8  A    between atoms: C_37  and  C_38
REMARK                            x       y       z     vdW  Elec       q    Type
REMARK                         _______ _______ _______ _____ _____    ______ ____
ROOT
ATOM      1  O   UNL     1     110.257 130.102 136.549  0.00  0.00    +0.000 OA
ATOM      2  O   UNL     1     108.403 130.715 137.523  0.00  0.00    +0.000 OA
ATOM      3  O   UNL     1     107.842 130.275 136.035  0.00  0.00    +0.000 OA
ATOM      4  O   UNL     1     108.891 129.719 134.889  0.00  0.00    +0.000 OA
ATOM      5  C   UNL     1     108.928 130.438 136.951  0.00  0.00    +0.000 C 
ATOM      6  C   UNL     1     108.647 130.217 136.206  0.00  0.00    +0.000 C 
ATOM      7  C   UNL     1     109.733 130.380 137.122  0.00  0.00    +0.000 C 
ATOM      8  C   UNL     1     109.172 129.940 135.634  0.00  0.00    +0.000 C 
ATOM      9  C   UNL     1     109.977 129.882 135.805  0.00  0.00    +0.000 C 
ENDROOT
BRANCH   9  10
ATOM     10  O   UNL     1     110.501 129.604 135.232  0.00  0.00    +0.000 OA
BRANCH  10  14
ATOM     11  O   UNL     1     111.544 127.063 136.201  0.00  0.00    +0.000 OA
ATOM     12  O   UNL     1     113.372 129.224 135.619  0.00  0.00    +0.000 OA
ATOM     13  O   UNL     1     113.852 127.951 136.101  0.00  0.00    +0.000 OA
ATOM     14  C   UNL     1     111.139 129.129 135.452  0.00  0.00    +0.000 A 
ATOM     15  C   UNL     1     112.180 126.586 136.422  0.00  0.00    +0.000 C 
ATOM     16  C   UNL     1     111.678 127.836 135.946  0.00  0.00    +0.000 A 
ATOM     17  C   UNL     1     111.007 128.323 135.718  0.00  0.00    +0.000 A 
ATOM     18  C   UNL     1     112.447 128.133 135.913  0.00  0.00    +0.000 A 
ATOM     19  C   UNL     1     112.949 126.882 136.388  0.00  0.00    +0.000 C 
ATOM     20  C   UNL     1     111.941 129.438 135.418  0.00  0.00    +0.000 A 
ATOM     21  C   UNL     1     113.082 127.655 136.134  0.00  0.00    +0.000 C 
ATOM     22  C   UNL     1     112.599 128.936 135.649  0.00  0.00    +0.000 A 
BRANCH  15  25
ATOM     23  O   UNL     1     111.226 124.762 138.405  0.00  0.00    +0.000 OA
ATOM     24  O   UNL     1     111.645 123.492 137.439  0.00  0.00    +0.000 OA
ATOM     25  C   UNL     1     112.046 125.812 136.676  0.00  0.00    +0.000 A 
ATOM     26  C   UNL     1     111.703 125.674 137.413  0.00  0.00    +0.000 A 
ATOM     27  C   UNL     1     112.256 125.177 136.193  0.00  0.00    +0.000 A 
ATOM     28  C   UNL     1     111.569 124.901 137.667  0.00  0.00    +0.000 A 
ATOM     29  C   UNL     1     112.122 124.404 136.448  0.00  0.00    +0.000 A 
ATOM     30  C   UNL     1     111.779 124.265 137.185  0.00  0.00    +0.000 A 
ENDBRANCH  15  25
ENDBRANCH  10  14
ENDBRANCH   9  10
BRANCH   7  31
ATOM     31  C   UNL     1     110.012 130.600 137.866  0.00  0.00    +0.000 C 
BRANCH  31  32
ATOM     32  O   UNL     1     110.818 130.548 138.036  0.00  0.00    +0.000 OA
BRANCH  32  34
ATOM     33  O   UNL     1     111.011 131.161 139.312  0.00  0.00    +0.000 OA
ATOM     34  C   UNL     1     111.073 130.502 138.819  0.00  0.00    +0.000 C 
BRANCH  34  35
ATOM     35  C   UNL     1     111.390 129.798 139.110  0.00  0.00    +0.000 C 
ATOM     36  C   UNL     1     112.201 129.733 139.242  0.00  0.00    +0.000 C 
BRANCH  36  38
ATOM     37  O   UNL     1     113.471 126.919 140.405  0.00  0.00    +0.000 OA
ATOM     38  C   UNL     1     112.518 129.029 139.533  0.00  0.00    +0.000 A 
ATOM     39  C   UNL     1     112.019 128.439 139.819  0.00  0.00    +0.000 A 
ATOM     40  C   UNL     1     113.335 128.916 139.537  0.00  0.00    +0.000 A 
ATOM     41  C   UNL     1     112.336 127.736 140.110  0.00  0.00    +0.000 A 
ATOM     42  C   UNL     1     113.653 128.213 139.828  0.00  0.00    +0.000 A 
ATOM     43  C   UNL     1     113.153 127.623 140.114  0.00  0.00    +0.000 A 
ENDBRANCH  36  38
ENDBRANCH  34  35
ENDBRANCH  32  34
ENDBRANCH  31  32
ENDBRANCH   7  31
TORSDOF 8
ENDMDL
