MODEL 1
REMARK VINA RESULT:     -10.3      0.000      0.000
REMARK  Name = 44259781
REMARK  7 active torsions:
REMARK  status: ('A' for Active; 'I' for Inactive)
REMARK    1  A    between atoms: O_3  and  C_27
REMARK    2  A    between atoms: O_3  and  C_31
REMARK    3  A    between atoms: O_4  and  C_28
REMARK    4  A    between atoms: O_4  and  C_32
REMARK    5  A    between atoms: C_24  and  C_29
REMARK    6  A    between atoms: C_26  and  C_30
REMARK    7  A    between atoms: C_36  and  C_40
REMARK                            x       y       z     vdW  Elec       q    Type
REMARK                         _______ _______ _______ _____ _____    ______ ____
ROOT
ATOM      1  O   UNL     1     111.805 128.172 138.273  0.00  0.00    +0.000 OA
ATOM      2  O   UNL     1     112.354 129.494 135.236  0.00  0.00    +0.000 OA
ATOM      3  O   UNL     1     113.597 127.251 136.834  0.00  0.00    +0.000 OA
ATOM      4  O   UNL     1     113.291 128.202 135.794  0.00  0.00    +0.000 OA
ATOM      5  C   UNL     1     112.863 127.234 138.060  0.00  0.00    +0.000 A 
ATOM      6  C   UNL     1     111.593 129.492 136.482  0.00  0.00    +0.000 A 
ATOM      7  C   UNL     1     112.539 128.188 137.047  0.00  0.00    +0.000 A 
ATOM      8  C   UNL     1     112.999 127.558 137.314  0.00  0.00    +0.000 A 
ATOM      9  C   UNL     1     111.942 128.495 137.526  0.00  0.00    +0.000 A 
ATOM     10  C   UNL     1     112.265 127.542 138.540  0.00  0.00    +0.000 A 
ATOM     11  C   UNL     1     111.455 129.152 137.259  0.00  0.00    +0.000 A 
ATOM     12  C   UNL     1     112.215 129.172 135.983  0.00  0.00    +0.000 A 
ATOM     13  C   UNL     1     112.691 128.516 136.267  0.00  0.00    +0.000 A 
ENDROOT
BRANCH  10  16
ATOM     14  O   UNL     1     110.658 125.959 140.294  0.00  0.00    +0.000 OA
ATOM     15  O   UNL     1     111.718 126.246 141.525  0.00  0.00    +0.000 OA
ATOM     16  C   UNL     1     112.129 127.218 139.286  0.00  0.00    +0.000 A 
ATOM     17  C   UNL     1     111.461 126.750 139.417  0.00  0.00    +0.000 A 
ATOM     18  C   UNL     1     112.660 127.362 139.902  0.00  0.00    +0.000 A 
ATOM     19  C   UNL     1     111.325 126.427 140.163  0.00  0.00    +0.000 A 
ATOM     20  C   UNL     1     112.522 127.037 140.648  0.00  0.00    +0.000 A 
ATOM     21  C   UNL     1     111.856 126.570 140.779  0.00  0.00    +0.000 A 
ENDBRANCH  10  16
BRANCH   5  22
ATOM     22  O   UNL     1     113.323 126.604 138.328  0.00  0.00    +0.000 OA
BRANCH  22  31
ATOM     23  O   UNL     1     112.680 125.631 137.503  0.00  0.00    +0.000 OA
ATOM     24  O   UNL     1     114.787 124.339 137.382  0.00  0.00    +0.000 OA
ATOM     25  O   UNL     1     113.441 123.797 136.598  0.00  0.00    +0.000 OA
ATOM     26  O   UNL     1     114.729 125.743 138.247  0.00  0.00    +0.000 OA
ATOM     27  C   UNL     1     114.085 124.770 137.422  0.00  0.00    +0.000 C 
ATOM     28  C   UNL     1     113.411 124.499 137.030  0.00  0.00    +0.000 C 
ATOM     29  C   UNL     1     114.055 125.472 137.855  0.00  0.00    +0.000 C 
ATOM     30  C   UNL     1     112.709 124.930 137.071  0.00  0.00    +0.000 C 
ATOM     31  C   UNL     1     113.353 125.903 137.895  0.00  0.00    +0.000 C 
BRANCH  30  33
ATOM     32  O   UNL     1     111.357 124.467 137.107  0.00  0.00    +0.000 OA
ATOM     33  C   UNL     1     112.036 124.658 136.679  0.00  0.00    +0.000 C 
ENDBRANCH  30  33
ENDBRANCH  22  31
ENDBRANCH   5  22
BRANCH   6  34
ATOM     34  O   UNL     1     111.131 130.123 136.218  0.00  0.00    +0.000 OA
BRANCH  34  43
ATOM     35  O   UNL     1     109.953 129.361 135.945  0.00  0.00    +0.000 OA
ATOM     36  O   UNL     1     108.554 131.250 136.719  0.00  0.00    +0.000 OA
ATOM     37  O   UNL     1     107.842 129.859 136.189  0.00  0.00    +0.000 OA
ATOM     38  O   UNL     1     110.198 131.382 136.733  0.00  0.00    +0.000 OA
ATOM     39  C   UNL     1     109.020 130.620 136.461  0.00  0.00    +0.000 C 
ATOM     40  C   UNL     1     108.664 129.925 136.196  0.00  0.00    +0.000 C 
ATOM     41  C   UNL     1     109.842 130.687 136.468  0.00  0.00    +0.000 C 
ATOM     42  C   UNL     1     109.131 129.295 135.938  0.00  0.00    +0.000 C 
ATOM     43  C   UNL     1     110.309 130.057 136.210  0.00  0.00    +0.000 C 
BRANCH  42  45
ATOM     44  O   UNL     1     109.121 128.165 135.063  0.00  0.00    +0.000 OA
ATOM     45  C   UNL     1     108.775 128.599 135.673  0.00  0.00    +0.000 C 
ENDBRANCH  42  45
ENDBRANCH  34  43
ENDBRANCH   6  34
TORSDOF 7
ENDMDL
MODEL 2
REMARK VINA RESULT:     -10.2      1.450      3.466
REMARK  Name = 44259781
REMARK  7 active torsions:
REMARK  status: ('A' for Active; 'I' for Inactive)
REMARK    1  A    between atoms: O_3  and  C_27
REMARK    2  A    between atoms: O_3  and  C_31
REMARK    3  A    between atoms: O_4  and  C_28
REMARK    4  A    between atoms: O_4  and  C_32
REMARK    5  A    between atoms: C_24  and  C_29
REMARK    6  A    between atoms: C_26  and  C_30
REMARK    7  A    between atoms: C_36  and  C_40
REMARK                            x       y       z     vdW  Elec       q    Type
REMARK                         _______ _______ _______ _____ _____    ______ ____
ROOT
ATOM      1  O   UNL     1     111.710 129.183 135.886  0.00  0.00    +0.000 OA
ATOM      2  O   UNL     1     108.725 127.739 136.410  0.00  0.00    +0.000 OA
ATOM      3  O   UNL     1     111.596 126.811 136.588  0.00  0.00    +0.000 OA
ATOM      4  O   UNL     1     110.154 126.861 136.621  0.00  0.00    +0.000 OA
ATOM      5  C   UNL     1     112.366 127.959 136.224  0.00  0.00    +0.000 A 
ATOM      6  C   UNL     1     109.496 128.921 136.036  0.00  0.00    +0.000 A 
ATOM      7  C   UNL     1     110.939 128.035 136.249  0.00  0.00    +0.000 A 
ATOM      8  C   UNL     1     111.633 127.602 136.354  0.00  0.00    +0.000 A 
ATOM      9  C   UNL     1     110.977 128.825 136.015  0.00  0.00    +0.000 A 
ATOM     10  C   UNL     1     112.404 128.749 135.990  0.00  0.00    +0.000 A 
ATOM     11  C   UNL     1     110.261 129.288 135.903  0.00  0.00    +0.000 A 
ATOM     12  C   UNL     1     109.456 128.098 136.280  0.00  0.00    +0.000 A 
ATOM     13  C   UNL     1     110.182 127.652 136.387  0.00  0.00    +0.000 A 
ENDROOT
BRANCH  10  16
ATOM     14  O   UNL     1     114.461 130.549 136.824  0.00  0.00    +0.000 OA
ATOM     15  O   UNL     1     115.335 130.176 135.475  0.00  0.00    +0.000 OA
ATOM     16  C   UNL     1     113.137 129.106 135.861  0.00  0.00    +0.000 A 
ATOM     17  C   UNL     1     113.433 129.649 136.407  0.00  0.00    +0.000 A 
ATOM     18  C   UNL     1     113.573 128.919 135.186  0.00  0.00    +0.000 A 
ATOM     19  C   UNL     1     114.165 130.006 136.278  0.00  0.00    +0.000 A 
ATOM     20  C   UNL     1     114.306 129.277 135.058  0.00  0.00    +0.000 A 
ATOM     21  C   UNL     1     114.602 129.819 135.603  0.00  0.00    +0.000 A 
ENDBRANCH  10  16
BRANCH   5  22
ATOM     22  O   UNL     1     113.060 127.525 136.329  0.00  0.00    +0.000 OA
BRANCH  22  31
ATOM     23  O   UNL     1     113.008 127.559 137.756  0.00  0.00    +0.000 OA
ATOM     24  O   UNL     1     114.138 125.359 137.850  0.00  0.00    +0.000 OA
ATOM     25  O   UNL     1     113.708 126.125 139.245  0.00  0.00    +0.000 OA
ATOM     26  O   UNL     1     113.814 126.059 136.391  0.00  0.00    +0.000 OA
ATOM     27  C   UNL     1     113.761 126.092 137.819  0.00  0.00    +0.000 C 
ATOM     28  C   UNL     1     113.546 126.476 138.516  0.00  0.00    +0.000 C 
ATOM     29  C   UNL     1     113.599 126.443 137.089  0.00  0.00    +0.000 C 
ATOM     30  C   UNL     1     113.169 127.209 138.485  0.00  0.00    +0.000 C 
ATOM     31  C   UNL     1     113.222 127.176 137.058  0.00  0.00    +0.000 C 
BRANCH  30  33
ATOM     32  O   UNL     1     113.280 128.328 139.368  0.00  0.00    +0.000 OA
ATOM     33  C   UNL     1     112.955 127.592 139.183  0.00  0.00    +0.000 C 
ENDBRANCH  30  33
ENDBRANCH  22  31
ENDBRANCH   5  22
BRANCH   6  34
ATOM     34  O   UNL     1     108.803 129.357 135.931  0.00  0.00    +0.000 OA
BRANCH  34  43
ATOM     35  O   UNL     1     108.858 130.133 137.130  0.00  0.00    +0.000 OA
ATOM     36  O   UNL     1     108.111 132.128 135.871  0.00  0.00    +0.000 OA
ATOM     37  O   UNL     1     108.414 132.240 137.489  0.00  0.00    +0.000 OA
ATOM     38  O   UNL     1     108.305 130.688 135.092  0.00  0.00    +0.000 OA
ATOM     39  C   UNL     1     108.360 131.463 136.291  0.00  0.00    +0.000 C 
ATOM     40  C   UNL     1     108.512 131.519 137.100  0.00  0.00    +0.000 C 
ATOM     41  C   UNL     1     108.457 130.743 135.901  0.00  0.00    +0.000 C 
ATOM     42  C   UNL     1     108.761 130.853 137.519  0.00  0.00    +0.000 C 
ATOM     43  C   UNL     1     108.706 130.078 136.320  0.00  0.00    +0.000 C 
BRANCH  42  45
ATOM     44  O   UNL     1     108.598 130.349 138.847  0.00  0.00    +0.000 OA
ATOM     45  C   UNL     1     108.912 130.909 138.328  0.00  0.00    +0.000 C 
ENDBRANCH  42  45
ENDBRANCH  34  43
ENDBRANCH   6  34
TORSDOF 7
ENDMDL
MODEL 3
REMARK VINA RESULT:     -10.2      2.131      4.746
REMARK  Name = 44259781
REMARK  7 active torsions:
REMARK  status: ('A' for Active; 'I' for Inactive)
REMARK    1  A    between atoms: O_3  and  C_27
REMARK    2  A    between atoms: O_3  and  C_31
REMARK    3  A    between atoms: O_4  and  C_28
REMARK    4  A    between atoms: O_4  and  C_32
REMARK    5  A    between atoms: C_24  and  C_29
REMARK    6  A    between atoms: C_26  and  C_30
REMARK    7  A    between atoms: C_36  and  C_40
REMARK                            x       y       z     vdW  Elec       q    Type
REMARK                         _______ _______ _______ _____ _____    ______ ____
ROOT
ATOM      1  O   UNL     1     113.011 128.330 138.189  0.00  0.00    +0.000 OA
ATOM      2  O   UNL     1     113.495 126.990 141.228  0.00  0.00    +0.000 OA
ATOM      3  O   UNL     1     112.216 126.034 138.663  0.00  0.00    +0.000 OA
ATOM      4  O   UNL     1     112.712 126.111 140.016  0.00  0.00    +0.000 OA
ATOM      5  C   UNL     1     112.363 127.131 137.758  0.00  0.00    +0.000 A 
ATOM      6  C   UNL     1     113.654 128.121 140.318  0.00  0.00    +0.000 A 
ATOM      7  C   UNL     1     112.864 127.234 139.093  0.00  0.00    +0.000 A 
ATOM      8  C   UNL     1     112.481 126.800 138.505  0.00  0.00    +0.000 A 
ATOM      9  C   UNL     1     113.129 127.998 138.935  0.00  0.00    +0.000 A 
ATOM     10  C   UNL     1     112.629 127.897 137.600  0.00  0.00    +0.000 A 
ATOM     11  C   UNL     1     113.529 128.461 139.539  0.00  0.00    +0.000 A 
ATOM     12  C   UNL     1     113.378 127.324 140.483  0.00  0.00    +0.000 A 
ATOM     13  C   UNL     1     112.980 126.877 139.866  0.00  0.00    +0.000 A 
ENDROOT
BRANCH  10  16
ATOM     14  O   UNL     1     113.670 128.744 135.077  0.00  0.00    +0.000 OA
ATOM     15  O   UNL     1     112.159 129.220 134.614  0.00  0.00    +0.000 OA
ATOM     16  C   UNL     1     112.511 128.228 136.854  0.00  0.00    +0.000 A 
ATOM     17  C   UNL     1     113.149 128.320 136.339  0.00  0.00    +0.000 A 
ATOM     18  C   UNL     1     111.756 128.466 136.623  0.00  0.00    +0.000 A 
ATOM     19  C   UNL     1     113.031 128.651 135.592  0.00  0.00    +0.000 A 
ATOM     20  C   UNL     1     111.639 128.797 135.876  0.00  0.00    +0.000 A 
ATOM     21  C   UNL     1     112.276 128.889 135.361  0.00  0.00    +0.000 A 
ENDBRANCH  10  16
BRANCH   5  22
ATOM     22  O   UNL     1     111.980 126.697 137.170  0.00  0.00    +0.000 OA
BRANCH  22  31
ATOM     23  O   UNL     1     113.096 125.842 136.916  0.00  0.00    +0.000 OA
ATOM     24  O   UNL     1     111.551 124.019 136.272  0.00  0.00    +0.000 OA
ATOM     25  O   UNL     1     113.181 123.771 136.232  0.00  0.00    +0.000 OA
ATOM     26  O   UNL     1     110.950 125.482 136.741  0.00  0.00    +0.000 OA
ATOM     27  C   UNL     1     112.066 124.626 136.487  0.00  0.00    +0.000 C 
ATOM     28  C   UNL     1     112.882 124.503 136.467  0.00  0.00    +0.000 C 
ATOM     29  C   UNL     1     111.766 125.359 136.721  0.00  0.00    +0.000 C 
ATOM     30  C   UNL     1     113.397 125.111 136.682  0.00  0.00    +0.000 C 
ATOM     31  C   UNL     1     112.281 125.966 136.936  0.00  0.00    +0.000 C 
BRANCH  30  33
ATOM     32  O   UNL     1     114.688 125.451 136.175  0.00  0.00    +0.000 OA
ATOM     33  C   UNL     1     114.211 124.986 136.662  0.00  0.00    +0.000 C 
ENDBRANCH  30  33
ENDBRANCH  22  31
ENDBRANCH   5  22
BRANCH   6  34
ATOM     34  O   UNL     1     114.038 128.557 140.905  0.00  0.00    +0.000 OA
BRANCH  34  43
ATOM     35  O   UNL     1     112.952 129.308 141.452  0.00  0.00    +0.000 OA
ATOM     36  O   UNL     1     114.314 131.371 141.320  0.00  0.00    +0.000 OA
ATOM     37  O   UNL     1     112.775 131.435 141.911  0.00  0.00    +0.000 OA
ATOM     38  O   UNL     1     114.946 129.932 140.817  0.00  0.00    +0.000 OA
ATOM     39  C   UNL     1     113.860 130.683 141.364  0.00  0.00    +0.000 C 
ATOM     40  C   UNL     1     113.091 130.715 141.659  0.00  0.00    +0.000 C 
ATOM     41  C   UNL     1     114.176 129.964 141.112  0.00  0.00    +0.000 C 
ATOM     42  C   UNL     1     112.637 130.028 141.704  0.00  0.00    +0.000 C 
ATOM     43  C   UNL     1     113.722 129.277 141.156  0.00  0.00    +0.000 C 
BRANCH  42  45
ATOM     44  O   UNL     1     111.610 129.496 142.544  0.00  0.00    +0.000 OA
ATOM     45  C   UNL     1     111.867 130.060 141.999  0.00  0.00    +0.000 C 
ENDBRANCH  42  45
ENDBRANCH  34  43
ENDBRANCH   6  34
TORSDOF 7
ENDMDL
MODEL 4
REMARK VINA RESULT:     -10.0      1.920      5.604
REMARK  Name = 44259781
REMARK  7 active torsions:
REMARK  status: ('A' for Active; 'I' for Inactive)
REMARK    1  A    between atoms: O_3  and  C_27
REMARK    2  A    between atoms: O_3  and  C_31
REMARK    3  A    between atoms: O_4  and  C_28
REMARK    4  A    between atoms: O_4  and  C_32
REMARK    5  A    between atoms: C_24  and  C_29
REMARK    6  A    between atoms: C_26  and  C_30
REMARK    7  A    between atoms: C_36  and  C_40
REMARK                            x       y       z     vdW  Elec       q    Type
REMARK                         _______ _______ _______ _____ _____    ______ ____
ROOT
ATOM      1  O   UNL     1     112.022 128.533 137.431  0.00  0.00    +0.000 OA
ATOM      2  O   UNL     1     109.222 127.103 138.604  0.00  0.00    +0.000 OA
ATOM      3  O   UNL     1     110.097 129.947 138.081  0.00  0.00    +0.000 OA
ATOM      4  O   UNL     1     109.330 128.782 138.452  0.00  0.00    +0.000 OA
ATOM      5  C   UNL     1     111.428 129.825 137.576  0.00  0.00    +0.000 A 
ATOM      6  C   UNL     1     110.581 126.958 138.090  0.00  0.00    +0.000 A 
ATOM      7  C   UNL     1     110.691 128.655 137.936  0.00  0.00    +0.000 A 
ATOM      8  C   UNL     1     110.739 129.475 137.864  0.00  0.00    +0.000 A 
ATOM      9  C   UNL     1     111.333 128.184 137.720  0.00  0.00    +0.000 A 
ATOM     10  C   UNL     1     112.070 129.354 137.359  0.00  0.00    +0.000 A 
ATOM     11  C   UNL     1     111.296 127.328 137.790  0.00  0.00    +0.000 A 
ATOM     12  C   UNL     1     109.912 127.449 138.315  0.00  0.00    +0.000 A 
ATOM     13  C   UNL     1     109.968 128.303 138.238  0.00  0.00    +0.000 A 
ENDROOT
BRANCH  10  16
ATOM     14  O   UNL     1     113.814 129.950 135.175  0.00  0.00    +0.000 OA
ATOM     15  O   UNL     1     114.826 130.753 136.202  0.00  0.00    +0.000 OA
ATOM     16  C   UNL     1     112.759 129.704 137.070  0.00  0.00    +0.000 A 
ATOM     17  C   UNL     1     112.942 129.652 136.267  0.00  0.00    +0.000 A 
ATOM     18  C   UNL     1     113.265 130.105 137.584  0.00  0.00    +0.000 A 
ATOM     19  C   UNL     1     113.631 130.002 135.978  0.00  0.00    +0.000 A 
ATOM     20  C   UNL     1     113.954 130.454 137.294  0.00  0.00    +0.000 A 
ATOM     21  C   UNL     1     114.137 130.403 136.492  0.00  0.00    +0.000 A 
ENDBRANCH  10  16
BRANCH   5  22
ATOM     22  O   UNL     1     111.476 130.646 137.503  0.00  0.00    +0.000 OA
BRANCH  22  31
ATOM     23  O   UNL     1     110.592 130.693 136.382  0.00  0.00    +0.000 OA
ATOM     24  O   UNL     1     109.921 132.992 137.007  0.00  0.00    +0.000 OA
ATOM     25  O   UNL     1     109.261 132.273 135.678  0.00  0.00    +0.000 OA
ATOM     26  O   UNL     1     111.028 132.178 137.921  0.00  0.00    +0.000 OA
ATOM     27  C   UNL     1     110.144 132.226 136.799  0.00  0.00    +0.000 C 
ATOM     28  C   UNL     1     109.815 131.866 136.134  0.00  0.00    +0.000 C 
ATOM     29  C   UNL     1     110.699 131.818 137.256  0.00  0.00    +0.000 C 
ATOM     30  C   UNL     1     110.038 131.099 135.925  0.00  0.00    +0.000 C 
ATOM     31  C   UNL     1     110.922 131.052 137.047  0.00  0.00    +0.000 C 
BRANCH  30  33
ATOM     32  O   UNL     1     110.198 130.432 134.672  0.00  0.00    +0.000 OA
ATOM     33  C   UNL     1     109.709 130.741 135.260  0.00  0.00    +0.000 C 
ENDBRANCH  30  33
ENDBRANCH  22  31
ENDBRANCH   5  22
BRANCH   6  34
ATOM     34  O   UNL     1     110.536 126.138 138.161  0.00  0.00    +0.000 OA
BRANCH  34  43
ATOM     35  O   UNL     1     110.528 125.797 136.773  0.00  0.00    +0.000 OA
ATOM     36  O   UNL     1     112.085 123.927 137.225  0.00  0.00    +0.000 OA
ATOM     37  O   UNL     1     111.560 124.209 135.687  0.00  0.00    +0.000 OA
ATOM     38  O   UNL     1     111.573 124.891 138.462  0.00  0.00    +0.000 OA
ATOM     39  C   UNL     1     111.566 124.550 137.075  0.00  0.00    +0.000 C 
ATOM     40  C   UNL     1     111.304 124.692 136.305  0.00  0.00    +0.000 C 
ATOM     41  C   UNL     1     111.311 125.032 137.693  0.00  0.00    +0.000 C 
ATOM     42  C   UNL     1     110.785 125.315 136.155  0.00  0.00    +0.000 C 
ATOM     43  C   UNL     1     110.792 125.655 137.543  0.00  0.00    +0.000 C 
BRANCH  42  45
ATOM     44  O   UNL     1     109.741 125.687 135.252  0.00  0.00    +0.000 OA
ATOM     45  C   UNL     1     110.522 125.456 135.385  0.00  0.00    +0.000 C 
ENDBRANCH  42  45
ENDBRANCH  34  43
ENDBRANCH   6  34
TORSDOF 7
ENDMDL
MODEL 5
REMARK VINA RESULT:      -9.9      1.806      5.881
REMARK  Name = 44259781
REMARK  7 active torsions:
REMARK  status: ('A' for Active; 'I' for Inactive)
REMARK    1  A    between atoms: O_3  and  C_27
REMARK    2  A    between atoms: O_3  and  C_31
REMARK    3  A    between atoms: O_4  and  C_28
REMARK    4  A    between atoms: O_4  and  C_32
REMARK    5  A    between atoms: C_24  and  C_29
REMARK    6  A    between atoms: C_26  and  C_30
REMARK    7  A    between atoms: C_36  and  C_40
REMARK                            x       y       z     vdW  Elec       q    Type
REMARK                         _______ _______ _______ _____ _____    ______ ____
ROOT
ATOM      1  O   UNL     1     110.774 127.908 137.432  0.00  0.00    +0.000 OA
ATOM      2  O   UNL     1     112.551 126.513 139.915  0.00  0.00    +0.000 OA
ATOM      3  O   UNL     1     111.654 129.324 139.262  0.00  0.00    +0.000 OA
ATOM      4  O   UNL     1     112.251 128.177 139.902  0.00  0.00    +0.000 OA
ATOM      5  C   UNL     1     110.924 129.193 138.041  0.00  0.00    +0.000 A 
ATOM      6  C   UNL     1     111.809 126.360 138.667  0.00  0.00    +0.000 A 
ATOM      7  C   UNL     1     111.504 128.039 138.653  0.00  0.00    +0.000 A 
ATOM      8  C   UNL     1     111.361 128.852 138.652  0.00  0.00    +0.000 A 
ATOM      9  C   UNL     1     111.211 127.568 138.044  0.00  0.00    +0.000 A 
ATOM     10  C   UNL     1     110.630 128.720 137.431  0.00  0.00    +0.000 A 
ATOM     11  C   UNL     1     111.354 126.720 138.033  0.00  0.00    +0.000 A 
ATOM     12  C   UNL     1     112.114 126.851 139.302  0.00  0.00    +0.000 A 
ATOM     13  C   UNL     1     111.961 127.697 139.296  0.00  0.00    +0.000 A 
ENDROOT
BRANCH  10  16
ATOM     14  O   UNL     1     108.127 129.146 136.118  0.00  0.00    +0.000 OA
ATOM     15  O   UNL     1     108.880 130.084 134.988  0.00  0.00    +0.000 OA
ATOM     16  C   UNL     1     110.193 129.061 136.820  0.00  0.00    +0.000 A 
ATOM     17  C   UNL     1     109.379 128.933 136.774  0.00  0.00    +0.000 A 
ATOM     18  C   UNL     1     110.569 129.530 136.255  0.00  0.00    +0.000 A 
ATOM     19  C   UNL     1     108.942 129.274 136.164  0.00  0.00    +0.000 A 
ATOM     20  C   UNL     1     110.131 129.871 135.644  0.00  0.00    +0.000 A 
ATOM     21  C   UNL     1     109.318 129.743 135.598  0.00  0.00    +0.000 A 
ENDBRANCH  10  16
BRANCH   5  22
ATOM     22  O   UNL     1     110.780 130.005 138.040  0.00  0.00    +0.000 OA
BRANCH  22  31
ATOM     23  O   UNL     1     109.825 129.937 139.100  0.00  0.00    +0.000 OA
ATOM     24  O   UNL     1     110.391 132.254 139.759  0.00  0.00    +0.000 OA
ATOM     25  O   UNL     1     109.248 131.414 140.599  0.00  0.00    +0.000 OA
ATOM     26  O   UNL     1     111.157 131.550 138.479  0.00  0.00    +0.000 OA
ATOM     27  C   UNL     1     110.202 131.482 139.540  0.00  0.00    +0.000 C 
ATOM     28  C   UNL     1     109.630 131.061 139.960  0.00  0.00    +0.000 C 
ATOM     29  C   UNL     1     110.586 131.129 138.899  0.00  0.00    +0.000 C 
ATOM     30  C   UNL     1     109.442 130.288 139.740  0.00  0.00    +0.000 C 
ATOM     31  C   UNL     1     110.397 130.357 138.679  0.00  0.00    +0.000 C 
BRANCH  30  33
ATOM     32  O   UNL     1     108.159 129.661 139.797  0.00  0.00    +0.000 OA
ATOM     33  C   UNL     1     108.870 129.869 140.160  0.00  0.00    +0.000 C 
ENDBRANCH  30  33
ENDBRANCH  22  31
ENDBRANCH   5  22
BRANCH   6  34
ATOM     34  O   UNL     1     111.951 125.547 138.666  0.00  0.00    +0.000 OA
BRANCH  34  43
ATOM     35  O   UNL     1     113.029 125.474 137.731  0.00  0.00    +0.000 OA
ATOM     36  O   UNL     1     111.929 123.560 136.613  0.00  0.00    +0.000 OA
ATOM     37  O   UNL     1     113.373 124.125 136.050  0.00  0.00    +0.000 OA
ATOM     38  O   UNL     1     111.217 124.271 137.920  0.00  0.00    +0.000 OA
ATOM     39  C   UNL     1     112.296 124.198 136.985  0.00  0.00    +0.000 C 
ATOM     40  C   UNL     1     113.018 124.481 136.704  0.00  0.00    +0.000 C 
ATOM     41  C   UNL     1     111.940 124.553 137.639  0.00  0.00    +0.000 C 
ATOM     42  C   UNL     1     113.385 125.119 137.077  0.00  0.00    +0.000 C 
ATOM     43  C   UNL     1     112.306 125.191 138.012  0.00  0.00    +0.000 C 
BRANCH  42  45
ATOM     44  O   UNL     1     114.738 125.509 137.316  0.00  0.00    +0.000 OA
ATOM     45  C   UNL     1     114.107 125.401 136.796  0.00  0.00    +0.000 C 
ENDBRANCH  42  45
ENDBRANCH  34  43
ENDBRANCH   6  34
TORSDOF 7
ENDMDL
MODEL 6
REMARK VINA RESULT:      -9.8      2.050      4.048
REMARK  Name = 44259781
REMARK  7 active torsions:
REMARK  status: ('A' for Active; 'I' for Inactive)
REMARK    1  A    between atoms: O_3  and  C_27
REMARK    2  A    between atoms: O_3  and  C_31
REMARK    3  A    between atoms: O_4  and  C_28
REMARK    4  A    between atoms: O_4  and  C_32
REMARK    5  A    between atoms: C_24  and  C_29
REMARK    6  A    between atoms: C_26  and  C_30
REMARK    7  A    between atoms: C_36  and  C_40
REMARK                            x       y       z     vdW  Elec       q    Type
REMARK                         _______ _______ _______ _____ _____    ______ ____
ROOT
ATOM      1  O   UNL     1     111.330 128.927 137.138  0.00  0.00    +0.000 OA
ATOM      2  O   UNL     1     108.741 129.783 139.095  0.00  0.00    +0.000 OA
ATOM      3  O   UNL     1     111.436 128.503 139.575  0.00  0.00    +0.000 OA
ATOM      4  O   UNL     1     110.119 129.064 139.759  0.00  0.00    +0.000 OA
ATOM      5  C   UNL     1     112.036 128.435 138.280  0.00  0.00    +0.000 A 
ATOM      6  C   UNL     1     109.338 129.722 137.764  0.00  0.00    +0.000 A 
ATOM      7  C   UNL     1     110.730 128.995 138.433  0.00  0.00    +0.000 A 
ATOM      8  C   UNL     1     111.401 128.645 138.762  0.00  0.00    +0.000 A 
ATOM      9  C   UNL     1     110.695 129.136 137.622  0.00  0.00    +0.000 A 
ATOM     10  C   UNL     1     112.001 128.576 137.467  0.00  0.00    +0.000 A 
ATOM     11  C   UNL     1     110.002 129.501 137.266  0.00  0.00    +0.000 A 
ATOM     12  C   UNL     1     109.375 129.574 138.610  0.00  0.00    +0.000 A 
ATOM     13  C   UNL     1     110.075 129.209 138.947  0.00  0.00    +0.000 A 
ENDROOT
BRANCH  10  16
ATOM     14  O   UNL     1     114.239 129.330 135.857  0.00  0.00    +0.000 OA
ATOM     15  O   UNL     1     114.543 127.740 135.537  0.00  0.00    +0.000 OA
ATOM     16  C   UNL     1     112.636 128.367 136.985  0.00  0.00    +0.000 A 
ATOM     17  C   UNL     1     113.120 128.953 136.662  0.00  0.00    +0.000 A 
ATOM     18  C   UNL     1     112.788 127.572 136.824  0.00  0.00    +0.000 A 
ATOM     19  C   UNL     1     113.755 128.743 136.180  0.00  0.00    +0.000 A 
ATOM     20  C   UNL     1     113.424 127.363 136.342  0.00  0.00    +0.000 A 
ATOM     21  C   UNL     1     113.907 127.949 136.020  0.00  0.00    +0.000 A 
ENDBRANCH  10  16
BRANCH   5  22
ATOM     22  O   UNL     1     112.706 128.084 138.609  0.00  0.00    +0.000 OA
BRANCH  22  31
ATOM     23  O   UNL     1     113.211 129.297 139.173  0.00  0.00    +0.000 OA
ATOM     24  O   UNL     1     114.236 128.011 141.022  0.00  0.00    +0.000 OA
ATOM     25  O   UNL     1     114.398 129.651 140.968  0.00  0.00    +0.000 OA
ATOM     26  O   UNL     1     113.390 127.227 139.842  0.00  0.00    +0.000 OA
ATOM     27  C   UNL     1     113.894 128.439 140.405  0.00  0.00    +0.000 C 
ATOM     28  C   UNL     1     113.975 129.260 140.378  0.00  0.00    +0.000 C 
ATOM     29  C   UNL     1     113.471 128.047 139.815  0.00  0.00    +0.000 C 
ATOM     30  C   UNL     1     113.633 129.688 139.762  0.00  0.00    +0.000 C 
ATOM     31  C   UNL     1     113.129 128.476 139.198  0.00  0.00    +0.000 C 
BRANCH  30  33
ATOM     32  O   UNL     1     114.099 130.866 139.099  0.00  0.00    +0.000 OA
ATOM     33  C   UNL     1     113.714 130.508 139.736  0.00  0.00    +0.000 C 
ENDBRANCH  30  33
ENDBRANCH  22  31
ENDBRANCH   5  22
BRANCH   6  34
ATOM     34  O   UNL     1     108.669 130.072 137.432  0.00  0.00    +0.000 OA
BRANCH  34  43
ATOM     35  O   UNL     1     109.227 131.350 137.120  0.00  0.00    +0.000 OA
ATOM     36  O   UNL     1     108.046 131.332 134.945  0.00  0.00    +0.000 OA
ATOM     37  O   UNL     1     108.997 132.616 135.356  0.00  0.00    +0.000 OA
ATOM     38  O   UNL     1     107.881 130.060 135.982  0.00  0.00    +0.000 OA
ATOM     39  C   UNL     1     108.439 131.338 135.670  0.00  0.00    +0.000 C 
ATOM     40  C   UNL     1     108.915 131.980 135.875  0.00  0.00    +0.000 C 
ATOM     41  C   UNL     1     108.357 130.702 136.188  0.00  0.00    +0.000 C 
ATOM     42  C   UNL     1     109.309 131.986 136.600  0.00  0.00    +0.000 C 
ATOM     43  C   UNL     1     108.751 130.708 136.913  0.00  0.00    +0.000 C 
BRANCH  42  45
ATOM     44  O   UNL     1     109.807 132.890 137.588  0.00  0.00    +0.000 OA
ATOM     45  C   UNL     1     109.784 132.628 136.806  0.00  0.00    +0.000 C 
ENDBRANCH  42  45
ENDBRANCH  34  43
ENDBRANCH   6  34
TORSDOF 7
ENDMDL
MODEL 7
REMARK VINA RESULT:      -9.7      1.641      4.811
REMARK  Name = 44259781
REMARK  7 active torsions:
REMARK  status: ('A' for Active; 'I' for Inactive)
REMARK    1  A    between atoms: O_3  and  C_27
REMARK    2  A    between atoms: O_3  and  C_31
REMARK    3  A    between atoms: O_4  and  C_28
REMARK    4  A    between atoms: O_4  and  C_32
REMARK    5  A    between atoms: C_24  and  C_29
REMARK    6  A    between atoms: C_26  and  C_30
REMARK    7  A    between atoms: C_36  and  C_40
REMARK                            x       y       z     vdW  Elec       q    Type
REMARK                         _______ _______ _______ _____ _____    ______ ____
ROOT
ATOM      1  O   UNL     1     112.561 127.413 139.178  0.00  0.00    +0.000 OA
ATOM      2  O   UNL     1     113.549 127.838 135.998  0.00  0.00    +0.000 OA
ATOM      3  O   UNL     1     112.444 129.658 138.142  0.00  0.00    +0.000 OA
ATOM      4  O   UNL     1     112.971 129.145 136.901  0.00  0.00    +0.000 OA
ATOM      5  C   UNL     1     112.241 128.803 139.268  0.00  0.00    +0.000 A 
ATOM      6  C   UNL     1     113.348 126.949 137.139  0.00  0.00    +0.000 A 
ATOM      7  C   UNL     1     112.764 128.268 138.051  0.00  0.00    +0.000 A 
ATOM      8  C   UNL     1     112.483 128.910 138.487  0.00  0.00    +0.000 A 
ATOM      9  C   UNL     1     112.803 127.521 138.396  0.00  0.00    +0.000 A 
ATOM     10  C   UNL     1     112.280 128.055 139.614  0.00  0.00    +0.000 A 
ATOM     11  C   UNL     1     113.094 126.844 137.953  0.00  0.00    +0.000 A 
ATOM     12  C   UNL     1     113.307 127.728 136.779  0.00  0.00    +0.000 A 
ATOM     13  C   UNL     1     113.014 128.393 137.238  0.00  0.00    +0.000 A 
ENDROOT
BRANCH  10  16
ATOM     14  O   UNL     1     110.376 127.063 141.501  0.00  0.00    +0.000 OA
ATOM     15  O   UNL     1     111.308 127.629 142.739  0.00  0.00    +0.000 OA
ATOM     16  C   UNL     1     112.038 127.948 140.395  0.00  0.00    +0.000 A 
ATOM     17  C   UNL     1     111.328 127.559 140.557  0.00  0.00    +0.000 A 
ATOM     18  C   UNL     1     112.504 128.231 141.014  0.00  0.00    +0.000 A 
ATOM     19  C   UNL     1     111.085 127.453 141.339  0.00  0.00    +0.000 A 
ATOM     20  C   UNL     1     112.260 128.124 141.796  0.00  0.00    +0.000 A 
ATOM     21  C   UNL     1     111.552 127.736 141.958  0.00  0.00    +0.000 A 
ENDBRANCH  10  16
BRANCH   5  22
ATOM     22  O   UNL     1     111.960 129.445 139.704  0.00  0.00    +0.000 OA
BRANCH  22  31
ATOM     23  O   UNL     1     110.700 129.482 139.030  0.00  0.00    +0.000 OA
ATOM     24  O   UNL     1     110.542 131.914 139.457  0.00  0.00    +0.000 OA
ATOM     25  O   UNL     1     109.337 131.140 138.640  0.00  0.00    +0.000 OA
ATOM     26  O   UNL     1     111.854 131.067 139.989  0.00  0.00    +0.000 OA
ATOM     27  C   UNL     1     110.595 131.103 139.314  0.00  0.00    +0.000 C 
ATOM     28  C   UNL     1     109.992 130.716 138.906  0.00  0.00    +0.000 C 
ATOM     29  C   UNL     1     111.251 130.679 139.581  0.00  0.00    +0.000 C 
ATOM     30  C   UNL     1     110.045 129.905 138.764  0.00  0.00    +0.000 C 
ATOM     31  C   UNL     1     111.304 129.868 139.438  0.00  0.00    +0.000 C 
BRANCH  30  33
ATOM     32  O   UNL     1     109.032 128.898 138.714  0.00  0.00    +0.000 OA
ATOM     33  C   UNL     1     109.442 129.518 138.356  0.00  0.00    +0.000 C 
ENDBRANCH  30  33
ENDBRANCH  22  31
ENDBRANCH   5  22
BRANCH   6  34
ATOM     34  O   UNL     1     113.629 126.306 136.705  0.00  0.00    +0.000 OA
BRANCH  34  43
ATOM     35  O   UNL     1     112.398 125.654 136.383  0.00  0.00    +0.000 OA
ATOM     36  O   UNL     1     113.386 123.476 137.020  0.00  0.00    +0.000 OA
ATOM     37  O   UNL     1     111.827 123.550 136.486  0.00  0.00    +0.000 OA
ATOM     38  O   UNL     1     114.287 124.853 137.130  0.00  0.00    +0.000 OA
ATOM     39  C   UNL     1     113.057 124.202 136.808  0.00  0.00    +0.000 C 
ATOM     40  C   UNL     1     112.277 124.239 136.541  0.00  0.00    +0.000 C 
ATOM     41  C   UNL     1     113.508 124.890 136.863  0.00  0.00    +0.000 C 
ATOM     42  C   UNL     1     111.948 124.965 136.329  0.00  0.00    +0.000 C 
ATOM     43  C   UNL     1     113.178 125.616 136.651  0.00  0.00    +0.000 C 
BRANCH  42  45
ATOM     44  O   UNL     1     110.977 125.469 135.409  0.00  0.00    +0.000 OA
ATOM     45  C   UNL     1     111.168 125.002 136.062  0.00  0.00    +0.000 C 
ENDBRANCH  42  45
ENDBRANCH  34  43
ENDBRANCH   6  34
TORSDOF 7
ENDMDL
MODEL 8
REMARK VINA RESULT:      -9.6      2.054      3.844
REMARK  Name = 44259781
REMARK  7 active torsions:
REMARK  status: ('A' for Active; 'I' for Inactive)
REMARK    1  A    between atoms: O_3  and  C_27
REMARK    2  A    between atoms: O_3  and  C_31
REMARK    3  A    between atoms: O_4  and  C_28
REMARK    4  A    between atoms: O_4  and  C_32
REMARK    5  A    between atoms: C_24  and  C_29
REMARK    6  A    between atoms: C_26  and  C_30
REMARK    7  A    between atoms: C_36  and  C_40
REMARK                            x       y       z     vdW  Elec       q    Type
REMARK                         _______ _______ _______ _____ _____    ______ ____
ROOT
ATOM      1  O   UNL     1     111.544 128.284 137.869  0.00  0.00    +0.000 OA
ATOM      2  O   UNL     1     109.951 127.052 140.554  0.00  0.00    +0.000 OA
ATOM      3  O   UNL     1     112.072 126.003 138.674  0.00  0.00    +0.000 OA
ATOM      4  O   UNL     1     111.112 126.128 139.745  0.00  0.00    +0.000 OA
ATOM      5  C   UNL     1     112.286 127.068 137.746  0.00  0.00    +0.000 A 
ATOM      6  C   UNL     1     110.157 128.151 139.616  0.00  0.00    +0.000 A 
ATOM      7  C   UNL     1     111.330 127.219 138.797  0.00  0.00    +0.000 A 
ATOM      8  C   UNL     1     111.896 126.764 138.406  0.00  0.00    +0.000 A 
ATOM      9  C   UNL     1     111.154 127.979 138.529  0.00  0.00    +0.000 A 
ATOM     10  C   UNL     1     112.110 127.829 137.478  0.00  0.00    +0.000 A 
ATOM     11  C   UNL     1     110.567 128.463 138.928  0.00  0.00    +0.000 A 
ATOM     12  C   UNL     1     110.340 127.359 139.895  0.00  0.00    +0.000 A 
ATOM     13  C   UNL     1     110.930 126.890 139.483  0.00  0.00    +0.000 A 
ENDROOT
BRANCH  10  16
ATOM     14  O   UNL     1     112.082 128.613 134.729  0.00  0.00    +0.000 OA
ATOM     15  O   UNL     1     113.670 129.047 134.837  0.00  0.00    +0.000 OA
ATOM     16  C   UNL     1     112.501 128.133 136.818  0.00  0.00    +0.000 A 
ATOM     17  C   UNL     1     112.096 128.221 136.103  0.00  0.00    +0.000 A 
ATOM     18  C   UNL     1     113.295 128.350 136.871  0.00  0.00    +0.000 A 
ATOM     19  C   UNL     1     112.487 128.525 135.444  0.00  0.00    +0.000 A 
ATOM     20  C   UNL     1     113.685 128.655 136.211  0.00  0.00    +0.000 A 
ATOM     21  C   UNL     1     113.281 128.742 135.497  0.00  0.00    +0.000 A 
ENDBRANCH  10  16
BRANCH   5  22
ATOM     22  O   UNL     1     112.852 126.613 137.355  0.00  0.00    +0.000 OA
BRANCH  22  31
ATOM     23  O   UNL     1     111.914 125.756 136.700  0.00  0.00    +0.000 OA
ATOM     24  O   UNL     1     113.515 123.876 136.868  0.00  0.00    +0.000 OA
ATOM     25  O   UNL     1     112.044 123.647 136.158  0.00  0.00    +0.000 OA
ATOM     26  O   UNL     1     113.919 125.360 137.466  0.00  0.00    +0.000 OA
ATOM     27  C   UNL     1     112.981 124.503 136.812  0.00  0.00    +0.000 C 
ATOM     28  C   UNL     1     112.245 124.388 136.457  0.00  0.00    +0.000 C 
ATOM     29  C   UNL     1     113.184 125.245 137.111  0.00  0.00    +0.000 C 
ATOM     30  C   UNL     1     111.712 125.015 136.402  0.00  0.00    +0.000 C 
ATOM     31  C   UNL     1     112.650 125.872 137.056  0.00  0.00    +0.000 C 
BRANCH  30  33
ATOM     32  O   UNL     1     110.767 125.336 135.379  0.00  0.00    +0.000 OA
ATOM     33  C   UNL     1     110.977 124.900 136.047  0.00  0.00    +0.000 C 
ENDBRANCH  30  33
ENDBRANCH  22  31
ENDBRANCH   5  22
BRANCH   6  34
ATOM     34  O   UNL     1     109.591 128.608 140.005  0.00  0.00    +0.000 OA
BRANCH  34  43
ATOM     35  O   UNL     1     110.452 129.551 140.649  0.00  0.00    +0.000 OA
ATOM     36  O   UNL     1     108.920 131.386 140.006  0.00  0.00    +0.000 OA
ATOM     37  O   UNL     1     110.290 131.717 140.864  0.00  0.00    +0.000 OA
ATOM     38  O   UNL     1     108.571 129.832 139.576  0.00  0.00    +0.000 OA
ATOM     39  C   UNL     1     109.431 130.774 140.220  0.00  0.00    +0.000 C 
ATOM     40  C   UNL     1     110.116 130.940 140.649  0.00  0.00    +0.000 C 
ATOM     41  C   UNL     1     109.256 129.997 140.005  0.00  0.00    +0.000 C 
ATOM     42  C   UNL     1     110.626 130.328 140.863  0.00  0.00    +0.000 C 
ATOM     43  C   UNL     1     109.766 129.386 140.220  0.00  0.00    +0.000 C 
BRANCH  42  45
ATOM     44  O   UNL     1     111.531 130.008 141.922  0.00  0.00    +0.000 OA
ATOM     45  C   UNL     1     111.311 130.494 141.292  0.00  0.00    +0.000 C 
ENDBRANCH  42  45
ENDBRANCH  34  43
ENDBRANCH   6  34
TORSDOF 7
ENDMDL
