MODEL 1
REMARK VINA RESULT:      -8.6      0.000      0.000
REMARK  Name = 5319509
REMARK  2 active torsions:
REMARK  status: ('A' for Active; 'I' for Inactive)
REMARK    1  A    between atoms: O_5  and  C_17
REMARK    2  A    between atoms: C_7  and  C_11
REMARK                            x       y       z     vdW  Elec       q    Type
REMARK                         _______ _______ _______ _____ _____    ______ ____
ROOT
ATOM      1  O   UNL     1     105.075 124.366 147.369  0.00  0.00    +0.000 OA
ATOM      2  O   UNL     1     104.817 124.750 145.236  0.00  0.00    +0.000 OA
ATOM      3  O   UNL     1     106.336 125.346 145.478  0.00  0.00    +0.000 OA
ATOM      4  O   UNL     1     107.460 125.629 146.336  0.00  0.00    +0.000 OA
ATOM      5  C   UNL     1     104.736 124.395 146.617  0.00  0.00    +0.000 C 
ATOM      6  C   UNL     1     105.156 124.721 145.987  0.00  0.00    +0.000 C 
ATOM      7  C   UNL     1     105.916 125.019 146.108  0.00  0.00    +0.000 C 
ATOM      8  C   UNL     1     106.255 124.991 146.859  0.00  0.00    +0.000 A 
ATOM      9  C   UNL     1     105.835 124.664 147.490  0.00  0.00    +0.000 A 
ATOM     10  C   UNL     1     107.048 125.304 146.973  0.00  0.00    +0.000 A 
ATOM     11  C   UNL     1     106.178 124.629 148.277  0.00  0.00    +0.000 A 
ATOM     12  C   UNL     1     106.969 124.937 148.409  0.00  0.00    +0.000 A 
ATOM     13  C   UNL     1     107.406 125.277 147.753  0.00  0.00    +0.000 A 
ENDROOT
BRANCH   5  15
ATOM     14  O   UNL     1     101.695 123.205 146.137  0.00  0.00    +0.000 OA
ATOM     15  C   UNL     1     103.976 124.097 146.497  0.00  0.00    +0.000 A 
ATOM     16  C   UNL     1     103.318 124.537 146.733  0.00  0.00    +0.000 A 
ATOM     17  C   UNL     1     103.873 123.360 146.141  0.00  0.00    +0.000 A 
ATOM     18  C   UNL     1     102.559 124.239 146.613  0.00  0.00    +0.000 A 
ATOM     19  C   UNL     1     103.112 123.063 146.021  0.00  0.00    +0.000 A 
ATOM     20  C   UNL     1     102.456 123.502 146.257  0.00  0.00    +0.000 A 
ENDBRANCH   5  15
BRANCH  12  21
ATOM     21  O   UNL     1     107.305 124.907 149.162  0.00  0.00    +0.000 OA
ATOM     22  C   UNL     1     107.730 124.239 149.397  0.00  0.00    +0.000 C 
ENDBRANCH  12  21
TORSDOF 2
ENDMDL
MODEL 2
REMARK VINA RESULT:      -8.0     12.457     13.492
REMARK  Name = 5319509
REMARK  2 active torsions:
REMARK  status: ('A' for Active; 'I' for Inactive)
REMARK    1  A    between atoms: O_5  and  C_17
REMARK    2  A    between atoms: C_7  and  C_11
REMARK                            x       y       z     vdW  Elec       q    Type
REMARK                         _______ _______ _______ _____ _____    ______ ____
ROOT
ATOM      1  O   UNL     1     112.209 126.658 136.012  0.00  0.00    +0.000 OA
ATOM      2  O   UNL     1     111.797 124.542 136.354  0.00  0.00    +0.000 OA
ATOM      3  O   UNL     1     110.461 124.984 135.492  0.00  0.00    +0.000 OA
ATOM      4  O   UNL     1     109.681 125.974 134.791  0.00  0.00    +0.000 OA
ATOM      5  C   UNL     1     112.294 125.878 136.270  0.00  0.00    +0.000 C 
ATOM      6  C   UNL     1     111.712 125.320 136.097  0.00  0.00    +0.000 C 
ATOM      7  C   UNL     1     111.044 125.542 135.665  0.00  0.00    +0.000 C 
ATOM      8  C   UNL     1     110.959 126.320 135.408  0.00  0.00    +0.000 A 
ATOM      9  C   UNL     1     111.541 126.878 135.581  0.00  0.00    +0.000 A 
ATOM     10  C   UNL     1     110.258 126.539 134.959  0.00  0.00    +0.000 A 
ATOM     11  C   UNL     1     111.464 127.693 135.318  0.00  0.00    +0.000 A 
ATOM     12  C   UNL     1     110.771 127.929 134.868  0.00  0.00    +0.000 A 
ATOM     13  C   UNL     1     110.164 127.348 134.688  0.00  0.00    +0.000 A 
ENDROOT
BRANCH   5  15
ATOM     14  O   UNL     1     114.965 124.997 137.996  0.00  0.00    +0.000 OA
ATOM     15  C   UNL     1     112.962 125.657 136.701  0.00  0.00    +0.000 A 
ATOM     16  C   UNL     1     112.986 125.782 137.516  0.00  0.00    +0.000 A 
ATOM     17  C   UNL     1     113.606 125.313 136.317  0.00  0.00    +0.000 A 
ATOM     18  C   UNL     1     113.654 125.561 137.947  0.00  0.00    +0.000 A 
ATOM     19  C   UNL     1     114.274 125.093 136.749  0.00  0.00    +0.000 A 
ATOM     20  C   UNL     1     114.298 125.217 137.564  0.00  0.00    +0.000 A 
ENDBRANCH   5  15
BRANCH  12  21
ATOM     21  O   UNL     1     110.689 128.709 134.612  0.00  0.00    +0.000 OA
ATOM     22  C   UNL     1     110.202 129.230 135.027  0.00  0.00    +0.000 C 
ENDBRANCH  12  21
TORSDOF 2
ENDMDL
MODEL 3
REMARK VINA RESULT:      -8.0      6.039      7.006
REMARK  Name = 5319509
REMARK  2 active torsions:
REMARK  status: ('A' for Active; 'I' for Inactive)
REMARK    1  A    between atoms: O_5  and  C_17
REMARK    2  A    between atoms: C_7  and  C_11
REMARK                            x       y       z     vdW  Elec       q    Type
REMARK                         _______ _______ _______ _____ _____    ______ ____
ROOT
ATOM      1  O   UNL     1     104.860 124.813 140.047  0.00  0.00    +0.000 OA
ATOM      2  O   UNL     1     105.338 122.745 139.536  0.00  0.00    +0.000 OA
ATOM      3  O   UNL     1     106.537 123.085 140.618  0.00  0.00    +0.000 OA
ATOM      4  O   UNL     1     107.203 123.988 141.524  0.00  0.00    +0.000 OA
ATOM      5  C   UNL     1     104.820 124.067 139.696  0.00  0.00    +0.000 C 
ATOM      6  C   UNL     1     105.379 123.490 139.887  0.00  0.00    +0.000 C 
ATOM      7  C   UNL     1     105.978 123.661 140.428  0.00  0.00    +0.000 C 
ATOM      8  C   UNL     1     106.019 124.406 140.778  0.00  0.00    +0.000 A 
ATOM      9  C   UNL     1     105.460 124.982 140.588  0.00  0.00    +0.000 A 
ATOM     10  C   UNL     1     106.648 124.570 141.340  0.00  0.00    +0.000 A 
ATOM     11  C   UNL     1     105.491 125.762 140.947  0.00  0.00    +0.000 A 
ATOM     12  C   UNL     1     106.113 125.945 141.511  0.00  0.00    +0.000 A 
ATOM     13  C   UNL     1     106.695 125.345 141.709  0.00  0.00    +0.000 A 
ENDROOT
BRANCH   5  15
ATOM     14  O   UNL     1     102.420 123.390 137.535  0.00  0.00    +0.000 OA
ATOM     15  C   UNL     1     104.220 123.898 139.156  0.00  0.00    +0.000 A 
ATOM     16  C   UNL     1     103.467 123.696 139.426  0.00  0.00    +0.000 A 
ATOM     17  C   UNL     1     104.373 123.930 138.346  0.00  0.00    +0.000 A 
ATOM     18  C   UNL     1     102.867 123.527 138.885  0.00  0.00    +0.000 A 
ATOM     19  C   UNL     1     103.773 123.761 137.806  0.00  0.00    +0.000 A 
ATOM     20  C   UNL     1     103.020 123.559 138.075  0.00  0.00    +0.000 A 
ENDBRANCH   5  15
BRANCH  12  21
ATOM     21  O   UNL     1     106.150 126.692 141.859  0.00  0.00    +0.000 OA
ATOM     22  C   UNL     1     105.844 126.809 142.617  0.00  0.00    +0.000 C 
ENDBRANCH  12  21
TORSDOF 2
ENDMDL
MODEL 4
REMARK VINA RESULT:      -8.0      1.255      4.356
REMARK  Name = 5319509
REMARK  2 active torsions:
REMARK  status: ('A' for Active; 'I' for Inactive)
REMARK    1  A    between atoms: O_5  and  C_17
REMARK    2  A    between atoms: C_7  and  C_11
REMARK                            x       y       z     vdW  Elec       q    Type
REMARK                         _______ _______ _______ _____ _____    ______ ____
ROOT
ATOM      1  O   UNL     1     105.151 124.341 147.396  0.00  0.00    +0.000 OA
ATOM      2  O   UNL     1     105.173 125.668 149.129  0.00  0.00    +0.000 OA
ATOM      3  O   UNL     1     103.574 125.713 148.722  0.00  0.00    +0.000 OA
ATOM      4  O   UNL     1     102.473 125.312 147.881  0.00  0.00    +0.000 OA
ATOM      5  C   UNL     1     105.425 124.776 148.042  0.00  0.00    +0.000 C 
ATOM      6  C   UNL     1     104.899 125.233 148.484  0.00  0.00    +0.000 C 
ATOM      7  C   UNL     1     104.100 125.255 148.280  0.00  0.00    +0.000 C 
ATOM      8  C   UNL     1     103.826 124.820 147.635  0.00  0.00    +0.000 A 
ATOM      9  C   UNL     1     104.352 124.363 147.193  0.00  0.00    +0.000 A 
ATOM     10  C   UNL     1     102.991 124.852 147.433  0.00  0.00    +0.000 A 
ATOM     11  C   UNL     1     104.079 123.905 146.519  0.00  0.00    +0.000 A 
ATOM     12  C   UNL     1     103.248 123.924 146.302  0.00  0.00    +0.000 A 
ATOM     13  C   UNL     1     102.701 124.401 146.762  0.00  0.00    +0.000 A 
ENDROOT
BRANCH   5  15
ATOM     14  O   UNL     1     108.623 124.687 148.852  0.00  0.00    +0.000 OA
ATOM     15  C   UNL     1     106.224 124.754 148.245  0.00  0.00    +0.000 A 
ATOM     16  C   UNL     1     106.777 125.161 147.787  0.00  0.00    +0.000 A 
ATOM     17  C   UNL     1     106.471 124.324 148.905  0.00  0.00    +0.000 A 
ATOM     18  C   UNL     1     107.576 125.139 147.990  0.00  0.00    +0.000 A 
ATOM     19  C   UNL     1     107.271 124.302 149.106  0.00  0.00    +0.000 A 
ATOM     20  C   UNL     1     107.823 124.709 148.650  0.00  0.00    +0.000 A 
ENDBRANCH   5  15
BRANCH  12  21
ATOM     21  O   UNL     1     102.978 123.488 145.656  0.00  0.00    +0.000 OA
ATOM     22  C   UNL     1     102.649 122.740 145.772  0.00  0.00    +0.000 C 
ENDBRANCH  12  21
TORSDOF 2
ENDMDL
MODEL 5
REMARK VINA RESULT:      -7.8      1.165      4.113
REMARK  Name = 5319509
REMARK  2 active torsions:
REMARK  status: ('A' for Active; 'I' for Inactive)
REMARK    1  A    between atoms: O_5  and  C_17
REMARK    2  A    between atoms: C_7  and  C_11
REMARK                            x       y       z     vdW  Elec       q    Type
REMARK                         _______ _______ _______ _____ _____    ______ ____
ROOT
ATOM      1  O   UNL     1     104.250 125.064 147.417  0.00  0.00    +0.000 OA
ATOM      2  O   UNL     1     105.235 123.992 145.791  0.00  0.00    +0.000 OA
ATOM      3  O   UNL     1     103.661 123.566 145.536  0.00  0.00    +0.000 OA
ATOM      4  O   UNL     1     102.264 123.623 145.890  0.00  0.00    +0.000 OA
ATOM      5  C   UNL     1     104.841 124.777 146.916  0.00  0.00    +0.000 C 
ATOM      6  C   UNL     1     104.644 124.278 146.290  0.00  0.00    +0.000 C 
ATOM      7  C   UNL     1     103.857 124.066 146.163  0.00  0.00    +0.000 C 
ATOM      8  C   UNL     1     103.267 124.352 146.662  0.00  0.00    +0.000 A 
ATOM      9  C   UNL     1     103.463 124.851 147.289  0.00  0.00    +0.000 A 
ATOM     10  C   UNL     1     102.450 124.123 146.520  0.00  0.00    +0.000 A 
ATOM     11  C   UNL     1     102.857 125.156 147.817  0.00  0.00    +0.000 A 
ATOM     12  C   UNL     1     102.036 124.938 147.689  0.00  0.00    +0.000 A 
ATOM     13  C   UNL     1     101.831 124.419 147.037  0.00  0.00    +0.000 A 
ENDROOT
BRANCH   5  15
ATOM     14  O   UNL     1     107.988 125.627 147.429  0.00  0.00    +0.000 OA
ATOM     15  C   UNL     1     105.627 124.990 147.044  0.00  0.00    +0.000 A 
ATOM     16  C   UNL     1     106.061 124.625 147.645  0.00  0.00    +0.000 A 
ATOM     17  C   UNL     1     105.981 125.567 146.572  0.00  0.00    +0.000 A 
ATOM     18  C   UNL     1     106.847 124.838 147.772  0.00  0.00    +0.000 A 
ATOM     19  C   UNL     1     106.768 125.779 146.701  0.00  0.00    +0.000 A 
ATOM     20  C   UNL     1     107.201 125.415 147.300  0.00  0.00    +0.000 A 
ENDBRANCH   5  15
BRANCH  12  21
ATOM     21  O   UNL     1     101.447 125.227 148.191  0.00  0.00    +0.000 OA
ATOM     22  C   UNL     1     101.201 124.778 148.838  0.00  0.00    +0.000 C 
ENDBRANCH  12  21
TORSDOF 2
ENDMDL
MODEL 6
REMARK VINA RESULT:      -7.7      7.230      8.155
REMARK  Name = 5319509
REMARK  2 active torsions:
REMARK  status: ('A' for Active; 'I' for Inactive)
REMARK    1  A    between atoms: O_5  and  C_17
REMARK    2  A    between atoms: C_7  and  C_11
REMARK                            x       y       z     vdW  Elec       q    Type
REMARK                         _______ _______ _______ _____ _____    ______ ____
ROOT
ATOM      1  O   UNL     1     103.318 130.284 142.234  0.00  0.00    +0.000 OA
ATOM      2  O   UNL     1     102.189 130.167 140.370  0.00  0.00    +0.000 OA
ATOM      3  O   UNL     1     103.133 128.819 140.248  0.00  0.00    +0.000 OA
ATOM      4  O   UNL     1     104.146 127.935 140.769  0.00  0.00    +0.000 OA
ATOM      5  C   UNL     1     102.784 130.469 141.633  0.00  0.00    +0.000 C 
ATOM      6  C   UNL     1     102.722 129.981 140.971  0.00  0.00    +0.000 C 
ATOM      7  C   UNL     1     103.195 129.307 140.910  0.00  0.00    +0.000 C 
ATOM      8  C   UNL     1     103.728 129.122 141.511  0.00  0.00    +0.000 A 
ATOM      9  C   UNL     1     103.790 129.610 142.173  0.00  0.00    +0.000 A 
ATOM     10  C   UNL     1     104.215 128.417 141.435  0.00  0.00    +0.000 A 
ATOM     11  C   UNL     1     104.342 129.427 142.806  0.00  0.00    +0.000 A 
ATOM     12  C   UNL     1     104.836 128.727 142.747  0.00  0.00    +0.000 A 
ATOM     13  C   UNL     1     104.772 128.219 142.058  0.00  0.00    +0.000 A 
ENDROOT
BRANCH   5  15
ATOM     14  O   UNL     1     100.898 133.166 141.879  0.00  0.00    +0.000 OA
ATOM     15  C   UNL     1     102.312 131.143 141.695  0.00  0.00    +0.000 A 
ATOM     16  C   UNL     1     102.606 131.876 141.453  0.00  0.00    +0.000 A 
ATOM     17  C   UNL     1     101.547 131.085 141.998  0.00  0.00    +0.000 A 
ATOM     18  C   UNL     1     102.134 132.550 141.514  0.00  0.00    +0.000 A 
ATOM     19  C   UNL     1     101.076 131.760 142.059  0.00  0.00    +0.000 A 
ATOM     20  C   UNL     1     101.369 132.492 141.817  0.00  0.00    +0.000 A 
ENDBRANCH   5  15
BRANCH  12  21
ATOM     21  O   UNL     1     105.369 128.545 143.351  0.00  0.00    +0.000 OA
ATOM     22  C   UNL     1     105.155 128.011 143.942  0.00  0.00    +0.000 C 
ENDBRANCH  12  21
TORSDOF 2
ENDMDL
MODEL 7
REMARK VINA RESULT:      -7.7     12.413     12.870
REMARK  Name = 5319509
REMARK  2 active torsions:
REMARK  status: ('A' for Active; 'I' for Inactive)
REMARK    1  A    between atoms: O_5  and  C_17
REMARK    2  A    between atoms: C_7  and  C_11
REMARK                            x       y       z     vdW  Elec       q    Type
REMARK                         _______ _______ _______ _____ _____    ______ ____
ROOT
ATOM      1  O   UNL     1     112.085 126.277 136.222  0.00  0.00    +0.000 OA
ATOM      2  O   UNL     1     110.326 125.217 135.484  0.00  0.00    +0.000 OA
ATOM      3  O   UNL     1     111.263 123.955 135.983  0.00  0.00    +0.000 OA
ATOM      4  O   UNL     1     112.476 123.434 136.565  0.00  0.00    +0.000 OA
ATOM      5  C   UNL     1     111.342 126.134 135.892  0.00  0.00    +0.000 C 
ATOM      6  C   UNL     1     111.068 125.360 135.813  0.00  0.00    +0.000 C 
ATOM      7  C   UNL     1     111.537 124.729 136.063  0.00  0.00    +0.000 C 
ATOM      8  C   UNL     1     112.279 124.871 136.392  0.00  0.00    +0.000 A 
ATOM      9  C   UNL     1     112.554 125.645 136.472  0.00  0.00    +0.000 A 
ATOM     10  C   UNL     1     112.759 124.205 136.649  0.00  0.00    +0.000 A 
ATOM     11  C   UNL     1     113.326 125.807 136.814  0.00  0.00    +0.000 A 
ATOM     12  C   UNL     1     113.818 125.153 137.075  0.00  0.00    +0.000 A 
ATOM     13  C   UNL     1     113.533 124.347 136.993  0.00  0.00    +0.000 A 
ENDROOT
BRANCH   5  15
ATOM     14  O   UNL     1     109.468 128.661 134.896  0.00  0.00    +0.000 OA
ATOM     15  C   UNL     1     110.874 126.765 135.643  0.00  0.00    +0.000 A 
ATOM     16  C   UNL     1     110.366 127.138 136.176  0.00  0.00    +0.000 A 
ATOM     17  C   UNL     1     110.913 127.025 134.861  0.00  0.00    +0.000 A 
ATOM     18  C   UNL     1     109.898 127.770 135.927  0.00  0.00    +0.000 A 
ATOM     19  C   UNL     1     110.445 127.657 134.612  0.00  0.00    +0.000 A 
ATOM     20  C   UNL     1     109.937 128.029 135.145  0.00  0.00    +0.000 A 
ENDBRANCH   5  15
BRANCH  12  21
ATOM     21  O   UNL     1     114.561 125.300 137.405  0.00  0.00    +0.000 OA
ATOM     22  C   UNL     1     114.620 125.588 138.175  0.00  0.00    +0.000 C 
ENDBRANCH  12  21
TORSDOF 2
ENDMDL
MODEL 8
REMARK VINA RESULT:      -7.7      2.411      4.086
REMARK  Name = 5319509
REMARK  2 active torsions:
REMARK  status: ('A' for Active; 'I' for Inactive)
REMARK    1  A    between atoms: O_5  and  C_17
REMARK    2  A    between atoms: C_7  and  C_11
REMARK                            x       y       z     vdW  Elec       q    Type
REMARK                         _______ _______ _______ _____ _____    ______ ____
ROOT
ATOM      1  O   UNL     1     106.474 126.574 146.901  0.00  0.00    +0.000 OA
ATOM      2  O   UNL     1     106.685 124.550 146.111  0.00  0.00    +0.000 OA
ATOM      3  O   UNL     1     106.038 125.328 144.808  0.00  0.00    +0.000 OA
ATOM      4  O   UNL     1     105.526 126.518 144.172  0.00  0.00    +0.000 OA
ATOM      5  C   UNL     1     106.653 125.769 146.855  0.00  0.00    +0.000 C 
ATOM      6  C   UNL     1     106.507 125.354 146.157  0.00  0.00    +0.000 C 
ATOM      7  C   UNL     1     106.183 125.744 145.506  0.00  0.00    +0.000 C 
ATOM      8  C   UNL     1     106.005 126.547 145.552  0.00  0.00    +0.000 A 
ATOM      9  C   UNL     1     106.151 126.962 146.249  0.00  0.00    +0.000 A 
ATOM     10  C   UNL     1     105.668 126.942 144.866  0.00  0.00    +0.000 A 
ATOM     11  C   UNL     1     105.970 127.801 146.310  0.00  0.00    +0.000 A 
ATOM     12  C   UNL     1     105.633 128.211 145.635  0.00  0.00    +0.000 A 
ATOM     13  C   UNL     1     105.481 127.779 144.908  0.00  0.00    +0.000 A 
ENDROOT
BRANCH   5  15
ATOM     14  O   UNL     1     107.945 124.215 149.464  0.00  0.00    +0.000 OA
ATOM     15  C   UNL     1     106.976 125.381 147.507  0.00  0.00    +0.000 A 
ATOM     16  C   UNL     1     106.480 125.061 148.084  0.00  0.00    +0.000 A 
ATOM     17  C   UNL     1     107.795 125.312 147.582  0.00  0.00    +0.000 A 
ATOM     18  C   UNL     1     106.803 124.672 148.736  0.00  0.00    +0.000 A 
ATOM     19  C   UNL     1     108.117 124.923 148.235  0.00  0.00    +0.000 A 
ATOM     20  C   UNL     1     107.622 124.604 148.811  0.00  0.00    +0.000 A 
ENDBRANCH   5  15
BRANCH  12  21
ATOM     21  O   UNL     1     105.456 129.016 145.685  0.00  0.00    +0.000 OA
ATOM     22  C   UNL     1     104.730 129.260 145.992  0.00  0.00    +0.000 C 
ENDBRANCH  12  21
TORSDOF 2
ENDMDL
MODEL 9
REMARK VINA RESULT:      -7.6      1.170      2.384
REMARK  Name = 5319509
REMARK  2 active torsions:
REMARK  status: ('A' for Active; 'I' for Inactive)
REMARK    1  A    between atoms: O_5  and  C_17
REMARK    2  A    between atoms: C_7  and  C_11
REMARK                            x       y       z     vdW  Elec       q    Type
REMARK                         _______ _______ _______ _____ _____    ______ ____
ROOT
ATOM      1  O   UNL     1     104.156 124.436 145.978  0.00  0.00    +0.000 OA
ATOM      2  O   UNL     1     103.516 123.983 148.015  0.00  0.00    +0.000 OA
ATOM      3  O   UNL     1     105.009 124.628 148.293  0.00  0.00    +0.000 OA
ATOM      4  O   UNL     1     106.238 125.217 147.823  0.00  0.00    +0.000 OA
ATOM      5  C   UNL     1     103.694 124.177 146.611  0.00  0.00    +0.000 C 
ATOM      6  C   UNL     1     103.978 124.241 147.383  0.00  0.00    +0.000 C 
ATOM      7  C   UNL     1     104.725 124.564 147.522  0.00  0.00    +0.000 C 
ATOM      8  C   UNL     1     105.187 124.823 146.890  0.00  0.00    +0.000 A 
ATOM      9  C   UNL     1     104.903 124.759 146.118  0.00  0.00    +0.000 A 
ATOM     10  C   UNL     1     105.963 125.157 147.048  0.00  0.00    +0.000 A 
ATOM     11  C   UNL     1     105.375 125.025 145.451  0.00  0.00    +0.000 A 
ATOM     12  C   UNL     1     106.153 125.362 145.590  0.00  0.00    +0.000 A 
ATOM     13  C   UNL     1     106.448 125.429 146.393  0.00  0.00    +0.000 A 
ENDROOT
BRANCH   5  15
ATOM     14  O   UNL     1     100.710 122.884 146.050  0.00  0.00    +0.000 OA
ATOM     15  C   UNL     1     102.948 123.855 146.471  0.00  0.00    +0.000 A 
ATOM     16  C   UNL     1     102.878 123.069 146.227  0.00  0.00    +0.000 A 
ATOM     17  C   UNL     1     102.272 124.316 146.575  0.00  0.00    +0.000 A 
ATOM     18  C   UNL     1     102.132 122.747 146.086  0.00  0.00    +0.000 A 
ATOM     19  C   UNL     1     101.526 123.992 146.434  0.00  0.00    +0.000 A 
ATOM     20  C   UNL     1     101.456 123.208 146.190  0.00  0.00    +0.000 A 
ENDBRANCH   5  15
BRANCH  12  21
ATOM     21  O   UNL     1     106.613 125.620 144.954  0.00  0.00    +0.000 OA
ATOM     22  C   UNL     1     106.375 126.275 144.513  0.00  0.00    +0.000 C 
ENDBRANCH  12  21
TORSDOF 2
ENDMDL
MODEL 10
REMARK VINA RESULT:      -7.6      1.558      4.097
REMARK  Name = 5319509
REMARK  2 active torsions:
REMARK  status: ('A' for Active; 'I' for Inactive)
REMARK    1  A    between atoms: O_5  and  C_17
REMARK    2  A    between atoms: C_7  and  C_11
REMARK                            x       y       z     vdW  Elec       q    Type
REMARK                         _______ _______ _______ _____ _____    ______ ____
ROOT
ATOM      1  O   UNL     1     103.577 124.581 147.442  0.00  0.00    +0.000 OA
ATOM      2  O   UNL     1     105.627 124.992 146.815  0.00  0.00    +0.000 OA
ATOM      3  O   UNL     1     105.191 123.838 145.719  0.00  0.00    +0.000 OA
ATOM      4  O   UNL     1     104.228 122.914 145.173  0.00  0.00    +0.000 OA
ATOM      5  C   UNL     1     104.334 124.911 147.415  0.00  0.00    +0.000 C 
ATOM      6  C   UNL     1     104.872 124.663 146.841  0.00  0.00    +0.000 C 
ATOM      7  C   UNL     1     104.653 124.085 146.294  0.00  0.00    +0.000 C 
ATOM      8  C   UNL     1     103.898 123.756 146.320  0.00  0.00    +0.000 A 
ATOM      9  C   UNL     1     103.360 124.004 146.894  0.00  0.00    +0.000 A 
ATOM     10  C   UNL     1     103.683 123.155 145.744  0.00  0.00    +0.000 A 
ATOM     11  C   UNL     1     102.569 123.668 146.932  0.00  0.00    +0.000 A 
ATOM     12  C   UNL     1     102.337 123.067 146.364  0.00  0.00    +0.000 A 
ATOM     13  C   UNL     1     102.897 122.809 145.766  0.00  0.00    +0.000 A 
ENDROOT
BRANCH   5  15
ATOM     14  O   UNL     1     105.203 127.218 149.609  0.00  0.00    +0.000 OA
ATOM     15  C   UNL     1     104.551 125.488 147.963  0.00  0.00    +0.000 A 
ATOM     16  C   UNL     1     104.886 125.266 148.684  0.00  0.00    +0.000 A 
ATOM     17  C   UNL     1     104.433 126.286 147.791  0.00  0.00    +0.000 A 
ATOM     18  C   UNL     1     105.103 125.843 149.232  0.00  0.00    +0.000 A 
ATOM     19  C   UNL     1     104.651 126.863 148.339  0.00  0.00    +0.000 A 
ATOM     20  C   UNL     1     104.986 126.641 149.060  0.00  0.00    +0.000 A 
ENDBRANCH   5  15
BRANCH  12  21
ATOM     21  O   UNL     1     101.580 122.739 146.394  0.00  0.00    +0.000 OA
ATOM     22  C   UNL     1     100.975 123.058 145.932  0.00  0.00    +0.000 C 
ENDBRANCH  12  21
TORSDOF 2
ENDMDL
