MODEL 1
REMARK VINA RESULT:     -10.1      0.000      0.000
REMARK  Name = 76959109
REMARK  4 active torsions:
REMARK  status: ('A' for Active; 'I' for Inactive)
REMARK    1  A    between atoms: O_2  and  C_17
REMARK    2  A    between atoms: O_2  and  C_24
REMARK    3  A    between atoms: C_18  and  C_26
REMARK    4  A    between atoms: C_20  and  C_25
REMARK                            x       y       z     vdW  Elec       q    Type
REMARK                         _______ _______ _______ _____ _____    ______ ____
ROOT
ATOM      1  O   UNL     1     105.021 124.511 139.661  0.00  0.00    +0.000 OA
ATOM      2  O   UNL     1     103.865 122.739 140.203  0.00  0.00    +0.000 OA
ATOM      3  O   UNL     1     105.772 123.665 142.319  0.00  0.00    +0.000 OA
ATOM      4  C   UNL     1     104.402 123.364 140.249  0.00  0.00    +0.000 C 
ATOM      5  C   UNL     1     104.485 123.886 139.615  0.00  0.00    +0.000 C 
ATOM      6  C   UNL     1     104.857 123.468 140.930  0.00  0.00    +0.000 C 
ATOM      7  C   UNL     1     105.393 124.093 140.976  0.00  0.00    +0.000 A 
ATOM      8  C   UNL     1     105.475 124.614 140.341  0.00  0.00    +0.000 A 
ATOM      9  C   UNL     1     106.507 125.382 141.084  0.00  0.00    +0.000 A 
ATOM     10  C   UNL     1     106.031 125.269 140.377  0.00  0.00    +0.000 A 
ATOM     11  C   UNL     1     105.861 124.190 141.690  0.00  0.00    +0.000 A 
ATOM     12  C   UNL     1     106.422 124.840 141.744  0.00  0.00    +0.000 A 
ENDROOT
BRANCH   5  16
ATOM     13  O   UNL     1     101.983 124.111 138.251  0.00  0.00    +0.000 OA
ATOM     14  O   UNL     1     104.257 123.036 136.895  0.00  0.00    +0.000 OA
ATOM     15  O   UNL     1     102.666 123.470 136.893  0.00  0.00    +0.000 OA
ATOM     16  C   UNL     1     104.030 123.782 138.934  0.00  0.00    +0.000 A 
ATOM     17  C   UNL     1     104.371 123.461 138.255  0.00  0.00    +0.000 A 
ATOM     18  C   UNL     1     103.234 123.998 138.933  0.00  0.00    +0.000 A 
ATOM     19  C   UNL     1     102.779 123.894 138.252  0.00  0.00    +0.000 A 
ATOM     20  C   UNL     1     103.917 123.357 137.574  0.00  0.00    +0.000 A 
ATOM     21  C   UNL     1     103.121 123.574 137.573  0.00  0.00    +0.000 A 
ENDBRANCH   5  16
BRANCH   9  22
ATOM     22  O   UNL     1     107.043 126.008 141.128  0.00  0.00    +0.000 OA
BRANCH  22  30
ATOM     23  O   UNL     1     106.168 127.054 141.553  0.00  0.00    +0.000 OA
ATOM     24  O   UNL     1     107.850 127.784 143.216  0.00  0.00    +0.000 OA
ATOM     25  O   UNL     1     108.164 126.495 142.236  0.00  0.00    +0.000 OA
ATOM     26  O   UNL     1     106.415 128.586 143.088  0.00  0.00    +0.000 OA
ATOM     27  C   UNL     1     107.289 127.541 142.662  0.00  0.00    +0.000 C 
ATOM     28  C   UNL     1     107.447 126.896 142.172  0.00  0.00    +0.000 C 
ATOM     29  C   UNL     1     106.572 127.942 142.598  0.00  0.00    +0.000 C 
ATOM     30  C   UNL     1     106.886 126.652 141.618  0.00  0.00    +0.000 C 
ATOM     31  C   UNL     1     106.011 127.699 142.044  0.00  0.00    +0.000 C 
BRANCH  31  34
ATOM     32  O   UNL     1     104.669 127.911 142.485  0.00  0.00    +0.000 OA
ATOM     33  O   UNL     1     105.199 128.689 141.410  0.00  0.00    +0.000 OA
ATOM     34  C   UNL     1     105.293 128.100 141.979  0.00  0.00    +0.000 C 
ENDBRANCH  31  34
ENDBRANCH  22  30
ENDBRANCH   9  22
TORSDOF 4
ENDMDL
MODEL 2
REMARK VINA RESULT:      -9.9      7.059      8.531
REMARK  Name = 76959109
REMARK  4 active torsions:
REMARK  status: ('A' for Active; 'I' for Inactive)
REMARK    1  A    between atoms: O_2  and  C_17
REMARK    2  A    between atoms: O_2  and  C_24
REMARK    3  A    between atoms: C_18  and  C_26
REMARK    4  A    between atoms: C_20  and  C_25
REMARK                            x       y       z     vdW  Elec       q    Type
REMARK                         _______ _______ _______ _____ _____    ______ ____
ROOT
ATOM      1  O   UNL     1     111.949 126.577 136.148  0.00  0.00    +0.000 OA
ATOM      2  O   UNL     1     111.810 124.401 136.259  0.00  0.00    +0.000 OA
ATOM      3  O   UNL     1     109.432 125.728 135.012  0.00  0.00    +0.000 OA
ATOM      4  C   UNL     1     111.616 125.187 136.102  0.00  0.00    +0.000 C 
ATOM      5  C   UNL     1     112.142 125.791 136.304  0.00  0.00    +0.000 C 
ATOM      6  C   UNL     1     110.897 125.372 135.742  0.00  0.00    +0.000 C 
ATOM      7  C   UNL     1     110.704 126.158 135.586  0.00  0.00    +0.000 A 
ATOM      8  C   UNL     1     111.229 126.761 135.788  0.00  0.00    +0.000 A 
ATOM      9  C   UNL     1     110.291 127.782 135.256  0.00  0.00    +0.000 A 
ATOM     10  C   UNL     1     111.039 127.584 135.630  0.00  0.00    +0.000 A 
ATOM     11  C   UNL     1     109.951 126.337 135.211  0.00  0.00    +0.000 A 
ATOM     12  C   UNL     1     109.744 127.155 135.045  0.00  0.00    +0.000 A 
ENDROOT
BRANCH   5  16
ATOM     13  O   UNL     1     114.856 124.918 136.105  0.00  0.00    +0.000 OA
ATOM     14  O   UNL     1     113.746 125.558 138.659  0.00  0.00    +0.000 OA
ATOM     15  O   UNL     1     115.020 125.054 137.741  0.00  0.00    +0.000 OA
ATOM     16  C   UNL     1     112.862 125.607 136.664  0.00  0.00    +0.000 A 
ATOM     17  C   UNL     1     112.944 125.675 137.482  0.00  0.00    +0.000 A 
ATOM     18  C   UNL     1     113.499 125.354 136.205  0.00  0.00    +0.000 A 
ATOM     19  C   UNL     1     114.219 125.170 136.565  0.00  0.00    +0.000 A 
ATOM     20  C   UNL     1     113.663 125.491 137.841  0.00  0.00    +0.000 A 
ATOM     21  C   UNL     1     114.301 125.238 137.383  0.00  0.00    +0.000 A 
ENDBRANCH   5  16
BRANCH   9  22
ATOM     22  O   UNL     1     110.100 128.569 135.101  0.00  0.00    +0.000 OA
BRANCH  22  30
ATOM     23  O   UNL     1     109.872 128.947 136.460  0.00  0.00    +0.000 OA
ATOM     24  O   UNL     1     108.055 130.462 135.733  0.00  0.00    +0.000 OA
ATOM     25  O   UNL     1     108.889 129.579 134.616  0.00  0.00    +0.000 OA
ATOM     26  O   UNL     1     108.432 130.335 137.333  0.00  0.00    +0.000 OA
ATOM     27  C   UNL     1     108.660 129.957 135.975  0.00  0.00    +0.000 C 
ATOM     28  C   UNL     1     109.077 129.516 135.416  0.00  0.00    +0.000 C 
ATOM     29  C   UNL     1     108.849 129.894 136.775  0.00  0.00    +0.000 C 
ATOM     30  C   UNL     1     109.683 129.011 135.658  0.00  0.00    +0.000 C 
ATOM     31  C   UNL     1     109.455 129.389 137.017  0.00  0.00    +0.000 C 
BRANCH  31  34
ATOM     32  O   UNL     1     110.230 129.807 138.142  0.00  0.00    +0.000 OA
ATOM     33  O   UNL     1     109.247 128.780 138.294  0.00  0.00    +0.000 OA
ATOM     34  C   UNL     1     109.644 129.325 137.818  0.00  0.00    +0.000 C 
ENDBRANCH  31  34
ENDBRANCH  22  30
ENDBRANCH   9  22
TORSDOF 4
ENDMDL
MODEL 3
REMARK VINA RESULT:      -9.6      6.678      8.876
REMARK  Name = 76959109
REMARK  4 active torsions:
REMARK  status: ('A' for Active; 'I' for Inactive)
REMARK    1  A    between atoms: O_2  and  C_17
REMARK    2  A    between atoms: O_2  and  C_24
REMARK    3  A    between atoms: C_18  and  C_26
REMARK    4  A    between atoms: C_20  and  C_25
REMARK                            x       y       z     vdW  Elec       q    Type
REMARK                         _______ _______ _______ _____ _____    ______ ____
ROOT
ATOM      1  O   UNL     1     110.073 130.132 136.605  0.00  0.00    +0.000 OA
ATOM      2  O   UNL     1     108.139 131.116 136.849  0.00  0.00    +0.000 OA
ATOM      3  O   UNL     1     107.987 128.373 135.656  0.00  0.00    +0.000 OA
ATOM      4  C   UNL     1     108.706 130.549 136.657  0.00  0.00    +0.000 C 
ATOM      5  C   UNL     1     109.505 130.700 136.796  0.00  0.00    +0.000 C 
ATOM      6  C   UNL     1     108.474 129.829 136.327  0.00  0.00    +0.000 C 
ATOM      7  C   UNL     1     109.041 129.262 136.135  0.00  0.00    +0.000 A 
ATOM      8  C   UNL     1     109.840 129.413 136.274  0.00  0.00    +0.000 A 
ATOM      9  C   UNL     1     110.205 128.079 135.734  0.00  0.00    +0.000 A 
ATOM     10  C   UNL     1     110.441 128.830 136.079  0.00  0.00    +0.000 A 
ATOM     11  C   UNL     1     108.787 128.516 135.791  0.00  0.00    +0.000 A 
ATOM     12  C   UNL     1     109.374 127.921 135.590  0.00  0.00    +0.000 A 
ENDROOT
BRANCH   5  16
ATOM     13  O   UNL     1     110.304 133.426 136.480  0.00  0.00    +0.000 OA
ATOM     14  O   UNL     1     110.096 132.292 139.095  0.00  0.00    +0.000 OA
ATOM     15  O   UNL     1     110.432 133.578 138.118  0.00  0.00    +0.000 OA
ATOM     16  C   UNL     1     109.737 131.420 137.127  0.00  0.00    +0.000 A 
ATOM     17  C   UNL     1     109.801 131.496 137.946  0.00  0.00    +0.000 A 
ATOM     18  C   UNL     1     109.905 132.063 136.638  0.00  0.00    +0.000 A 
ATOM     19  C   UNL     1     110.137 132.782 136.969  0.00  0.00    +0.000 A 
ATOM     20  C   UNL     1     110.032 132.215 138.276  0.00  0.00    +0.000 A 
ATOM     21  C   UNL     1     110.200 132.859 137.788  0.00  0.00    +0.000 A 
ENDBRANCH   5  16
BRANCH   9  22
ATOM     22  O   UNL     1     110.775 127.513 135.544  0.00  0.00    +0.000 OA
BRANCH  22  30
ATOM     23  O   UNL     1     110.890 126.914 136.836  0.00  0.00    +0.000 OA
ATOM     24  O   UNL     1     111.073 124.681 135.786  0.00  0.00    +0.000 OA
ATOM     25  O   UNL     1     110.896 126.024 134.843  0.00  0.00    +0.000 OA
ATOM     26  O   UNL     1     111.128 124.827 137.428  0.00  0.00    +0.000 OA
ATOM     27  C   UNL     1     111.012 125.425 136.136  0.00  0.00    +0.000 C 
ATOM     28  C   UNL     1     110.924 126.096 135.664  0.00  0.00    +0.000 C 
ATOM     29  C   UNL     1     111.040 125.498 136.957  0.00  0.00    +0.000 C 
ATOM     30  C   UNL     1     110.863 126.841 136.014  0.00  0.00    +0.000 C 
ATOM     31  C   UNL     1     110.979 126.243 137.307  0.00  0.00    +0.000 C 
BRANCH  31  34
ATOM     32  O   UNL     1     110.315 126.237 138.572  0.00  0.00    +0.000 OA
ATOM     33  O   UNL     1     111.724 126.469 138.505  0.00  0.00    +0.000 OA
ATOM     34  C   UNL     1     111.006 126.316 138.128  0.00  0.00    +0.000 C 
ENDBRANCH  31  34
ENDBRANCH  22  30
ENDBRANCH   9  22
TORSDOF 4
ENDMDL
MODEL 4
REMARK VINA RESULT:      -9.6      3.695      5.289
REMARK  Name = 76959109
REMARK  4 active torsions:
REMARK  status: ('A' for Active; 'I' for Inactive)
REMARK    1  A    between atoms: O_2  and  C_17
REMARK    2  A    between atoms: O_2  and  C_24
REMARK    3  A    between atoms: C_18  and  C_26
REMARK    4  A    between atoms: C_20  and  C_25
REMARK                            x       y       z     vdW  Elec       q    Type
REMARK                         _______ _______ _______ _____ _____    ______ ____
ROOT
ATOM      1  O   UNL     1     104.968 127.600 142.454  0.00  0.00    +0.000 OA
ATOM      2  O   UNL     1     105.886 129.420 141.671  0.00  0.00    +0.000 OA
ATOM      3  O   UNL     1     107.841 127.310 142.506  0.00  0.00    +0.000 OA
ATOM      4  C   UNL     1     105.803 128.663 141.989  0.00  0.00    +0.000 C 
ATOM      5  C   UNL     1     105.051 128.357 142.136  0.00  0.00    +0.000 C 
ATOM      6  C   UNL     1     106.472 128.212 142.162  0.00  0.00    +0.000 C 
ATOM      7  C   UNL     1     106.389 127.456 142.480  0.00  0.00    +0.000 A 
ATOM      8  C   UNL     1     105.637 127.150 142.626  0.00  0.00    +0.000 A 
ATOM      9  C   UNL     1     106.231 125.889 143.139  0.00  0.00    +0.000 A 
ATOM     10  C   UNL     1     105.537 126.363 142.958  0.00  0.00    +0.000 A 
ATOM     11  C   UNL     1     107.093 126.996 142.655  0.00  0.00    +0.000 A 
ATOM     12  C   UNL     1     107.014 126.207 142.987  0.00  0.00    +0.000 A 
ENDROOT
BRANCH   5  16
ATOM     13  O   UNL     1     102.988 129.128 140.313  0.00  0.00    +0.000 OA
ATOM     14  O   UNL     1     103.098 130.291 142.922  0.00  0.00    +0.000 OA
ATOM     15  O   UNL     1     102.375 130.160 141.445  0.00  0.00    +0.000 OA
ATOM     16  C   UNL     1     104.382 128.808 141.963  0.00  0.00    +0.000 A 
ATOM     17  C   UNL     1     104.075 129.323 142.529  0.00  0.00    +0.000 A 
ATOM     18  C   UNL     1     104.019 128.743 141.225  0.00  0.00    +0.000 A 
ATOM     19  C   UNL     1     103.350 129.193 141.052  0.00  0.00    +0.000 A 
ATOM     20  C   UNL     1     103.406 129.774 142.357  0.00  0.00    +0.000 A 
ATOM     21  C   UNL     1     103.043 129.709 141.618  0.00  0.00    +0.000 A 
ENDBRANCH   5  16
BRANCH   9  22
ATOM     22  O   UNL     1     106.144 125.133 143.457  0.00  0.00    +0.000 OA
BRANCH  22  30
ATOM     23  O   UNL     1     106.413 125.476 144.819  0.00  0.00    +0.000 OA
ATOM     24  O   UNL     1     104.668 123.885 145.563  0.00  0.00    +0.000 OA
ATOM     25  O   UNL     1     104.982 124.072 143.954  0.00  0.00    +0.000 OA
ATOM     26  O   UNL     1     105.518 124.758 146.675  0.00  0.00    +0.000 OA
ATOM     27  C   UNL     1     105.250 124.415 145.315  0.00  0.00    +0.000 C 
ATOM     28  C   UNL     1     105.406 124.508 144.510  0.00  0.00    +0.000 C 
ATOM     29  C   UNL     1     105.674 124.851 145.871  0.00  0.00    +0.000 C 
ATOM     30  C   UNL     1     105.987 125.039 144.262  0.00  0.00    +0.000 C 
ATOM     31  C   UNL     1     106.255 125.381 145.623  0.00  0.00    +0.000 C 
BRANCH  31  34
ATOM     32  O   UNL     1     107.395 125.528 146.472  0.00  0.00    +0.000 OA
ATOM     33  O   UNL     1     106.391 126.545 146.442  0.00  0.00    +0.000 OA
ATOM     34  C   UNL     1     106.680 125.818 146.179  0.00  0.00    +0.000 C 
ENDBRANCH  31  34
ENDBRANCH  22  30
ENDBRANCH   9  22
TORSDOF 4
ENDMDL
MODEL 5
REMARK VINA RESULT:      -9.5      3.737      6.988
REMARK  Name = 76959109
REMARK  4 active torsions:
REMARK  status: ('A' for Active; 'I' for Inactive)
REMARK    1  A    between atoms: O_2  and  C_17
REMARK    2  A    between atoms: O_2  and  C_24
REMARK    3  A    between atoms: C_18  and  C_26
REMARK    4  A    between atoms: C_20  and  C_25
REMARK                            x       y       z     vdW  Elec       q    Type
REMARK                         _______ _______ _______ _____ _____    ______ ____
ROOT
ATOM      1  O   UNL     1     106.457 125.635 145.925  0.00  0.00    +0.000 OA
ATOM      2  O   UNL     1     106.798 127.179 147.432  0.00  0.00    +0.000 OA
ATOM      3  O   UNL     1     105.735 128.208 144.827  0.00  0.00    +0.000 OA
ATOM      4  C   UNL     1     106.590 126.816 146.721  0.00  0.00    +0.000 C 
ATOM      5  C   UNL     1     106.665 125.998 146.636  0.00  0.00    +0.000 C 
ATOM      6  C   UNL     1     106.307 127.271 146.093  0.00  0.00    +0.000 C 
ATOM      7  C   UNL     1     106.100 126.908 145.381  0.00  0.00    +0.000 A 
ATOM      8  C   UNL     1     106.175 126.090 145.298  0.00  0.00    +0.000 A 
ATOM      9  C   UNL     1     105.667 126.169 143.904  0.00  0.00    +0.000 A 
ATOM     10  C   UNL     1     105.962 125.701 144.562  0.00  0.00    +0.000 A 
ATOM     11  C   UNL     1     105.807 127.392 144.735  0.00  0.00    +0.000 A 
ATOM     12  C   UNL     1     105.589 127.020 143.991  0.00  0.00    +0.000 A 
ENDROOT
BRANCH   5  16
ATOM     13  O   UNL     1     106.171 124.401 148.954  0.00  0.00    +0.000 OA
ATOM     14  O   UNL     1     108.854 124.868 148.087  0.00  0.00    +0.000 OA
ATOM     15  O   UNL     1     107.795 124.180 149.148  0.00  0.00    +0.000 OA
ATOM     16  C   UNL     1     106.947 125.544 147.264  0.00  0.00    +0.000 A 
ATOM     17  C   UNL     1     107.759 125.434 147.361  0.00  0.00    +0.000 A 
ATOM     18  C   UNL     1     106.418 125.199 147.795  0.00  0.00    +0.000 A 
ATOM     19  C   UNL     1     106.701 124.745 148.423  0.00  0.00    +0.000 A 
ATOM     20  C   UNL     1     108.042 124.979 147.989  0.00  0.00    +0.000 A 
ATOM     21  C   UNL     1     107.513 124.635 148.520  0.00  0.00    +0.000 A 
ENDBRANCH   5  16
BRANCH   9  22
ATOM     22  O   UNL     1     105.460 125.804 143.194  0.00  0.00    +0.000 OA
BRANCH  22  30
ATOM     23  O   UNL     1     106.622 126.206 142.466  0.00  0.00    +0.000 OA
ATOM     24  O   UNL     1     106.607 124.049 141.252  0.00  0.00    +0.000 OA
ATOM     25  O   UNL     1     105.450 124.366 142.385  0.00  0.00    +0.000 OA
ATOM     26  O   UNL     1     107.773 125.170 140.929  0.00  0.00    +0.000 OA
ATOM     27  C   UNL     1     106.612 124.768 141.657  0.00  0.00    +0.000 C 
ATOM     28  C   UNL     1     106.033 124.926 142.223  0.00  0.00    +0.000 C 
ATOM     29  C   UNL     1     107.195 125.328 141.495  0.00  0.00    +0.000 C 
ATOM     30  C   UNL     1     106.038 125.645 142.628  0.00  0.00    +0.000 C 
ATOM     31  C   UNL     1     107.200 126.047 141.900  0.00  0.00    +0.000 C 
BRANCH  31  34
ATOM     32  O   UNL     1     108.495 126.593 142.156  0.00  0.00    +0.000 OA
ATOM     33  O   UNL     1     107.654 127.183 141.161  0.00  0.00    +0.000 OA
ATOM     34  C   UNL     1     107.783 126.608 141.738  0.00  0.00    +0.000 C 
ENDBRANCH  31  34
ENDBRANCH  22  30
ENDBRANCH   9  22
TORSDOF 4
ENDMDL
MODEL 6
REMARK VINA RESULT:      -9.5      7.471     10.338
REMARK  Name = 76959109
REMARK  4 active torsions:
REMARK  status: ('A' for Active; 'I' for Inactive)
REMARK    1  A    between atoms: O_2  and  C_17
REMARK    2  A    between atoms: O_2  and  C_24
REMARK    3  A    between atoms: C_18  and  C_26
REMARK    4  A    between atoms: C_20  and  C_25
REMARK                            x       y       z     vdW  Elec       q    Type
REMARK                         _______ _______ _______ _____ _____    ______ ____
ROOT
ATOM      1  O   UNL     1     113.120 128.759 139.513  0.00  0.00    +0.000 OA
ATOM      2  O   UNL     1     112.994 130.767 138.667  0.00  0.00    +0.000 OA
ATOM      3  O   UNL     1     111.581 128.664 137.070  0.00  0.00    +0.000 OA
ATOM      4  C   UNL     1     112.892 129.955 138.764  0.00  0.00    +0.000 C 
ATOM      5  C   UNL     1     113.222 129.572 139.416  0.00  0.00    +0.000 C 
ATOM      6  C   UNL     1     112.461 129.524 138.208  0.00  0.00    +0.000 C 
ATOM      7  C   UNL     1     112.359 128.711 138.305  0.00  0.00    +0.000 A 
ATOM      8  C   UNL     1     112.689 128.329 138.958  0.00  0.00    +0.000 A 
ATOM      9  C   UNL     1     112.141 127.028 138.494  0.00  0.00    +0.000 A 
ATOM     10  C   UNL     1     112.589 127.482 139.070  0.00  0.00    +0.000 A 
ATOM     11  C   UNL     1     111.907 128.273 137.720  0.00  0.00    +0.000 A 
ATOM     12  C   UNL     1     111.797 127.426 137.815  0.00  0.00    +0.000 A 
ENDROOT
BRANCH   5  16
ATOM     13  O   UNL     1     115.710 130.647 140.324  0.00  0.00    +0.000 OA
ATOM     14  O   UNL     1     113.327 131.082 141.841  0.00  0.00    +0.000 OA
ATOM     15  O   UNL     1     114.950 131.295 141.638  0.00  0.00    +0.000 OA
ATOM     16  C   UNL     1     113.654 130.003 139.972  0.00  0.00    +0.000 A 
ATOM     17  C   UNL     1     113.274 130.327 140.629  0.00  0.00    +0.000 A 
ATOM     18  C   UNL     1     114.466 130.109 139.871  0.00  0.00    +0.000 A 
ATOM     19  C   UNL     1     114.897 130.540 140.426  0.00  0.00    +0.000 A 
ATOM     20  C   UNL     1     113.706 130.758 141.184  0.00  0.00    +0.000 A 
ATOM     21  C   UNL     1     114.517 130.864 141.083  0.00  0.00    +0.000 A 
ENDBRANCH   5  16
BRANCH   9  22
ATOM     22  O   UNL     1     112.040 126.215 138.594  0.00  0.00    +0.000 OA
BRANCH  22  30
ATOM     23  O   UNL     1     113.225 125.785 137.920  0.00  0.00    +0.000 OA
ATOM     24  O   UNL     1     111.968 123.908 136.909  0.00  0.00    +0.000 OA
ATOM     25  O   UNL     1     111.203 124.964 137.920  0.00  0.00    +0.000 OA
ATOM     26  O   UNL     1     113.571 124.104 136.573  0.00  0.00    +0.000 OA
ATOM     27  C   UNL     1     112.387 124.534 137.246  0.00  0.00    +0.000 C 
ATOM     28  C   UNL     1     112.004 125.061 137.752  0.00  0.00    +0.000 C 
ATOM     29  C   UNL     1     113.188 124.631 137.078  0.00  0.00    +0.000 C 
ATOM     30  C   UNL     1     112.422 125.687 138.089  0.00  0.00    +0.000 C 
ATOM     31  C   UNL     1     113.607 125.257 137.415  0.00  0.00    +0.000 C 
BRANCH  31  34
ATOM     32  O   UNL     1     114.978 125.036 137.753  0.00  0.00    +0.000 OA
ATOM     33  O   UNL     1     114.642 125.772 136.574  0.00  0.00    +0.000 OA
ATOM     34  C   UNL     1     114.409 125.355 137.247  0.00  0.00    +0.000 C 
ENDBRANCH  31  34
ENDBRANCH  22  30
ENDBRANCH   9  22
TORSDOF 4
ENDMDL
MODEL 7
REMARK VINA RESULT:      -9.5      7.262      8.942
REMARK  Name = 76959109
REMARK  4 active torsions:
REMARK  status: ('A' for Active; 'I' for Inactive)
REMARK    1  A    between atoms: O_2  and  C_17
REMARK    2  A    between atoms: O_2  and  C_24
REMARK    3  A    between atoms: C_18  and  C_26
REMARK    4  A    between atoms: C_20  and  C_25
REMARK                            x       y       z     vdW  Elec       q    Type
REMARK                         _______ _______ _______ _____ _____    ______ ____
ROOT
ATOM      1  O   UNL     1     112.354 127.584 137.196  0.00  0.00    +0.000 OA
ATOM      2  O   UNL     1     114.172 127.496 135.989  0.00  0.00    +0.000 OA
ATOM      3  O   UNL     1     112.843 130.180 136.026  0.00  0.00    +0.000 OA
ATOM      4  C   UNL     1     113.493 127.788 136.356  0.00  0.00    +0.000 C 
ATOM      5  C   UNL     1     113.033 127.292 136.829  0.00  0.00    +0.000 C 
ATOM      6  C   UNL     1     113.274 128.576 136.251  0.00  0.00    +0.000 C 
ATOM      7  C   UNL     1     112.595 128.868 136.618  0.00  0.00    +0.000 A 
ATOM      8  C   UNL     1     112.135 128.372 137.090  0.00  0.00    +0.000 A 
ATOM      9  C   UNL     1     111.193 129.485 137.371  0.00  0.00    +0.000 A 
ATOM     10  C   UNL     1     111.426 128.664 137.478  0.00  0.00    +0.000 A 
ATOM     11  C   UNL     1     112.378 129.691 136.500  0.00  0.00    +0.000 A 
ATOM     12  C   UNL     1     111.671 130.001 136.880  0.00  0.00    +0.000 A 
ENDROOT
BRANCH   5  16
ATOM     13  O   UNL     1     114.608 125.319 138.168  0.00  0.00    +0.000 OA
ATOM     14  O   UNL     1     112.773 124.534 136.122  0.00  0.00    +0.000 OA
ATOM     15  O   UNL     1     113.910 124.139 137.251  0.00  0.00    +0.000 OA
ATOM     16  C   UNL     1     113.252 126.503 136.934  0.00  0.00    +0.000 A 
ATOM     17  C   UNL     1     112.903 125.913 136.475  0.00  0.00    +0.000 A 
ATOM     18  C   UNL     1     113.820 126.305 137.498  0.00  0.00    +0.000 A 
ATOM     19  C   UNL     1     114.040 125.517 137.603  0.00  0.00    +0.000 A 
ATOM     20  C   UNL     1     113.122 125.125 136.581  0.00  0.00    +0.000 A 
ATOM     21  C   UNL     1     113.690 124.927 137.145  0.00  0.00    +0.000 A 
ENDBRANCH   5  16
BRANCH   9  22
ATOM     22  O   UNL     1     110.514 129.774 137.739  0.00  0.00    +0.000 OA
BRANCH  22  30
ATOM     23  O   UNL     1     109.607 129.368 136.712  0.00  0.00    +0.000 OA
ATOM     24  O   UNL     1     108.218 131.370 137.146  0.00  0.00    +0.000 OA
ATOM     25  O   UNL     1     109.587 131.109 138.029  0.00  0.00    +0.000 OA
ATOM     26  O   UNL     1     107.775 130.296 135.975  0.00  0.00    +0.000 OA
ATOM     27  C   UNL     1     108.681 130.702 137.002  0.00  0.00    +0.000 C 
ATOM     28  C   UNL     1     109.366 130.572 137.443  0.00  0.00    +0.000 C 
ATOM     29  C   UNL     1     108.459 130.166 136.416  0.00  0.00    +0.000 C 
ATOM     30  C   UNL     1     109.829 129.905 137.299  0.00  0.00    +0.000 C 
ATOM     31  C   UNL     1     108.922 129.499 136.271  0.00  0.00    +0.000 C 
BRANCH  31  34
ATOM     32  O   UNL     1     109.000 129.041 134.920  0.00  0.00    +0.000 OA
ATOM     33  O   UNL     1     108.183 128.346 135.864  0.00  0.00    +0.000 OA
ATOM     34  C   UNL     1     108.701 128.962 135.685  0.00  0.00    +0.000 C 
ENDBRANCH  31  34
ENDBRANCH  22  30
ENDBRANCH   9  22
TORSDOF 4
ENDMDL
MODEL 8
REMARK VINA RESULT:      -9.4      7.240      8.886
REMARK  Name = 76959109
REMARK  4 active torsions:
REMARK  status: ('A' for Active; 'I' for Inactive)
REMARK    1  A    between atoms: O_2  and  C_17
REMARK    2  A    between atoms: O_2  and  C_24
REMARK    3  A    between atoms: C_18  and  C_26
REMARK    4  A    between atoms: C_20  and  C_25
REMARK                            x       y       z     vdW  Elec       q    Type
REMARK                         _______ _______ _______ _____ _____    ______ ____
ROOT
ATOM      1  O   UNL     1     111.095 128.817 136.435  0.00  0.00    +0.000 OA
ATOM      2  O   UNL     1     110.289 130.069 138.032  0.00  0.00    +0.000 OA
ATOM      3  O   UNL     1     112.676 128.442 138.824  0.00  0.00    +0.000 OA
ATOM      4  C   UNL     1     110.768 129.531 137.630  0.00  0.00    +0.000 C 
ATOM      5  C   UNL     1     110.616 129.355 136.838  0.00  0.00    +0.000 C 
ATOM      6  C   UNL     1     111.399 129.169 138.019  0.00  0.00    +0.000 C 
ATOM      7  C   UNL     1     111.878 128.631 137.617  0.00  0.00    +0.000 A 
ATOM      8  C   UNL     1     111.726 128.456 136.825  0.00  0.00    +0.000 A 
ATOM      9  C   UNL     1     112.876 127.517 136.795  0.00  0.00    +0.000 A 
ATOM     10  C   UNL     1     112.218 127.897 136.395  0.00  0.00    +0.000 A 
ATOM     11  C   UNL     1     112.531 128.261 138.033  0.00  0.00    +0.000 A 
ATOM     12  C   UNL     1     113.034 127.699 137.619  0.00  0.00    +0.000 A 
ENDROOT
BRANCH   5  16
ATOM     13  O   UNL     1     109.569 131.542 135.325  0.00  0.00    +0.000 OA
ATOM     14  O   UNL     1     107.879 129.343 136.015  0.00  0.00    +0.000 OA
ATOM     15  O   UNL     1     108.093 130.804 135.281  0.00  0.00    +0.000 OA
ATOM     16  C   UNL     1     109.985 129.717 136.449  0.00  0.00    +0.000 A 
ATOM     17  C   UNL     1     109.248 129.348 136.427  0.00  0.00    +0.000 A 
ATOM     18  C   UNL     1     110.092 130.448 136.082  0.00  0.00    +0.000 A 
ATOM     19  C   UNL     1     109.461 130.811 135.692  0.00  0.00    +0.000 A 
ATOM     20  C   UNL     1     108.617 129.711 136.037  0.00  0.00    +0.000 A 
ATOM     21  C   UNL     1     108.723 130.442 135.670  0.00  0.00    +0.000 A 
ENDBRANCH   5  16
BRANCH   9  22
ATOM     22  O   UNL     1     113.354 126.979 136.390  0.00  0.00    +0.000 OA
BRANCH  22  30
ATOM     23  O   UNL     1     112.508 125.836 136.537  0.00  0.00    +0.000 OA
ATOM     24  O   UNL     1     114.501 124.405 136.863  0.00  0.00    +0.000 OA
ATOM     25  O   UNL     1     114.682 126.025 136.608  0.00  0.00    +0.000 OA
ATOM     26  O   UNL     1     112.992 123.740 136.900  0.00  0.00    +0.000 OA
ATOM     27  C   UNL     1     113.837 124.882 136.754  0.00  0.00    +0.000 C 
ATOM     28  C   UNL     1     113.928 125.692 136.626  0.00  0.00    +0.000 C 
ATOM     29  C   UNL     1     113.083 124.549 136.773  0.00  0.00    +0.000 C 
ATOM     30  C   UNL     1     113.264 126.169 136.518  0.00  0.00    +0.000 C 
ATOM     31  C   UNL     1     112.419 125.026 136.664  0.00  0.00    +0.000 C 
BRANCH  31  34
ATOM     32  O   UNL     1     111.276 124.594 137.405  0.00  0.00    +0.000 OA
ATOM     33  O   UNL     1     111.297 124.462 135.981  0.00  0.00    +0.000 OA
ATOM     34  C   UNL     1     111.664 124.694 136.683  0.00  0.00    +0.000 C 
ENDBRANCH  31  34
ENDBRANCH  22  30
ENDBRANCH   9  22
TORSDOF 4
ENDMDL
MODEL 9
REMARK VINA RESULT:      -9.4      7.011      8.276
REMARK  Name = 76959109
REMARK  4 active torsions:
REMARK  status: ('A' for Active; 'I' for Inactive)
REMARK    1  A    between atoms: O_2  and  C_17
REMARK    2  A    between atoms: O_2  and  C_24
REMARK    3  A    between atoms: C_18  and  C_26
REMARK    4  A    between atoms: C_20  and  C_25
REMARK                            x       y       z     vdW  Elec       q    Type
REMARK                         _______ _______ _______ _____ _____    ______ ____
ROOT
ATOM      1  O   UNL     1     110.834 127.247 136.182  0.00  0.00    +0.000 OA
ATOM      2  O   UNL     1     112.977 126.827 136.198  0.00  0.00    +0.000 OA
ATOM      3  O   UNL     1     112.245 129.473 135.000  0.00  0.00    +0.000 OA
ATOM      4  C   UNL     1     112.259 127.215 136.075  0.00  0.00    +0.000 C 
ATOM      5  C   UNL     1     111.551 126.859 136.305  0.00  0.00    +0.000 C 
ATOM      6  C   UNL     1     112.248 127.961 135.720  0.00  0.00    +0.000 C 
ATOM      7  C   UNL     1     111.531 128.349 135.597  0.00  0.00    +0.000 A 
ATOM      8  C   UNL     1     110.824 127.992 135.828  0.00  0.00    +0.000 A 
ATOM      9  C   UNL     1     110.053 129.163 135.337  0.00  0.00    +0.000 A 
ATOM     10  C   UNL     1     110.070 128.386 135.705  0.00  0.00    +0.000 A 
ATOM     11  C   UNL     1     111.534 129.124 135.228  0.00  0.00    +0.000 A 
ATOM     12  C   UNL     1     110.789 129.534 135.097  0.00  0.00    +0.000 A 
ENDROOT
BRANCH   5  16
ATOM     13  O   UNL     1     111.574 125.238 138.659  0.00  0.00    +0.000 OA
ATOM     14  O   UNL     1     111.592 124.010 136.078  0.00  0.00    +0.000 OA
ATOM     15  O   UNL     1     111.593 123.879 137.723  0.00  0.00    +0.000 OA
ATOM     16  C   UNL     1     111.562 126.114 136.660  0.00  0.00    +0.000 A 
ATOM     17  C   UNL     1     111.572 125.435 136.191  0.00  0.00    +0.000 A 
ATOM     18  C   UNL     1     111.562 126.048 137.482  0.00  0.00    +0.000 A 
ATOM     19  C   UNL     1     111.573 125.303 137.836  0.00  0.00    +0.000 A 
ATOM     20  C   UNL     1     111.582 124.689 136.546  0.00  0.00    +0.000 A 
ATOM     21  C   UNL     1     111.583 124.624 137.368  0.00  0.00    +0.000 A 
ENDBRANCH   5  16
BRANCH   9  22
ATOM     22  O   UNL     1     109.334 129.548 135.215  0.00  0.00    +0.000 OA
BRANCH  22  30
ATOM     23  O   UNL     1     109.235 130.085 136.536  0.00  0.00    +0.000 OA
ATOM     24  O   UNL     1     108.121 132.102 135.632  0.00  0.00    +0.000 OA
ATOM     25  O   UNL     1     108.592 130.893 134.613  0.00  0.00    +0.000 OA
ATOM     26  O   UNL     1     108.392 131.966 137.253  0.00  0.00    +0.000 OA
ATOM     27  C   UNL     1     108.492 131.430 135.933  0.00  0.00    +0.000 C 
ATOM     28  C   UNL     1     108.727 130.826 135.423  0.00  0.00    +0.000 C 
ATOM     29  C   UNL     1     108.628 131.362 136.743  0.00  0.00    +0.000 C 
ATOM     30  C   UNL     1     109.099 130.153 135.724  0.00  0.00    +0.000 C 
ATOM     31  C   UNL     1     108.999 130.690 137.045  0.00  0.00    +0.000 C 
BRANCH  31  34
ATOM     32  O   UNL     1     108.585 130.235 138.334  0.00  0.00    +0.000 OA
ATOM     33  O   UNL     1     109.820 130.940 138.188  0.00  0.00    +0.000 OA
ATOM     34  C   UNL     1     109.135 130.622 137.855  0.00  0.00    +0.000 C 
ENDBRANCH  31  34
ENDBRANCH  22  30
ENDBRANCH   9  22
TORSDOF 4
ENDMDL
MODEL 10
REMARK VINA RESULT:      -9.4      7.492      9.765
REMARK  Name = 76959109
REMARK  4 active torsions:
REMARK  status: ('A' for Active; 'I' for Inactive)
REMARK    1  A    between atoms: O_2  and  C_17
REMARK    2  A    between atoms: O_2  and  C_24
REMARK    3  A    between atoms: C_18  and  C_26
REMARK    4  A    between atoms: C_20  and  C_25
REMARK                            x       y       z     vdW  Elec       q    Type
REMARK                         _______ _______ _______ _____ _____    ______ ____
ROOT
ATOM      1  O   UNL     1     112.491 128.622 138.398  0.00  0.00    +0.000 OA
ATOM      2  O   UNL     1     113.653 130.117 139.486  0.00  0.00    +0.000 OA
ATOM      3  O   UNL     1     113.930 127.329 140.543  0.00  0.00    +0.000 OA
ATOM      4  C   UNL     1     113.331 129.391 139.263  0.00  0.00    +0.000 C 
ATOM      5  C   UNL     1     112.813 129.348 138.621  0.00  0.00    +0.000 C 
ATOM      6  C   UNL     1     113.525 128.708 139.682  0.00  0.00    +0.000 C 
ATOM      7  C   UNL     1     113.203 127.982 139.459  0.00  0.00    +0.000 A 
ATOM      8  C   UNL     1     112.686 127.939 138.817  0.00  0.00    +0.000 A 
ATOM      9  C   UNL     1     112.542 126.473 139.008  0.00  0.00    +0.000 A 
ATOM     10  C   UNL     1     112.343 127.188 138.576  0.00  0.00    +0.000 A 
ATOM     11  C   UNL     1     113.413 127.277 139.903  0.00  0.00    +0.000 A 
ATOM     12  C   UNL     1     113.080 126.517 139.676  0.00  0.00    +0.000 A 
ENDROOT
BRANCH   5  16
ATOM     13  O   UNL     1     111.115 131.613 138.233  0.00  0.00    +0.000 OA
ATOM     14  O   UNL     1     113.344 131.186 136.497  0.00  0.00    +0.000 OA
ATOM     15  O   UNL     1     112.035 132.083 136.946  0.00  0.00    +0.000 OA
ATOM     16  C   UNL     1     112.619 130.032 138.202  0.00  0.00    +0.000 A 
ATOM     17  C   UNL     1     113.079 130.267 137.559  0.00  0.00    +0.000 A 
ATOM     18  C   UNL     1     111.964 130.481 138.426  0.00  0.00    +0.000 A 
ATOM     19  C   UNL     1     111.770 131.165 138.008  0.00  0.00    +0.000 A 
ATOM     20  C   UNL     1     112.885 130.950 137.140  0.00  0.00    +0.000 A 
ATOM     21  C   UNL     1     112.230 131.399 137.364  0.00  0.00    +0.000 A 
ENDBRANCH   5  16
BRANCH   9  22
ATOM     22  O   UNL     1     112.218 125.749 138.784  0.00  0.00    +0.000 OA
BRANCH  22  30
ATOM     23  O   UNL     1     113.325 125.365 137.964  0.00  0.00    +0.000 OA
ATOM     24  O   UNL     1     111.789 124.126 136.471  0.00  0.00    +0.000 OA
ATOM     25  O   UNL     1     111.195 124.922 137.788  0.00  0.00    +0.000 OA
ATOM     26  O   UNL     1     113.406 124.156 136.150  0.00  0.00    +0.000 OA
ATOM     27  C   UNL     1     112.301 124.539 136.968  0.00  0.00    +0.000 C 
ATOM     28  C   UNL     1     112.003 124.937 137.627  0.00  0.00    +0.000 C 
ATOM     29  C   UNL     1     113.109 124.554 136.808  0.00  0.00    +0.000 C 
ATOM     30  C   UNL     1     112.515 125.350 138.125  0.00  0.00    +0.000 C 
ATOM     31  C   UNL     1     113.621 124.967 137.306  0.00  0.00    +0.000 C 
BRANCH  31  34
ATOM     32  O   UNL     1     114.933 124.438 137.509  0.00  0.00    +0.000 OA
ATOM     33  O   UNL     1     114.737 125.542 136.622  0.00  0.00    +0.000 OA
ATOM     34  C   UNL     1     114.430 124.983 137.145  0.00  0.00    +0.000 C 
ENDBRANCH  31  34
ENDBRANCH  22  30
ENDBRANCH   9  22
TORSDOF 4
ENDMDL
