MODEL 1
REMARK VINA RESULT:     -10.0      0.000      0.000
REMARK  Name = 71326884
REMARK  8 active torsions:
REMARK  status: ('A' for Active; 'I' for Inactive)
REMARK    1  A    between atoms: O_1  and  C_18
REMARK    2  A    between atoms: O_1  and  C_20
REMARK    3  A    between atoms: O_5  and  C_25
REMARK    4  A    between atoms: O_5  and  C_30
REMARK    5  A    between atoms: O_15  and  C_42
REMARK    6  A    between atoms: O_16  and  C_43
REMARK    7  A    between atoms: C_27  and  C_29
REMARK    8  A    between atoms: C_37  and  C_39
REMARK                            x       y       z     vdW  Elec       q    Type
REMARK                         _______ _______ _______ _____ _____    ______ ____
ROOT
ATOM      1  O   UNL     1     111.926 127.614 137.429  0.00  0.00    +0.000 OA
ENDROOT
BRANCH   1   5
ATOM      2  O   UNL     1     112.905 128.975 139.811  0.00  0.00    +0.000 OA
ATOM      3  O   UNL     1     113.795 126.287 139.237  0.00  0.00    +0.000 OA
ATOM      4  O   UNL     1     114.259 126.991 140.407  0.00  0.00    +0.000 OA
ATOM      5  C   UNL     1     112.390 127.618 138.111  0.00  0.00    +0.000 A 
ATOM      6  C   UNL     1     112.407 128.312 138.619  0.00  0.00    +0.000 A 
ATOM      7  C   UNL     1     112.860 126.930 138.318  0.00  0.00    +0.000 A 
ATOM      8  C   UNL     1     112.893 128.307 139.327  0.00  0.00    +0.000 A 
ATOM      9  C   UNL     1     113.341 126.944 139.030  0.00  0.00    +0.000 A 
ATOM     10  C   UNL     1     113.344 127.645 139.526  0.00  0.00    +0.000 A 
ATOM     11  C   UNL     1     113.808 127.652 140.208  0.00  0.00    +0.000 A 
ATOM     12  C   UNL     1     113.368 128.982 140.493  0.00  0.00    +0.000 A 
ATOM     13  C   UNL     1     113.820 128.320 140.692  0.00  0.00    +0.000 A 
BRANCH  12  15
ATOM     14  O   UNL     1     113.416 131.654 142.429  0.00  0.00    +0.000 OA
ATOM     15  C   UNL     1     113.380 129.650 140.977  0.00  0.00    +0.000 A 
ATOM     16  C   UNL     1     112.798 129.752 141.554  0.00  0.00    +0.000 A 
ATOM     17  C   UNL     1     113.973 130.215 140.885  0.00  0.00    +0.000 A 
ATOM     18  C   UNL     1     113.985 130.883 141.369  0.00  0.00    +0.000 A 
ATOM     19  C   UNL     1     112.810 130.420 142.038  0.00  0.00    +0.000 A 
ATOM     20  C   UNL     1     113.404 130.986 141.945  0.00  0.00    +0.000 A 
BRANCH  18  21
ATOM     21  O   UNL     1     114.578 131.449 141.277  0.00  0.00    +0.000 OA
ATOM     22  C   UNL     1     115.286 131.248 140.904  0.00  0.00    +0.000 C 
ENDBRANCH  18  21
BRANCH  19  23
ATOM     23  O   UNL     1     112.229 130.523 142.614  0.00  0.00    +0.000 OA
ATOM     24  C   UNL     1     111.846 129.866 142.935  0.00  0.00    +0.000 C 
ENDBRANCH  19  23
ENDBRANCH  12  15
ENDBRANCH   1   5
BRANCH   1  31
ATOM     25  O   UNL     1     112.950 128.149 136.588  0.00  0.00    +0.000 OA
ATOM     26  O   UNL     1     111.227 129.237 135.182  0.00  0.00    +0.000 OA
ATOM     27  O   UNL     1     112.825 129.409 134.810  0.00  0.00    +0.000 OA
ATOM     28  C   UNL     1     111.577 128.425 136.306  0.00  0.00    +0.000 C 
ATOM     29  C   UNL     1     111.802 128.875 135.651  0.00  0.00    +0.000 C 
ATOM     30  C   UNL     1     112.601 128.960 135.465  0.00  0.00    +0.000 C 
ATOM     31  C   UNL     1     112.151 128.063 136.774  0.00  0.00    +0.000 C 
ATOM     32  C   UNL     1     113.175 128.598 135.934  0.00  0.00    +0.000 C 
BRANCH  32  35
ATOM     33  O   UNL     1     114.377 128.074 135.365  0.00  0.00    +0.000 OA
ATOM     34  O   UNL     1     114.369 129.381 135.943  0.00  0.00    +0.000 OA
ATOM     35  C   UNL     1     113.973 128.684 135.747  0.00  0.00    +0.000 C 
ENDBRANCH  32  35
BRANCH  28  36
ATOM     36  O   UNL     1     110.777 128.340 136.492  0.00  0.00    +0.000 OA
BRANCH  36  41
ATOM     37  O   UNL     1     110.698 127.199 135.633  0.00  0.00    +0.000 OA
ATOM     38  O   UNL     1     109.150 128.259 136.748  0.00  0.00    +0.000 OA
ATOM     39  O   UNL     1     108.256 127.079 136.019  0.00  0.00    +0.000 OA
ATOM     40  O   UNL     1     108.991 125.979 135.033  0.00  0.00    +0.000 OA
ATOM     41  C   UNL     1     110.331 127.749 136.126  0.00  0.00    +0.000 C 
ATOM     42  C   UNL     1     109.517 127.709 136.255  0.00  0.00    +0.000 C 
ATOM     43  C   UNL     1     109.070 127.119 135.890  0.00  0.00    +0.000 C 
ATOM     44  C   UNL     1     109.437 126.569 135.397  0.00  0.00    +0.000 C 
ATOM     45  C   UNL     1     110.252 126.610 135.269  0.00  0.00    +0.000 C 
ATOM     46  C   UNL     1     110.619 126.060 134.776  0.00  0.00    +0.000 C 
ENDBRANCH  36  41
ENDBRANCH  28  36
ENDBRANCH   1  31
TORSDOF 8
ENDMDL
MODEL 2
REMARK VINA RESULT:     -10.0      1.578      6.257
REMARK  Name = 71326884
REMARK  8 active torsions:
REMARK  status: ('A' for Active; 'I' for Inactive)
REMARK    1  A    between atoms: O_1  and  C_18
REMARK    2  A    between atoms: O_1  and  C_20
REMARK    3  A    between atoms: O_5  and  C_25
REMARK    4  A    between atoms: O_5  and  C_30
REMARK    5  A    between atoms: O_15  and  C_42
REMARK    6  A    between atoms: O_16  and  C_43
REMARK    7  A    between atoms: C_27  and  C_29
REMARK    8  A    between atoms: C_37  and  C_39
REMARK                            x       y       z     vdW  Elec       q    Type
REMARK                         _______ _______ _______ _____ _____    ______ ____
ROOT
ATOM      1  O   UNL     1     113.339 129.354 138.843  0.00  0.00    +0.000 OA
ENDROOT
BRANCH   1   5
ATOM      2  O   UNL     1     111.185 129.689 136.912  0.00  0.00    +0.000 OA
ATOM      3  O   UNL     1     113.808 128.894 135.998  0.00  0.00    +0.000 OA
ATOM      4  O   UNL     1     112.718 129.070 135.070  0.00  0.00    +0.000 OA
ATOM      5  C   UNL     1     113.066 129.333 138.065  0.00  0.00    +0.000 A 
ATOM      6  C   UNL     1     112.247 129.527 137.888  0.00  0.00    +0.000 A 
ATOM      7  C   UNL     1     113.597 129.118 137.425  0.00  0.00    +0.000 A 
ATOM      8  C   UNL     1     111.971 129.503 137.075  0.00  0.00    +0.000 A 
ATOM      9  C   UNL     1     113.304 129.100 136.618  0.00  0.00    +0.000 A 
ATOM     10  C   UNL     1     112.482 129.296 136.461  0.00  0.00    +0.000 A 
ATOM     11  C   UNL     1     112.207 129.276 135.684  0.00  0.00    +0.000 A 
ATOM     12  C   UNL     1     110.909 129.670 136.134  0.00  0.00    +0.000 A 
ATOM     13  C   UNL     1     111.420 129.463 135.521  0.00  0.00    +0.000 A 
BRANCH  12  15
ATOM     14  O   UNL     1     107.761 130.415 135.481  0.00  0.00    +0.000 OA
ATOM     15  C   UNL     1     110.122 129.856 135.971  0.00  0.00    +0.000 A 
ATOM     16  C   UNL     1     109.547 129.264 135.980  0.00  0.00    +0.000 A 
ATOM     17  C   UNL     1     109.910 130.634 135.799  0.00  0.00    +0.000 A 
ATOM     18  C   UNL     1     109.123 130.820 135.635  0.00  0.00    +0.000 A 
ATOM     19  C   UNL     1     108.760 129.450 135.816  0.00  0.00    +0.000 A 
ATOM     20  C   UNL     1     108.548 130.229 135.644  0.00  0.00    +0.000 A 
BRANCH  18  21
ATOM     21  O   UNL     1     108.910 131.599 135.463  0.00  0.00    +0.000 OA
ATOM     22  C   UNL     1     109.214 132.219 135.915  0.00  0.00    +0.000 C 
ENDBRANCH  18  21
BRANCH  19  23
ATOM     23  O   UNL     1     108.186 128.859 135.825  0.00  0.00    +0.000 OA
ATOM     24  C   UNL     1     108.411 128.065 135.820  0.00  0.00    +0.000 C 
ENDBRANCH  19  23
ENDBRANCH  12  15
ENDBRANCH   1   5
BRANCH   1  31
ATOM     25  O   UNL     1     112.836 128.044 139.115  0.00  0.00    +0.000 OA
ATOM     26  O   UNL     1     114.417 127.831 141.008  0.00  0.00    +0.000 OA
ATOM     27  O   UNL     1     113.388 126.593 140.649  0.00  0.00    +0.000 OA
ATOM     28  C   UNL     1     113.878 128.593 139.925  0.00  0.00    +0.000 C 
ATOM     29  C   UNL     1     113.890 127.902 140.377  0.00  0.00    +0.000 C 
ATOM     30  C   UNL     1     113.375 127.283 140.197  0.00  0.00    +0.000 C 
ATOM     31  C   UNL     1     113.351 128.664 139.294  0.00  0.00    +0.000 C 
ATOM     32  C   UNL     1     112.848 127.354 139.566  0.00  0.00    +0.000 C 
BRANCH  32  35
ATOM     33  O   UNL     1     111.582 126.711 139.726  0.00  0.00    +0.000 OA
ATOM     34  O   UNL     1     112.571 126.139 138.868  0.00  0.00    +0.000 OA
ATOM     35  C   UNL     1     112.334 126.735 139.387  0.00  0.00    +0.000 C 
ENDBRANCH  32  35
BRANCH  28  36
ATOM     36  O   UNL     1     114.392 129.212 140.105  0.00  0.00    +0.000 OA
BRANCH  36  41
ATOM     37  O   UNL     1     113.434 129.742 141.024  0.00  0.00    +0.000 OA
ATOM     38  O   UNL     1     115.383 130.498 140.396  0.00  0.00    +0.000 OA
ATOM     39  O   UNL     1     114.921 131.672 141.460  0.00  0.00    +0.000 OA
ATOM     40  O   UNL     1     113.468 131.558 142.233  0.00  0.00    +0.000 OA
ATOM     41  C   UNL     1     114.161 129.799 140.638  0.00  0.00    +0.000 C 
ATOM     42  C   UNL     1     114.657 130.442 140.783  0.00  0.00    +0.000 C 
ATOM     43  C   UNL     1     114.425 131.029 141.315  0.00  0.00    +0.000 C 
ATOM     44  C   UNL     1     113.699 130.972 141.702  0.00  0.00    +0.000 C 
ATOM     45  C   UNL     1     113.203 130.328 141.556  0.00  0.00    +0.000 C 
ATOM     46  C   UNL     1     112.477 130.271 141.942  0.00  0.00    +0.000 C 
ENDBRANCH  36  41
ENDBRANCH  28  36
ENDBRANCH   1  31
TORSDOF 8
ENDMDL
MODEL 3
REMARK VINA RESULT:      -9.9      7.826     10.145
REMARK  Name = 71326884
REMARK  8 active torsions:
REMARK  status: ('A' for Active; 'I' for Inactive)
REMARK    1  A    between atoms: O_1  and  C_18
REMARK    2  A    between atoms: O_1  and  C_20
REMARK    3  A    between atoms: O_5  and  C_25
REMARK    4  A    between atoms: O_5  and  C_30
REMARK    5  A    between atoms: O_15  and  C_42
REMARK    6  A    between atoms: O_16  and  C_43
REMARK    7  A    between atoms: C_27  and  C_29
REMARK    8  A    between atoms: C_37  and  C_39
REMARK                            x       y       z     vdW  Elec       q    Type
REMARK                         _______ _______ _______ _____ _____    ______ ____
ROOT
ATOM      1  O   UNL     1     105.138 128.174 142.784  0.00  0.00    +0.000 OA
ENDROOT
BRANCH   1   5
ATOM      2  O   UNL     1     103.333 130.294 141.927  0.00  0.00    +0.000 OA
ATOM      3  O   UNL     1     103.647 127.939 140.284  0.00  0.00    +0.000 OA
ATOM      4  O   UNL     1     102.762 129.008 139.891  0.00  0.00    +0.000 OA
ATOM      5  C   UNL     1     104.601 128.480 142.237  0.00  0.00    +0.000 A 
ATOM      6  C   UNL     1     104.237 129.247 142.370  0.00  0.00    +0.000 A 
ATOM      7  C   UNL     1     104.402 128.034 141.530  0.00  0.00    +0.000 A 
ATOM      8  C   UNL     1     103.680 129.557 141.794  0.00  0.00    +0.000 A 
ATOM      9  C   UNL     1     103.843 128.360 140.965  0.00  0.00    +0.000 A 
ATOM     10  C   UNL     1     103.489 129.129 141.116  0.00  0.00    +0.000 A 
ATOM     11  C   UNL     1     102.953 129.437 140.570  0.00  0.00    +0.000 A 
ATOM     12  C   UNL     1     102.797 130.603 141.382  0.00  0.00    +0.000 A 
ATOM     13  C   UNL     1     102.606 130.174 140.703  0.00  0.00    +0.000 A 
BRANCH  12  15
ATOM     14  O   UNL     1     101.411 133.549 141.914  0.00  0.00    +0.000 OA
ATOM     15  C   UNL     1     102.450 131.339 141.515  0.00  0.00    +0.000 A 
ATOM     16  C   UNL     1     101.753 131.394 141.953  0.00  0.00    +0.000 A 
ATOM     17  C   UNL     1     102.800 132.020 141.210  0.00  0.00    +0.000 A 
ATOM     18  C   UNL     1     102.454 132.757 141.343  0.00  0.00    +0.000 A 
ATOM     19  C   UNL     1     101.407 132.131 142.087  0.00  0.00    +0.000 A 
ATOM     20  C   UNL     1     101.757 132.813 141.781  0.00  0.00    +0.000 A 
BRANCH  18  21
ATOM     21  O   UNL     1     102.803 133.439 141.038  0.00  0.00    +0.000 OA
ATOM     22  C   UNL     1     103.622 133.534 141.072  0.00  0.00    +0.000 C 
ENDBRANCH  18  21
BRANCH  19  23
ATOM     23  O   UNL     1     100.710 132.186 142.525  0.00  0.00    +0.000 OA
ATOM     24  C   UNL     1     100.711 131.994 143.327  0.00  0.00    +0.000 C 
ENDBRANCH  19  23
ENDBRANCH  12  15
ENDBRANCH   1   5
BRANCH   1  31
ATOM     25  O   UNL     1     106.293 128.807 142.230  0.00  0.00    +0.000 OA
ATOM     26  O   UNL     1     107.665 126.841 142.844  0.00  0.00    +0.000 OA
ATOM     27  O   UNL     1     108.362 128.129 142.086  0.00  0.00    +0.000 OA
ATOM     28  C   UNL     1     106.401 127.508 142.814  0.00  0.00    +0.000 C 
ATOM     29  C   UNL     1     107.207 127.496 142.639  0.00  0.00    +0.000 C 
ATOM     30  C   UNL     1     107.556 128.141 142.260  0.00  0.00    +0.000 C 
ATOM     31  C   UNL     1     105.943 128.163 142.609  0.00  0.00    +0.000 C 
ATOM     32  C   UNL     1     107.098 128.796 142.055  0.00  0.00    +0.000 C 
BRANCH  32  35
ATOM     33  O   UNL     1     107.495 129.458 140.853  0.00  0.00    +0.000 OA
ATOM     34  O   UNL     1     107.748 130.066 142.121  0.00  0.00    +0.000 OA
ATOM     35  C   UNL     1     107.447 129.440 141.676  0.00  0.00    +0.000 C 
ENDBRANCH  32  35
BRANCH  28  36
ATOM     36  O   UNL     1     106.052 126.863 143.193  0.00  0.00    +0.000 OA
BRANCH  36  41
ATOM     37  O   UNL     1     106.380 127.423 144.467  0.00  0.00    +0.000 OA
ATOM     38  O   UNL     1     105.599 125.457 143.928  0.00  0.00    +0.000 OA
ATOM     39  O   UNL     1     105.700 125.314 145.569  0.00  0.00    +0.000 OA
ATOM     40  O   UNL     1     106.254 126.577 146.475  0.00  0.00    +0.000 OA
ATOM     41  C   UNL     1     106.103 126.792 144.014  0.00  0.00    +0.000 C 
ATOM     42  C   UNL     1     105.876 126.089 144.381  0.00  0.00    +0.000 C 
ATOM     43  C   UNL     1     105.927 126.017 145.202  0.00  0.00    +0.000 C 
ATOM     44  C   UNL     1     106.203 126.649 145.655  0.00  0.00    +0.000 C 
ATOM     45  C   UNL     1     106.430 127.352 145.287  0.00  0.00    +0.000 C 
ATOM     46  C   UNL     1     106.707 127.983 145.740  0.00  0.00    +0.000 C 
ENDBRANCH  36  41
ENDBRANCH  28  36
ENDBRANCH   1  31
TORSDOF 8
ENDMDL
MODEL 4
REMARK VINA RESULT:      -9.9      2.432      5.676
REMARK  Name = 71326884
REMARK  8 active torsions:
REMARK  status: ('A' for Active; 'I' for Inactive)
REMARK    1  A    between atoms: O_1  and  C_18
REMARK    2  A    between atoms: O_1  and  C_20
REMARK    3  A    between atoms: O_5  and  C_25
REMARK    4  A    between atoms: O_5  and  C_30
REMARK    5  A    between atoms: O_15  and  C_42
REMARK    6  A    between atoms: O_16  and  C_43
REMARK    7  A    between atoms: C_27  and  C_29
REMARK    8  A    between atoms: C_37  and  C_39
REMARK                            x       y       z     vdW  Elec       q    Type
REMARK                         _______ _______ _______ _____ _____    ______ ____
ROOT
ATOM      1  O   UNL     1     111.583 129.680 138.913  0.00  0.00    +0.000 OA
ENDROOT
BRANCH   1   5
ATOM      2  O   UNL     1     112.436 127.297 137.471  0.00  0.00    +0.000 OA
ATOM      3  O   UNL     1     113.553 129.867 136.766  0.00  0.00    +0.000 OA
ATOM      4  O   UNL     1     113.952 128.667 136.074  0.00  0.00    +0.000 OA
ATOM      5  C   UNL     1     112.043 129.324 138.329  0.00  0.00    +0.000 A 
ATOM      6  C   UNL     1     112.000 128.474 138.200  0.00  0.00    +0.000 A 
ATOM      7  C   UNL     1     112.570 129.798 137.843  0.00  0.00    +0.000 A 
ATOM      8  C   UNL     1     112.483 128.113 137.589  0.00  0.00    +0.000 A 
ATOM      9  C   UNL     1     113.045 129.418 137.237  0.00  0.00    +0.000 A 
ATOM     10  C   UNL     1     112.988 128.569 137.123  0.00  0.00    +0.000 A 
ATOM     11  C   UNL     1     113.447 128.210 136.539  0.00  0.00    +0.000 A 
ATOM     12  C   UNL     1     112.896 126.939 136.887  0.00  0.00    +0.000 A 
ATOM     13  C   UNL     1     113.401 127.395 136.421  0.00  0.00    +0.000 A 
BRANCH  12  15
ATOM     14  O   UNL     1     112.710 123.678 136.413  0.00  0.00    +0.000 OA
ATOM     15  C   UNL     1     112.850 126.123 136.768  0.00  0.00    +0.000 A 
ATOM     16  C   UNL     1     112.183 125.796 136.408  0.00  0.00    +0.000 A 
ATOM     17  C   UNL     1     113.469 125.636 137.010  0.00  0.00    +0.000 A 
ATOM     18  C   UNL     1     113.423 124.821 136.892  0.00  0.00    +0.000 A 
ATOM     19  C   UNL     1     112.137 124.981 136.290  0.00  0.00    +0.000 A 
ATOM     20  C   UNL     1     112.757 124.493 136.532  0.00  0.00    +0.000 A 
BRANCH  18  21
ATOM     21  O   UNL     1     114.042 124.332 137.133  0.00  0.00    +0.000 OA
ATOM     22  C   UNL     1     114.715 124.661 137.481  0.00  0.00    +0.000 C 
ENDBRANCH  18  21
BRANCH  19  23
ATOM     23  O   UNL     1     111.471 124.654 135.929  0.00  0.00    +0.000 OA
ATOM     24  C   UNL     1     110.856 125.142 135.677  0.00  0.00    +0.000 C 
ENDBRANCH  19  23
ENDBRANCH  12  15
ENDBRANCH   1   5
BRANCH   1  31
ATOM     25  O   UNL     1     112.541 129.375 139.929  0.00  0.00    +0.000 OA
ATOM     26  O   UNL     1     111.592 131.158 141.359  0.00  0.00    +0.000 OA
ATOM     27  O   UNL     1     112.865 130.259 141.897  0.00  0.00    +0.000 OA
ATOM     28  C   UNL     1     111.587 130.419 140.136  0.00  0.00    +0.000 C 
ATOM     29  C   UNL     1     111.908 130.564 140.882  0.00  0.00    +0.000 C 
ATOM     30  C   UNL     1     112.545 130.114 141.151  0.00  0.00    +0.000 C 
ATOM     31  C   UNL     1     111.904 129.824 139.659  0.00  0.00    +0.000 C 
ATOM     32  C   UNL     1     112.861 129.520 140.675  0.00  0.00    +0.000 C 
BRANCH  32  35
ATOM     33  O   UNL     1     113.364 128.356 141.335  0.00  0.00    +0.000 OA
ATOM     34  O   UNL     1     114.270 129.335 140.823  0.00  0.00    +0.000 OA
ATOM     35  C   UNL     1     113.498 129.071 140.944  0.00  0.00    +0.000 C 
ENDBRANCH  32  35
BRANCH  28  36
ATOM     36  O   UNL     1     110.950 130.868 139.867  0.00  0.00    +0.000 OA
BRANCH  36  41
ATOM     37  O   UNL     1     110.043 129.953 140.485  0.00  0.00    +0.000 OA
ATOM     38  O   UNL     1     109.674 131.750 139.303  0.00  0.00    +0.000 OA
ATOM     39  O   UNL     1     108.130 131.275 139.639  0.00  0.00    +0.000 OA
ATOM     40  O   UNL     1     107.862 129.919 140.540  0.00  0.00    +0.000 OA
ATOM     41  C   UNL     1     110.178 130.631 140.035  0.00  0.00    +0.000 C 
ATOM     42  C   UNL     1     109.540 131.072 139.753  0.00  0.00    +0.000 C 
ATOM     43  C   UNL     1     108.768 130.834 139.921  0.00  0.00    +0.000 C 
ATOM     44  C   UNL     1     108.633 130.156 140.372  0.00  0.00    +0.000 C 
ATOM     45  C   UNL     1     109.272 129.716 140.653  0.00  0.00    +0.000 C 
ATOM     46  C   UNL     1     109.138 129.038 141.104  0.00  0.00    +0.000 C 
ENDBRANCH  36  41
ENDBRANCH  28  36
ENDBRANCH   1  31
TORSDOF 8
ENDMDL
MODEL 5
REMARK VINA RESULT:      -9.9      2.668      4.791
REMARK  Name = 71326884
REMARK  8 active torsions:
REMARK  status: ('A' for Active; 'I' for Inactive)
REMARK    1  A    between atoms: O_1  and  C_18
REMARK    2  A    between atoms: O_1  and  C_20
REMARK    3  A    between atoms: O_5  and  C_25
REMARK    4  A    between atoms: O_5  and  C_30
REMARK    5  A    between atoms: O_15  and  C_42
REMARK    6  A    between atoms: O_16  and  C_43
REMARK    7  A    between atoms: C_27  and  C_29
REMARK    8  A    between atoms: C_37  and  C_39
REMARK                            x       y       z     vdW  Elec       q    Type
REMARK                         _______ _______ _______ _____ _____    ______ ____
ROOT
ATOM      1  O   UNL     1     112.839 127.830 137.841  0.00  0.00    +0.000 OA
ENDROOT
BRANCH   1   5
ATOM      2  O   UNL     1     111.005 130.092 137.752  0.00  0.00    +0.000 OA
ATOM      3  O   UNL     1     113.795 130.493 137.118  0.00  0.00    +0.000 OA
ATOM      4  O   UNL     1     112.859 131.590 137.084  0.00  0.00    +0.000 OA
ATOM      5  C   UNL     1     112.697 128.632 137.708  0.00  0.00    +0.000 A 
ATOM      6  C   UNL     1     111.905 128.953 137.801  0.00  0.00    +0.000 A 
ATOM      7  C   UNL     1     113.340 129.153 137.476  0.00  0.00    +0.000 A 
ATOM      8  C   UNL     1     111.767 129.790 137.661  0.00  0.00    +0.000 A 
ATOM      9  C   UNL     1     113.183 129.987 137.341  0.00  0.00    +0.000 A 
ATOM     10  C   UNL     1     112.385 130.289 137.438  0.00  0.00    +0.000 A 
ATOM     11  C   UNL     1     112.241 131.090 137.307  0.00  0.00    +0.000 A 
ATOM     12  C   UNL     1     110.860 130.894 137.620  0.00  0.00    +0.000 A 
ATOM     13  C   UNL     1     111.478 131.393 137.397  0.00  0.00    +0.000 A 
BRANCH  12  15
ATOM     14  O   UNL     1     107.812 132.103 137.983  0.00  0.00    +0.000 OA
ATOM     15  C   UNL     1     110.098 131.196 137.711  0.00  0.00    +0.000 A 
ATOM     16  C   UNL     1     109.691 131.491 137.056  0.00  0.00    +0.000 A 
ATOM     17  C   UNL     1     109.744 131.203 138.455  0.00  0.00    +0.000 A 
ATOM     18  C   UNL     1     108.981 131.505 138.546  0.00  0.00    +0.000 A 
ATOM     19  C   UNL     1     108.929 131.793 137.147  0.00  0.00    +0.000 A 
ATOM     20  C   UNL     1     108.574 131.801 137.892  0.00  0.00    +0.000 A 
BRANCH  18  21
ATOM     21  O   UNL     1     108.626 131.513 139.290  0.00  0.00    +0.000 OA
ATOM     22  C   UNL     1     108.769 130.899 139.822  0.00  0.00    +0.000 C 
ENDBRANCH  18  21
BRANCH  19  23
ATOM     23  O   UNL     1     108.521 132.088 136.493  0.00  0.00    +0.000 OA
ATOM     24  C   UNL     1     108.571 131.700 135.767  0.00  0.00    +0.000 C 
ENDBRANCH  19  23
ENDBRANCH  12  15
ENDBRANCH   1   5
BRANCH   1  31
ATOM     25  O   UNL     1     113.283 127.952 139.193  0.00  0.00    +0.000 OA
ATOM     26  O   UNL     1     112.128 125.838 139.763  0.00  0.00    +0.000 OA
ATOM     27  O   UNL     1     112.957 126.664 140.925  0.00  0.00    +0.000 OA
ATOM     28  C   UNL     1     112.483 126.835 138.801  0.00  0.00    +0.000 C 
ATOM     29  C   UNL     1     112.513 126.543 139.573  0.00  0.00    +0.000 C 
ATOM     30  C   UNL     1     112.928 126.956 140.154  0.00  0.00    +0.000 C 
ATOM     31  C   UNL     1     112.868 127.539 138.611  0.00  0.00    +0.000 C 
ATOM     32  C   UNL     1     113.313 127.660 139.964  0.00  0.00    +0.000 C 
BRANCH  32  35
ATOM     33  O   UNL     1     113.342 128.640 141.004  0.00  0.00    +0.000 OA
ATOM     34  O   UNL     1     114.529 127.919 140.668  0.00  0.00    +0.000 OA
ATOM     35  C   UNL     1     113.728 128.073 140.545  0.00  0.00    +0.000 C 
ENDBRANCH  32  35
BRANCH  28  36
ATOM     36  O   UNL     1     112.068 126.421 138.220  0.00  0.00    +0.000 OA
BRANCH  36  41
ATOM     37  O   UNL     1     113.249 125.704 137.853  0.00  0.00    +0.000 OA
ATOM     38  O   UNL     1     111.151 125.347 137.368  0.00  0.00    +0.000 OA
ATOM     39  O   UNL     1     111.872 124.092 136.575  0.00  0.00    +0.000 OA
ATOM     40  O   UNL     1     113.511 123.913 136.635  0.00  0.00    +0.000 OA
ATOM     41  C   UNL     1     112.430 125.794 137.824  0.00  0.00    +0.000 C 
ATOM     42  C   UNL     1     111.970 125.257 137.398  0.00  0.00    +0.000 C 
ATOM     43  C   UNL     1     112.332 124.629 137.001  0.00  0.00    +0.000 C 
ATOM     44  C   UNL     1     113.151 124.539 137.031  0.00  0.00    +0.000 C 
ATOM     45  C   UNL     1     113.609 125.077 137.457  0.00  0.00    +0.000 C 
ATOM     46  C   UNL     1     114.429 124.987 137.487  0.00  0.00    +0.000 C 
ENDBRANCH  36  41
ENDBRANCH  28  36
ENDBRANCH   1  31
TORSDOF 8
ENDMDL
MODEL 6
REMARK VINA RESULT:      -9.7      2.100      6.194
REMARK  Name = 71326884
REMARK  8 active torsions:
REMARK  status: ('A' for Active; 'I' for Inactive)
REMARK    1  A    between atoms: O_1  and  C_18
REMARK    2  A    between atoms: O_1  and  C_20
REMARK    3  A    between atoms: O_5  and  C_25
REMARK    4  A    between atoms: O_5  and  C_30
REMARK    5  A    between atoms: O_15  and  C_42
REMARK    6  A    between atoms: O_16  and  C_43
REMARK    7  A    between atoms: C_27  and  C_29
REMARK    8  A    between atoms: C_37  and  C_39
REMARK                            x       y       z     vdW  Elec       q    Type
REMARK                         _______ _______ _______ _____ _____    ______ ____
ROOT
ATOM      1  O   UNL     1     111.813 129.483 139.363  0.00  0.00    +0.000 OA
ENDROOT
BRANCH   1   5
ATOM      2  O   UNL     1     112.048 127.241 137.517  0.00  0.00    +0.000 OA
ATOM      3  O   UNL     1     113.456 129.701 136.959  0.00  0.00    +0.000 OA
ATOM      4  O   UNL     1     113.549 128.571 136.067  0.00  0.00    +0.000 OA
ATOM      5  C   UNL     1     112.120 129.154 138.671  0.00  0.00    +0.000 A 
ATOM      6  C   UNL     1     111.919 128.348 138.448  0.00  0.00    +0.000 A 
ATOM      7  C   UNL     1     112.641 129.615 138.167  0.00  0.00    +0.000 A 
ATOM      8  C   UNL     1     112.243 128.015 137.726  0.00  0.00    +0.000 A 
ATOM      9  C   UNL     1     112.955 129.265 137.448  0.00  0.00    +0.000 A 
ATOM     10  C   UNL     1     112.744 128.458 137.242  0.00  0.00    +0.000 A 
ATOM     11  C   UNL     1     113.049 128.127 136.551  0.00  0.00    +0.000 A 
ATOM     12  C   UNL     1     112.352 126.910 136.826  0.00  0.00    +0.000 A 
ATOM     13  C   UNL     1     112.853 127.353 136.342  0.00  0.00    +0.000 A 
BRANCH  12  15
ATOM     14  O   UNL     1     111.569 123.815 135.992  0.00  0.00    +0.000 OA
ATOM     15  C   UNL     1     112.157 126.136 136.617  0.00  0.00    +0.000 A 
ATOM     16  C   UNL     1     111.485 125.990 136.161  0.00  0.00    +0.000 A 
ATOM     17  C   UNL     1     112.632 125.510 136.865  0.00  0.00    +0.000 A 
ATOM     18  C   UNL     1     112.436 124.736 136.657  0.00  0.00    +0.000 A 
ATOM     19  C   UNL     1     111.289 125.216 135.952  0.00  0.00    +0.000 A 
ATOM     20  C   UNL     1     111.765 124.589 136.201  0.00  0.00    +0.000 A 
BRANCH  18  21
ATOM     21  O   UNL     1     112.911 124.109 136.905  0.00  0.00    +0.000 OA
ATOM     22  C   UNL     1     113.716 124.229 137.039  0.00  0.00    +0.000 C 
ENDBRANCH  18  21
BRANCH  19  23
ATOM     23  O   UNL     1     110.618 125.069 135.496  0.00  0.00    +0.000 OA
ATOM     24  C   UNL     1     110.178 125.698 135.194  0.00  0.00    +0.000 C 
ENDBRANCH  19  23
ENDBRANCH  12  15
ENDBRANCH   1   5
BRANCH   1  31
ATOM     25  O   UNL     1     110.603 129.914 138.738  0.00  0.00    +0.000 OA
ATOM     26  O   UNL     1     110.408 131.752 140.384  0.00  0.00    +0.000 OA
ATOM     27  O   UNL     1     109.263 131.570 139.211  0.00  0.00    +0.000 OA
ATOM     28  C   UNL     1     111.111 130.617 139.873  0.00  0.00    +0.000 C 
ATOM     29  C   UNL     1     110.473 131.139 139.835  0.00  0.00    +0.000 C 
ATOM     30  C   UNL     1     109.901 131.048 139.248  0.00  0.00    +0.000 C 
ATOM     31  C   UNL     1     111.176 130.004 139.324  0.00  0.00    +0.000 C 
ATOM     32  C   UNL     1     109.965 130.435 138.700  0.00  0.00    +0.000 C 
BRANCH  32  35
ATOM     33  O   UNL     1     109.470 130.743 137.395  0.00  0.00    +0.000 OA
ATOM     34  O   UNL     1     108.742 129.855 138.245  0.00  0.00    +0.000 OA
ATOM     35  C   UNL     1     109.393 130.345 138.113  0.00  0.00    +0.000 C 
ENDBRANCH  32  35
BRANCH  28  36
ATOM     36  O   UNL     1     111.684 130.708 140.460  0.00  0.00    +0.000 OA
BRANCH  36  41
ATOM     37  O   UNL     1     110.951 129.847 141.335  0.00  0.00    +0.000 OA
ATOM     38  O   UNL     1     112.632 131.184 141.723  0.00  0.00    +0.000 OA
ATOM     39  O   UNL     1     112.375 130.561 143.229  0.00  0.00    +0.000 OA
ATOM     40  O   UNL     1     111.169 129.462 143.472  0.00  0.00    +0.000 OA
ATOM     41  C   UNL     1     111.555 130.396 141.213  0.00  0.00    +0.000 C 
ATOM     42  C   UNL     1     112.029 130.635 141.845  0.00  0.00    +0.000 C 
ATOM     43  C   UNL     1     111.900 130.323 142.598  0.00  0.00    +0.000 C 
ATOM     44  C   UNL     1     111.297 129.773 142.720  0.00  0.00    +0.000 C 
ATOM     45  C   UNL     1     110.823 129.535 142.087  0.00  0.00    +0.000 C 
ATOM     46  C   UNL     1     110.220 128.986 142.209  0.00  0.00    +0.000 C 
ENDBRANCH  36  41
ENDBRANCH  28  36
ENDBRANCH   1  31
TORSDOF 8
ENDMDL
MODEL 7
REMARK VINA RESULT:      -9.7      2.572      5.559
REMARK  Name = 71326884
REMARK  8 active torsions:
REMARK  status: ('A' for Active; 'I' for Inactive)
REMARK    1  A    between atoms: O_1  and  C_18
REMARK    2  A    between atoms: O_1  and  C_20
REMARK    3  A    between atoms: O_5  and  C_25
REMARK    4  A    between atoms: O_5  and  C_30
REMARK    5  A    between atoms: O_15  and  C_42
REMARK    6  A    between atoms: O_16  and  C_43
REMARK    7  A    between atoms: C_27  and  C_29
REMARK    8  A    between atoms: C_37  and  C_39
REMARK                            x       y       z     vdW  Elec       q    Type
REMARK                         _______ _______ _______ _____ _____    ______ ____
ROOT
ATOM      1  O   UNL     1     111.795 129.960 137.754  0.00  0.00    +0.000 OA
ENDROOT
BRANCH   1   5
ATOM      2  O   UNL     1     112.623 127.282 136.961  0.00  0.00    +0.000 OA
ATOM      3  O   UNL     1     114.062 129.576 135.955  0.00  0.00    +0.000 OA
ATOM      4  O   UNL     1     114.444 128.235 135.584  0.00  0.00    +0.000 OA
ATOM      5  C   UNL     1     112.300 129.463 137.331  0.00  0.00    +0.000 A 
ATOM      6  C   UNL     1     112.196 128.610 137.367  0.00  0.00    +0.000 A 
ATOM      7  C   UNL     1     112.932 129.793 136.853  0.00  0.00    +0.000 A 
ATOM      8  C   UNL     1     112.727 128.100 136.923  0.00  0.00    +0.000 A 
ATOM      9  C   UNL     1     113.453 129.267 136.416  0.00  0.00    +0.000 A 
ATOM     10  C   UNL     1     113.334 128.417 136.464  0.00  0.00    +0.000 A 
ATOM     11  C   UNL     1     113.837 127.918 136.043  0.00  0.00    +0.000 A 
ATOM     12  C   UNL     1     113.126 126.782 136.540  0.00  0.00    +0.000 A 
ATOM     13  C   UNL     1     113.733 127.100 136.081  0.00  0.00    +0.000 A 
BRANCH  12  15
ATOM     14  O   UNL     1     112.710 123.512 136.692  0.00  0.00    +0.000 OA
ATOM     15  C   UNL     1     113.022 125.965 136.578  0.00  0.00    +0.000 A 
ATOM     16  C   UNL     1     113.620 125.487 136.885  0.00  0.00    +0.000 A 
ATOM     17  C   UNL     1     112.320 125.626 136.309  0.00  0.00    +0.000 A 
ATOM     18  C   UNL     1     112.216 124.808 136.347  0.00  0.00    +0.000 A 
ATOM     19  C   UNL     1     113.516 124.669 136.923  0.00  0.00    +0.000 A 
ATOM     20  C   UNL     1     112.814 124.330 136.654  0.00  0.00    +0.000 A 
BRANCH  18  21
ATOM     21  O   UNL     1     111.515 124.468 136.078  0.00  0.00    +0.000 OA
ATOM     22  C   UNL     1     110.930 124.941 135.737  0.00  0.00    +0.000 C 
ENDBRANCH  18  21
BRANCH  19  23
ATOM     23  O   UNL     1     114.114 124.191 137.231  0.00  0.00    +0.000 OA
ATOM     24  C   UNL     1     114.789 124.534 137.559  0.00  0.00    +0.000 C 
ENDBRANCH  19  23
ENDBRANCH  12  15
ENDBRANCH   1   5
BRANCH   1  31
ATOM     25  O   UNL     1     112.638 130.102 138.898  0.00  0.00    +0.000 OA
ATOM     26  O   UNL     1     110.642 130.165 140.361  0.00  0.00    +0.000 OA
ATOM     27  O   UNL     1     112.150 130.285 141.017  0.00  0.00    +0.000 OA
ATOM     28  C   UNL     1     111.219 130.062 139.056  0.00  0.00    +0.000 C 
ATOM     29  C   UNL     1     111.307 130.144 139.873  0.00  0.00    +0.000 C 
ATOM     30  C   UNL     1     112.062 130.204 140.201  0.00  0.00    +0.000 C 
ATOM     31  C   UNL     1     111.884 130.042 138.569  0.00  0.00    +0.000 C 
ATOM     32  C   UNL     1     112.727 130.183 139.714  0.00  0.00    +0.000 C 
BRANCH  32  35
ATOM     33  O   UNL     1     113.844 130.981 140.111  0.00  0.00    +0.000 OA
ATOM     34  O   UNL     1     113.872 129.566 140.303  0.00  0.00    +0.000 OA
ATOM     35  C   UNL     1     113.481 130.244 140.043  0.00  0.00    +0.000 C 
ENDBRANCH  32  35
BRANCH  28  36
ATOM     36  O   UNL     1     110.464 130.002 138.728  0.00  0.00    +0.000 OA
BRANCH  36  41
ATOM     37  O   UNL     1     110.430 131.413 138.502  0.00  0.00    +0.000 OA
ATOM     38  O   UNL     1     108.848 129.912 138.409  0.00  0.00    +0.000 OA
ATOM     39  O   UNL     1     108.005 131.277 138.024  0.00  0.00    +0.000 OA
ATOM     40  O   UNL     1     108.779 132.733 137.958  0.00  0.00    +0.000 OA
ATOM     41  C   UNL     1     110.043 130.685 138.536  0.00  0.00    +0.000 C 
ATOM     42  C   UNL     1     109.235 130.639 138.376  0.00  0.00    +0.000 C 
ATOM     43  C   UNL     1     108.813 131.323 138.183  0.00  0.00    +0.000 C 
ATOM     44  C   UNL     1     109.200 132.051 138.150  0.00  0.00    +0.000 C 
ATOM     45  C   UNL     1     110.009 132.095 138.310  0.00  0.00    +0.000 C 
ATOM     46  C   UNL     1     110.395 132.823 138.277  0.00  0.00    +0.000 C 
ENDBRANCH  36  41
ENDBRANCH  28  36
ENDBRANCH   1  31
TORSDOF 8
ENDMDL
MODEL 8
REMARK VINA RESULT:      -9.6      2.544      5.714
REMARK  Name = 71326884
REMARK  8 active torsions:
REMARK  status: ('A' for Active; 'I' for Inactive)
REMARK    1  A    between atoms: O_1  and  C_18
REMARK    2  A    between atoms: O_1  and  C_20
REMARK    3  A    between atoms: O_5  and  C_25
REMARK    4  A    between atoms: O_5  and  C_30
REMARK    5  A    between atoms: O_15  and  C_42
REMARK    6  A    between atoms: O_16  and  C_43
REMARK    7  A    between atoms: C_27  and  C_29
REMARK    8  A    between atoms: C_37  and  C_39
REMARK                            x       y       z     vdW  Elec       q    Type
REMARK                         _______ _______ _______ _____ _____    ______ ____
ROOT
ATOM      1  O   UNL     1     111.023 129.925 138.374  0.00  0.00    +0.000 OA
ENDROOT
BRANCH   1   5
ATOM      2  O   UNL     1     112.218 127.548 137.188  0.00  0.00    +0.000 OA
ATOM      3  O   UNL     1     113.143 130.163 136.380  0.00  0.00    +0.000 OA
ATOM      4  O   UNL     1     113.712 128.964 135.814  0.00  0.00    +0.000 OA
ATOM      5  C   UNL     1     111.563 129.578 137.855  0.00  0.00    +0.000 A 
ATOM      6  C   UNL     1     111.611 128.722 137.789  0.00  0.00    +0.000 A 
ATOM      7  C   UNL     1     112.082 130.069 137.378  0.00  0.00    +0.000 A 
ATOM      8  C   UNL     1     112.177 128.370 137.247  0.00  0.00    +0.000 A 
ATOM      9  C   UNL     1     112.641 129.698 136.841  0.00  0.00    +0.000 A 
ATOM     10  C   UNL     1     112.674 128.842 136.789  0.00  0.00    +0.000 A 
ATOM     11  C   UNL     1     113.214 128.492 136.272  0.00  0.00    +0.000 A 
ATOM     12  C   UNL     1     112.757 127.198 136.670  0.00  0.00    +0.000 A 
ATOM     13  C   UNL     1     113.255 127.670 136.212  0.00  0.00    +0.000 A 
BRANCH  12  15
ATOM     14  O   UNL     1     112.922 123.911 136.433  0.00  0.00    +0.000 OA
ATOM     15  C   UNL     1     112.799 126.376 136.611  0.00  0.00    +0.000 A 
ATOM     16  C   UNL     1     112.158 125.952 136.308  0.00  0.00    +0.000 A 
ATOM     17  C   UNL     1     113.479 125.979 136.854  0.00  0.00    +0.000 A 
ATOM     18  C   UNL     1     113.520 125.157 136.795  0.00  0.00    +0.000 A 
ATOM     19  C   UNL     1     112.200 125.130 136.249  0.00  0.00    +0.000 A 
ATOM     20  C   UNL     1     112.881 124.733 136.492  0.00  0.00    +0.000 A 
BRANCH  18  21
ATOM     21  O   UNL     1     114.200 124.759 137.038  0.00  0.00    +0.000 OA
ATOM     22  C   UNL     1     114.632 125.036 137.684  0.00  0.00    +0.000 C 
ENDBRANCH  18  21
BRANCH  19  23
ATOM     23  O   UNL     1     111.560 124.706 135.947  0.00  0.00    +0.000 OA
ATOM     24  C   UNL     1     110.875 125.102 135.713  0.00  0.00    +0.000 C 
ENDBRANCH  19  23
ENDBRANCH  12  15
ENDBRANCH   1   5
BRANCH   1  31
ATOM     25  O   UNL     1     109.984 129.916 137.393  0.00  0.00    +0.000 OA
ATOM     26  O   UNL     1     108.814 131.722 138.615  0.00  0.00    +0.000 OA
ATOM     27  O   UNL     1     108.166 131.111 137.227  0.00  0.00    +0.000 OA
ATOM     28  C   UNL     1     109.919 130.823 138.494  0.00  0.00    +0.000 C 
ATOM     29  C   UNL     1     109.204 131.120 138.208  0.00  0.00    +0.000 C 
ATOM     30  C   UNL     1     108.880 130.814 137.513  0.00  0.00    +0.000 C 
ATOM     31  C   UNL     1     110.309 130.221 138.087  0.00  0.00    +0.000 C 
ATOM     32  C   UNL     1     109.270 130.212 137.106  0.00  0.00    +0.000 C 
BRANCH  32  35
ATOM     33  O   UNL     1     108.478 129.227 136.439  0.00  0.00    +0.000 OA
ATOM     34  O   UNL     1     109.088 130.281 135.691  0.00  0.00    +0.000 OA
ATOM     35  C   UNL     1     108.945 129.907 136.412  0.00  0.00    +0.000 C 
ENDBRANCH  32  35
BRANCH  28  36
ATOM     36  O   UNL     1     110.243 131.129 139.189  0.00  0.00    +0.000 OA
BRANCH  36  41
ATOM     37  O   UNL     1     109.506 130.177 139.960  0.00  0.00    +0.000 OA
ATOM     38  O   UNL     1     110.722 131.882 140.576  0.00  0.00    +0.000 OA
ATOM     39  O   UNL     1     110.225 131.307 142.041  0.00  0.00    +0.000 OA
ATOM     40  O   UNL     1     109.249 129.979 142.118  0.00  0.00    +0.000 OA
ATOM     41  C   UNL     1     109.994 130.841 139.921  0.00  0.00    +0.000 C 
ATOM     42  C   UNL     1     110.234 131.218 140.615  0.00  0.00    +0.000 C 
ATOM     43  C   UNL     1     109.985 130.930 141.347  0.00  0.00    +0.000 C 
ATOM     44  C   UNL     1     109.497 130.266 141.386  0.00  0.00    +0.000 C 
ATOM     45  C   UNL     1     109.258 129.890 140.691  0.00  0.00    +0.000 C 
ATOM     46  C   UNL     1     108.769 129.226 140.730  0.00  0.00    +0.000 C 
ENDBRANCH  36  41
ENDBRANCH  28  36
ENDBRANCH   1  31
TORSDOF 8
ENDMDL
MODEL 9
REMARK VINA RESULT:      -9.6      7.260      8.990
REMARK  Name = 71326884
REMARK  8 active torsions:
REMARK  status: ('A' for Active; 'I' for Inactive)
REMARK    1  A    between atoms: O_1  and  C_18
REMARK    2  A    between atoms: O_1  and  C_20
REMARK    3  A    between atoms: O_5  and  C_25
REMARK    4  A    between atoms: O_5  and  C_30
REMARK    5  A    between atoms: O_15  and  C_42
REMARK    6  A    between atoms: O_16  and  C_43
REMARK    7  A    between atoms: C_27  and  C_29
REMARK    8  A    between atoms: C_37  and  C_39
REMARK                            x       y       z     vdW  Elec       q    Type
REMARK                         _______ _______ _______ _____ _____    ______ ____
ROOT
ATOM      1  O   UNL     1     105.866 125.739 142.147  0.00  0.00    +0.000 OA
ENDROOT
BRANCH   1   5
ATOM      2  O   UNL     1     105.985 125.642 145.056  0.00  0.00    +0.000 OA
ATOM      3  O   UNL     1     105.696 128.190 143.725  0.00  0.00    +0.000 OA
ATOM      4  O   UNL     1     105.759 128.104 145.163  0.00  0.00    +0.000 OA
ATOM      5  C   UNL     1     105.857 126.123 142.877  0.00  0.00    +0.000 A 
ATOM      6  C   UNL     1     105.927 125.671 143.605  0.00  0.00    +0.000 A 
ATOM      7  C   UNL     1     105.779 126.978 142.915  0.00  0.00    +0.000 A 
ATOM      8  C   UNL     1     105.918 126.081 144.360  0.00  0.00    +0.000 A 
ATOM      9  C   UNL     1     105.771 127.370 143.680  0.00  0.00    +0.000 A 
ATOM     10  C   UNL     1     105.842 126.901 144.396  0.00  0.00    +0.000 A 
ATOM     11  C   UNL     1     105.834 127.283 145.127  0.00  0.00    +0.000 A 
ATOM     12  C   UNL     1     105.977 126.024 145.787  0.00  0.00    +0.000 A 
ATOM     13  C   UNL     1     105.901 126.845 145.823  0.00  0.00    +0.000 A 
BRANCH  12  15
ATOM     14  O   UNL     1     106.246 124.269 148.569  0.00  0.00    +0.000 OA
ATOM     15  C   UNL     1     106.044 125.585 146.483  0.00  0.00    +0.000 A 
ATOM     16  C   UNL     1     105.365 125.314 146.866  0.00  0.00    +0.000 A 
ATOM     17  C   UNL     1     106.789 125.418 146.794  0.00  0.00    +0.000 A 
ATOM     18  C   UNL     1     106.856 124.979 147.489  0.00  0.00    +0.000 A 
ATOM     19  C   UNL     1     105.433 124.876 147.562  0.00  0.00    +0.000 A 
ATOM     20  C   UNL     1     106.178 124.708 147.873  0.00  0.00    +0.000 A 
BRANCH  18  21
ATOM     21  O   UNL     1     107.601 124.811 147.801  0.00  0.00    +0.000 OA
ATOM     22  C   UNL     1     108.210 125.364 147.737  0.00  0.00    +0.000 C 
ENDBRANCH  18  21
BRANCH  19  23
ATOM     23  O   UNL     1     104.755 124.605 147.946  0.00  0.00    +0.000 OA
ATOM     24  C   UNL     1     104.043 125.013 147.863  0.00  0.00    +0.000 C 
ENDBRANCH  19  23
ENDBRANCH  12  15
ENDBRANCH   1   5
BRANCH   1  31
ATOM     25  O   UNL     1     107.188 126.100 141.743  0.00  0.00    +0.000 OA
ATOM     26  O   UNL     1     107.532 123.823 140.835  0.00  0.00    +0.000 OA
ATOM     27  O   UNL     1     108.739 124.943 140.735  0.00  0.00    +0.000 OA
ATOM     28  C   UNL     1     106.698 124.781 141.492  0.00  0.00    +0.000 C 
ATOM     29  C   UNL     1     107.418 124.582 141.138  0.00  0.00    +0.000 C 
ATOM     30  C   UNL     1     108.021 125.142 141.088  0.00  0.00    +0.000 C 
ATOM     31  C   UNL     1     106.584 125.540 141.794  0.00  0.00    +0.000 C 
ATOM     32  C   UNL     1     107.906 125.901 141.390  0.00  0.00    +0.000 C 
BRANCH  32  35
ATOM     33  O   UNL     1     108.541 126.978 140.698  0.00  0.00    +0.000 OA
ATOM     34  O   UNL     1     109.083 126.503 141.932  0.00  0.00    +0.000 OA
ATOM     35  C   UNL     1     108.510 126.460 141.340  0.00  0.00    +0.000 C 
ENDBRANCH  32  35
BRANCH  28  36
ATOM     36  O   UNL     1     106.095 124.221 141.542  0.00  0.00    +0.000 OA
BRANCH  36  41
ATOM     37  O   UNL     1     105.624 124.605 140.248  0.00  0.00    +0.000 OA
ATOM     38  O   UNL     1     105.011 122.977 141.566  0.00  0.00    +0.000 OA
ATOM     39  O   UNL     1     103.999 122.739 140.285  0.00  0.00    +0.000 OA
ATOM     40  O   UNL     1     104.070 123.746 138.979  0.00  0.00    +0.000 OA
ATOM     41  C   UNL     1     105.589 124.102 140.901  0.00  0.00    +0.000 C 
ATOM     42  C   UNL     1     105.047 123.480 140.913  0.00  0.00    +0.000 C 
ATOM     43  C   UNL     1     104.541 123.361 140.272  0.00  0.00    +0.000 C 
ATOM     44  C   UNL     1     104.576 123.864 139.619  0.00  0.00    +0.000 C 
ATOM     45  C   UNL     1     105.119 124.486 139.608  0.00  0.00    +0.000 C 
ATOM     46  C   UNL     1     105.154 124.989 138.955  0.00  0.00    +0.000 C 
ENDBRANCH  36  41
ENDBRANCH  28  36
ENDBRANCH   1  31
TORSDOF 8
ENDMDL
MODEL 10
REMARK VINA RESULT:      -9.5      2.549      5.298
REMARK  Name = 71326884
REMARK  8 active torsions:
REMARK  status: ('A' for Active; 'I' for Inactive)
REMARK    1  A    between atoms: O_1  and  C_18
REMARK    2  A    between atoms: O_1  and  C_20
REMARK    3  A    between atoms: O_5  and  C_25
REMARK    4  A    between atoms: O_5  and  C_30
REMARK    5  A    between atoms: O_15  and  C_42
REMARK    6  A    between atoms: O_16  and  C_43
REMARK    7  A    between atoms: C_27  and  C_29
REMARK    8  A    between atoms: C_37  and  C_39
REMARK                            x       y       z     vdW  Elec       q    Type
REMARK                         _______ _______ _______ _____ _____    ______ ____
ROOT
ATOM      1  O   UNL     1     110.984 129.852 136.621  0.00  0.00    +0.000 OA
ENDROOT
BRANCH   1   5
ATOM      2  O   UNL     1     112.307 127.258 136.586  0.00  0.00    +0.000 OA
ATOM      3  O   UNL     1     113.770 129.615 135.780  0.00  0.00    +0.000 OA
ATOM      4  O   UNL     1     114.394 128.314 135.776  0.00  0.00    +0.000 OA
ATOM      5  C   UNL     1     111.654 129.392 136.478  0.00  0.00    +0.000 A 
ATOM      6  C   UNL     1     111.632 128.543 136.609  0.00  0.00    +0.000 A 
ATOM      7  C   UNL     1     112.379 129.758 136.196  0.00  0.00    +0.000 A 
ATOM      8  C   UNL     1     112.334 128.072 136.458  0.00  0.00    +0.000 A 
ATOM      9  C   UNL     1     113.071 129.271 136.051  0.00  0.00    +0.000 A 
ATOM     10  C   UNL     1     113.030 128.424 136.188  0.00  0.00    +0.000 A 
ATOM     11  C   UNL     1     113.698 127.962 136.046  0.00  0.00    +0.000 A 
ATOM     12  C   UNL     1     112.976 126.795 136.444  0.00  0.00    +0.000 A 
ATOM     13  C   UNL     1     113.671 127.147 136.174  0.00  0.00    +0.000 A 
BRANCH  12  15
ATOM     14  O   UNL     1     112.867 123.537 136.956  0.00  0.00    +0.000 OA
ATOM     15  C   UNL     1     112.949 125.981 136.572  0.00  0.00    +0.000 A 
ATOM     16  C   UNL     1     112.330 125.534 136.257  0.00  0.00    +0.000 A 
ATOM     17  C   UNL     1     113.539 125.613 137.014  0.00  0.00    +0.000 A 
ATOM     18  C   UNL     1     113.512 124.799 137.143  0.00  0.00    +0.000 A 
ATOM     19  C   UNL     1     112.303 124.720 136.386  0.00  0.00    +0.000 A 
ATOM     20  C   UNL     1     112.894 124.352 136.828  0.00  0.00    +0.000 A 
BRANCH  18  21
ATOM     21  O   UNL     1     114.103 124.430 137.585  0.00  0.00    +0.000 OA
ATOM     22  C   UNL     1     114.896 124.613 137.448  0.00  0.00    +0.000 C 
ENDBRANCH  18  21
BRANCH  19  23
ATOM     23  O   UNL     1     111.685 124.273 136.071  0.00  0.00    +0.000 OA
ATOM     24  C   UNL     1     111.007 124.648 135.786  0.00  0.00    +0.000 C 
ENDBRANCH  19  23
ENDBRANCH  12  15
ENDBRANCH   1   5
BRANCH   1  31
ATOM     25  O   UNL     1     111.275 130.087 138.000  0.00  0.00    +0.000 OA
ATOM     26  O   UNL     1     108.852 130.121 138.505  0.00  0.00    +0.000 OA
ATOM     27  O   UNL     1     109.950 130.345 139.715  0.00  0.00    +0.000 OA
ATOM     28  C   UNL     1     109.918 129.987 137.562  0.00  0.00    +0.000 C 
ATOM     29  C   UNL     1     109.659 130.110 138.336  0.00  0.00    +0.000 C 
ATOM     30  C   UNL     1     110.209 130.222 138.941  0.00  0.00    +0.000 C 
ATOM     31  C   UNL     1     110.726 129.975 137.394  0.00  0.00    +0.000 C 
ATOM     32  C   UNL     1     111.017 130.210 138.773  0.00  0.00    +0.000 C 
BRANCH  32  35
ATOM     33  O   UNL     1     111.791 129.687 139.854  0.00  0.00    +0.000 OA
ATOM     34  O   UNL     1     111.889 131.070 139.508  0.00  0.00    +0.000 OA
ATOM     35  C   UNL     1     111.565 130.322 139.378  0.00  0.00    +0.000 C 
ENDBRANCH  32  35
BRANCH  28  36
ATOM     36  O   UNL     1     109.369 129.875 136.957  0.00  0.00    +0.000 OA
BRANCH  36  41
ATOM     37  O   UNL     1     109.402 131.261 136.609  0.00  0.00    +0.000 OA
ATOM     38  O   UNL     1     107.925 129.713 136.175  0.00  0.00    +0.000 OA
ATOM     39  O   UNL     1     107.237 131.018 135.435  0.00  0.00    +0.000 OA
ATOM     40  O   UNL     1     107.992 132.484 135.479  0.00  0.00    +0.000 OA
ATOM     41  C   UNL     1     109.025 130.528 136.587  0.00  0.00    +0.000 C 
ATOM     42  C   UNL     1     108.303 130.446 136.196  0.00  0.00    +0.000 C 
ATOM     43  C   UNL     1     107.958 131.099 135.826  0.00  0.00    +0.000 C 
ATOM     44  C   UNL     1     108.336 131.832 135.848  0.00  0.00    +0.000 C 
ATOM     45  C   UNL     1     109.058 131.913 136.239  0.00  0.00    +0.000 C 
ATOM     46  C   UNL     1     109.436 132.646 136.261  0.00  0.00    +0.000 C 
ENDBRANCH  36  41
ENDBRANCH  28  36
ENDBRANCH   1  31
TORSDOF 8
ENDMDL
