MODEL 1
REMARK VINA RESULT:     -10.8      0.000      0.000
REMARK  Name = 131833693
REMARK  6 active torsions:
REMARK  status: ('A' for Active; 'I' for Inactive)
REMARK    1  A    between atoms: O_3  and  C_21
REMARK    2  A    between atoms: O_3  and  C_27
REMARK    3  A    between atoms: O_15  and  C_41
REMARK    4  A    between atoms: C_19  and  C_24
REMARK    5  A    between atoms: C_23  and  C_32
REMARK    6  A    between atoms: C_36  and  C_38
REMARK                            x       y       z     vdW  Elec       q    Type
REMARK                         _______ _______ _______ _____ _____    ______ ____
ROOT
ATOM      1  O   UNL     1     113.468 128.861 139.387  0.00  0.00    +0.000 OA
ATOM      2  O   UNL     1     113.539 125.968 139.337  0.00  0.00    +0.000 OA
ATOM      3  O   UNL     1     114.070 126.661 140.486  0.00  0.00    +0.000 OA
ATOM      4  C   UNL     1     112.983 126.686 138.234  0.00  0.00    +0.000 A 
ATOM      5  C   UNL     1     112.786 127.402 137.873  0.00  0.00    +0.000 A 
ATOM      6  C   UNL     1     113.342 126.683 138.977  0.00  0.00    +0.000 A 
ATOM      7  C   UNL     1     112.947 128.114 138.256  0.00  0.00    +0.000 A 
ATOM      8  C   UNL     1     113.502 127.397 139.359  0.00  0.00    +0.000 A 
ATOM      9  C   UNL     1     113.305 128.112 138.999  0.00  0.00    +0.000 A 
ATOM     10  C   UNL     1     113.876 127.381 140.132  0.00  0.00    +0.000 A 
ATOM     11  C   UNL     1     113.841 128.866 140.161  0.00  0.00    +0.000 A 
ATOM     12  C   UNL     1     114.047 128.121 140.537  0.00  0.00    +0.000 A 
ENDROOT
BRANCH   4  17
ATOM     13  O   UNL     1     113.377 125.649 137.333  0.00  0.00    +0.000 OA
ATOM     14  O   UNL     1     111.552 125.910 138.500  0.00  0.00    +0.000 OA
ATOM     15  O   UNL     1     111.230 124.485 137.733  0.00  0.00    +0.000 OA
ATOM     16  O   UNL     1     112.340 123.837 136.700  0.00  0.00    +0.000 OA
ATOM     17  C   UNL     1     112.822 125.974 137.850  0.00  0.00    +0.000 C 
ATOM     18  C   UNL     1     112.106 125.586 137.984  0.00  0.00    +0.000 C 
ATOM     19  C   UNL     1     111.946 124.873 137.600  0.00  0.00    +0.000 C 
ATOM     20  C   UNL     1     113.216 124.936 136.950  0.00  0.00    +0.000 C 
ATOM     21  C   UNL     1     112.500 124.549 137.083  0.00  0.00    +0.000 C 
ATOM     22  C   UNL     1     113.772 124.612 136.433  0.00  0.00    +0.000 C 
ENDBRANCH   4  17
BRANCH  11  24
ATOM     23  O   UNL     1     114.481 131.723 141.683  0.00  0.00    +0.000 OA
ATOM     24  C   UNL     1     114.001 129.580 140.542  0.00  0.00    +0.000 A 
ATOM     25  C   UNL     1     113.426 129.931 141.019  0.00  0.00    +0.000 A 
ATOM     26  C   UNL     1     114.736 129.943 140.444  0.00  0.00    +0.000 A 
ATOM     27  C   UNL     1     113.587 130.645 141.399  0.00  0.00    +0.000 A 
ATOM     28  C   UNL     1     114.896 130.657 140.825  0.00  0.00    +0.000 A 
ATOM     29  C   UNL     1     114.321 131.008 141.302  0.00  0.00    +0.000 A 
BRANCH  27  30
ATOM     30  O   UNL     1     113.013 130.996 141.876  0.00  0.00    +0.000 OA
ATOM     31  C   UNL     1     112.451 130.528 142.258  0.00  0.00    +0.000 C 
ENDBRANCH  27  30
ENDBRANCH  11  24
BRANCH   5  32
ATOM     32  O   UNL     1     112.427 127.404 137.130  0.00  0.00    +0.000 OA
BRANCH  32  40
ATOM     33  O   UNL     1     113.362 128.196 136.393  0.00  0.00    +0.000 OA
ATOM     34  O   UNL     1     111.494 129.493 135.417  0.00  0.00    +0.000 OA
ATOM     35  O   UNL     1     111.182 128.269 136.479  0.00  0.00    +0.000 OA
ATOM     36  O   UNL     1     113.051 129.852 135.006  0.00  0.00    +0.000 OA
ATOM     37  C   UNL     1     112.116 129.061 135.742  0.00  0.00    +0.000 C 
ATOM     38  C   UNL     1     111.960 128.448 136.274  0.00  0.00    +0.000 C 
ATOM     39  C   UNL     1     112.895 129.240 135.537  0.00  0.00    +0.000 C 
ATOM     40  C   UNL     1     112.583 128.016 136.599  0.00  0.00    +0.000 C 
ATOM     41  C   UNL     1     113.518 128.807 135.863  0.00  0.00    +0.000 C 
BRANCH  41  44
ATOM     42  O   UNL     1     114.667 129.649 135.981  0.00  0.00    +0.000 OA
ATOM     43  O   UNL     1     114.704 128.505 135.126  0.00  0.00    +0.000 OA
ATOM     44  C   UNL     1     114.296 128.987 135.657  0.00  0.00    +0.000 C 
ENDBRANCH  41  44
ENDBRANCH  32  40
ENDBRANCH   5  32
TORSDOF 6
ENDMDL
MODEL 2
REMARK VINA RESULT:     -10.6      1.646      5.266
REMARK  Name = 131833693
REMARK  6 active torsions:
REMARK  status: ('A' for Active; 'I' for Inactive)
REMARK    1  A    between atoms: O_3  and  C_21
REMARK    2  A    between atoms: O_3  and  C_27
REMARK    3  A    between atoms: O_15  and  C_41
REMARK    4  A    between atoms: C_19  and  C_24
REMARK    5  A    between atoms: C_23  and  C_32
REMARK    6  A    between atoms: C_36  and  C_38
REMARK                            x       y       z     vdW  Elec       q    Type
REMARK                         _______ _______ _______ _____ _____    ______ ____
ROOT
ATOM      1  O   UNL     1     113.215 127.330 138.488  0.00  0.00    +0.000 OA
ATOM      2  O   UNL     1     113.972 128.308 141.105  0.00  0.00    +0.000 OA
ATOM      3  O   UNL     1     114.225 126.926 140.774  0.00  0.00    +0.000 OA
ATOM      4  C   UNL     1     113.358 129.192 140.165  0.00  0.00    +0.000 A 
ATOM      5  C   UNL     1     113.028 129.326 139.421  0.00  0.00    +0.000 A 
ATOM      6  C   UNL     1     113.643 128.442 140.361  0.00  0.00    +0.000 A 
ATOM      7  C   UNL     1     112.983 128.712 138.873  0.00  0.00    +0.000 A 
ATOM      8  C   UNL     1     113.597 127.828 139.812  0.00  0.00    +0.000 A 
ATOM      9  C   UNL     1     113.267 127.962 139.069  0.00  0.00    +0.000 A 
ATOM     10  C   UNL     1     113.897 127.052 140.028  0.00  0.00    +0.000 A 
ATOM     11  C   UNL     1     113.509 126.548 138.686  0.00  0.00    +0.000 A 
ATOM     12  C   UNL     1     113.853 126.408 139.461  0.00  0.00    +0.000 A 
ENDROOT
BRANCH   4  17
ATOM     13  O   UNL     1     112.775 129.942 141.233  0.00  0.00    +0.000 OA
ATOM     14  O   UNL     1     114.700 130.150 140.224  0.00  0.00    +0.000 OA
ATOM     15  O   UNL     1     114.788 131.380 141.320  0.00  0.00    +0.000 OA
ATOM     16  O   UNL     1     113.535 131.651 142.358  0.00  0.00    +0.000 OA
ATOM     17  C   UNL     1     113.403 129.807 140.713  0.00  0.00    +0.000 C 
ATOM     18  C   UNL     1     114.074 130.286 140.742  0.00  0.00    +0.000 C 
ATOM     19  C   UNL     1     114.117 130.901 141.291  0.00  0.00    +0.000 C 
ATOM     20  C   UNL     1     112.820 130.557 141.781  0.00  0.00    +0.000 C 
ATOM     21  C   UNL     1     113.491 131.036 141.810  0.00  0.00    +0.000 C 
ATOM     22  C   UNL     1     112.194 130.692 142.300  0.00  0.00    +0.000 C 
ENDBRANCH   4  17
BRANCH  11  24
ATOM     23  O   UNL     1     113.324 124.097 136.484  0.00  0.00    +0.000 OA
ATOM     24  C   UNL     1     113.463 125.935 138.135  0.00  0.00    +0.000 A 
ATOM     25  C   UNL     1     112.741 125.563 137.993  0.00  0.00    +0.000 A 
ATOM     26  C   UNL     1     114.139 125.695 137.728  0.00  0.00    +0.000 A 
ATOM     27  C   UNL     1     112.695 124.950 137.442  0.00  0.00    +0.000 A 
ATOM     28  C   UNL     1     114.093 125.082 137.177  0.00  0.00    +0.000 A 
ATOM     29  C   UNL     1     113.371 124.710 137.035  0.00  0.00    +0.000 A 
BRANCH  27  30
ATOM     30  O   UNL     1     111.973 124.578 137.300  0.00  0.00    +0.000 OA
ATOM     31  C   UNL     1     111.269 125.004 137.361  0.00  0.00    +0.000 C 
ENDBRANCH  27  30
ENDBRANCH  11  24
BRANCH   5  32
ATOM     32  O   UNL     1     112.743 130.076 139.225  0.00  0.00    +0.000 OA
BRANCH  32  40
ATOM     33  O   UNL     1     111.386 129.776 138.891  0.00  0.00    +0.000 OA
ATOM     34  O   UNL     1     111.595 131.132 136.830  0.00  0.00    +0.000 OA
ATOM     35  O   UNL     1     112.882 130.979 137.852  0.00  0.00    +0.000 OA
ATOM     36  O   UNL     1     110.169 130.381 137.182  0.00  0.00    +0.000 OA
ATOM     37  C   UNL     1     111.526 130.680 137.517  0.00  0.00    +0.000 C 
ATOM     38  C   UNL     1     112.170 130.604 138.028  0.00  0.00    +0.000 C 
ATOM     39  C   UNL     1     110.813 130.304 137.694  0.00  0.00    +0.000 C 
ATOM     40  C   UNL     1     112.100 130.152 138.715  0.00  0.00    +0.000 C 
ATOM     41  C   UNL     1     110.743 129.853 138.380  0.00  0.00    +0.000 C 
BRANCH  41  44
ATOM     42  O   UNL     1     109.843 128.758 138.200  0.00  0.00    +0.000 OA
ATOM     43  O   UNL     1     109.503 129.823 139.089  0.00  0.00    +0.000 OA
ATOM     44  C   UNL     1     110.030 129.477 138.556  0.00  0.00    +0.000 C 
ENDBRANCH  41  44
ENDBRANCH  32  40
ENDBRANCH   5  32
TORSDOF 6
ENDMDL
MODEL 3
REMARK VINA RESULT:     -10.6      1.018      2.168
REMARK  Name = 131833693
REMARK  6 active torsions:
REMARK  status: ('A' for Active; 'I' for Inactive)
REMARK    1  A    between atoms: O_3  and  C_21
REMARK    2  A    between atoms: O_3  and  C_27
REMARK    3  A    between atoms: O_15  and  C_41
REMARK    4  A    between atoms: C_19  and  C_24
REMARK    5  A    between atoms: C_23  and  C_32
REMARK    6  A    between atoms: C_36  and  C_38
REMARK                            x       y       z     vdW  Elec       q    Type
REMARK                         _______ _______ _______ _____ _____    ______ ____
ROOT
ATOM      1  O   UNL     1     113.064 128.687 139.501  0.00  0.00    +0.000 OA
ATOM      2  O   UNL     1     113.818 125.918 139.127  0.00  0.00    +0.000 OA
ATOM      3  O   UNL     1     114.165 126.577 140.363  0.00  0.00    +0.000 OA
ATOM      4  C   UNL     1     113.113 126.610 138.095  0.00  0.00    +0.000 A 
ATOM      5  C   UNL     1     112.753 127.297 137.811  0.00  0.00    +0.000 A 
ATOM      6  C   UNL     1     113.459 126.604 138.844  0.00  0.00    +0.000 A 
ATOM      7  C   UNL     1     112.740 127.977 138.277  0.00  0.00    +0.000 A 
ATOM      8  C   UNL     1     113.444 127.286 139.309  0.00  0.00    +0.000 A 
ATOM      9  C   UNL     1     113.085 127.972 139.026  0.00  0.00    +0.000 A 
ATOM     10  C   UNL     1     113.807 127.268 140.087  0.00  0.00    +0.000 A 
ATOM     11  C   UNL     1     113.422 128.688 140.282  0.00  0.00    +0.000 A 
ATOM     12  C   UNL     1     113.796 127.974 140.578  0.00  0.00    +0.000 A 
ENDROOT
BRANCH   4  17
ATOM     13  O   UNL     1     112.498 125.395 137.660  0.00  0.00    +0.000 OA
ATOM     14  O   UNL     1     114.396 126.316 137.100  0.00  0.00    +0.000 OA
ATOM     15  O   UNL     1     114.422 124.954 136.168  0.00  0.00    +0.000 OA
ATOM     16  O   UNL     1     113.166 123.888 136.231  0.00  0.00    +0.000 OA
ATOM     17  C   UNL     1     113.127 125.929 137.628  0.00  0.00    +0.000 C 
ATOM     18  C   UNL     1     113.768 125.782 137.131  0.00  0.00    +0.000 C 
ATOM     19  C   UNL     1     113.781 125.101 136.665  0.00  0.00    +0.000 C 
ATOM     20  C   UNL     1     112.512 124.715 137.194  0.00  0.00    +0.000 C 
ATOM     21  C   UNL     1     113.153 124.568 136.696  0.00  0.00    +0.000 C 
ATOM     22  C   UNL     1     111.883 124.182 137.226  0.00  0.00    +0.000 C 
ENDBRANCH   4  17
BRANCH  11  24
ATOM     23  O   UNL     1     113.359 131.417 142.137  0.00  0.00    +0.000 OA
ATOM     24  C   UNL     1     113.406 129.371 140.746  0.00  0.00    +0.000 A 
ATOM     25  C   UNL     1     113.979 129.955 140.640  0.00  0.00    +0.000 A 
ATOM     26  C   UNL     1     112.817 129.468 141.316  0.00  0.00    +0.000 A 
ATOM     27  C   UNL     1     113.963 130.636 141.104  0.00  0.00    +0.000 A 
ATOM     28  C   UNL     1     112.801 130.150 141.780  0.00  0.00    +0.000 A 
ATOM     29  C   UNL     1     113.374 130.734 141.673  0.00  0.00    +0.000 A 
BRANCH  27  30
ATOM     30  O   UNL     1     114.536 131.220 140.997  0.00  0.00    +0.000 OA
ATOM     31  C   UNL     1     115.276 131.023 140.689  0.00  0.00    +0.000 C 
ENDBRANCH  27  30
ENDBRANCH  11  24
BRANCH   5  32
ATOM     32  O   UNL     1     112.408 127.302 137.062  0.00  0.00    +0.000 OA
BRANCH  32  40
ATOM     33  O   UNL     1     111.059 127.670 137.357  0.00  0.00    +0.000 OA
ATOM     34  O   UNL     1     111.144 129.403 135.593  0.00  0.00    +0.000 OA
ATOM     35  O   UNL     1     112.465 128.458 135.885  0.00  0.00    +0.000 OA
ATOM     36  O   UNL     1     109.767 129.193 136.476  0.00  0.00    +0.000 OA
ATOM     37  C   UNL     1     111.116 128.825 136.181  0.00  0.00    +0.000 C 
ATOM     38  C   UNL     1     111.777 128.352 136.327  0.00  0.00    +0.000 C 
ATOM     39  C   UNL     1     110.428 128.720 136.623  0.00  0.00    +0.000 C 
ATOM     40  C   UNL     1     111.748 127.774 136.916  0.00  0.00    +0.000 C 
ATOM     41  C   UNL     1     110.399 128.142 137.211  0.00  0.00    +0.000 C 
BRANCH  41  44
ATOM     42  O   UNL     1     109.535 128.551 138.273  0.00  0.00    +0.000 OA
ATOM     43  O   UNL     1     109.196 127.417 137.474  0.00  0.00    +0.000 OA
ATOM     44  C   UNL     1     109.710 128.037 137.653  0.00  0.00    +0.000 C 
ENDBRANCH  41  44
ENDBRANCH  32  40
ENDBRANCH   5  32
TORSDOF 6
ENDMDL
MODEL 4
REMARK VINA RESULT:     -10.6      1.203      4.954
REMARK  Name = 131833693
REMARK  6 active torsions:
REMARK  status: ('A' for Active; 'I' for Inactive)
REMARK    1  A    between atoms: O_3  and  C_21
REMARK    2  A    between atoms: O_3  and  C_27
REMARK    3  A    between atoms: O_15  and  C_41
REMARK    4  A    between atoms: C_19  and  C_24
REMARK    5  A    between atoms: C_23  and  C_32
REMARK    6  A    between atoms: C_36  and  C_38
REMARK                            x       y       z     vdW  Elec       q    Type
REMARK                         _______ _______ _______ _____ _____    ______ ____
ROOT
ATOM      1  O   UNL     1     112.738 127.264 138.427  0.00  0.00    +0.000 OA
ATOM      2  O   UNL     1     114.030 128.193 140.844  0.00  0.00    +0.000 OA
ATOM      3  O   UNL     1     113.888 126.773 140.628  0.00  0.00    +0.000 OA
ATOM      4  C   UNL     1     113.545 129.138 139.888  0.00  0.00    +0.000 A 
ATOM      5  C   UNL     1     113.170 129.301 139.171  0.00  0.00    +0.000 A 
ATOM      6  C   UNL     1     113.655 128.356 140.128  0.00  0.00    +0.000 A 
ATOM      7  C   UNL     1     112.906 128.681 138.694  0.00  0.00    +0.000 A 
ATOM      8  C   UNL     1     113.391 127.737 139.650  0.00  0.00    +0.000 A 
ATOM      9  C   UNL     1     113.017 127.900 138.933  0.00  0.00    +0.000 A 
ATOM     10  C   UNL     1     113.513 126.927 139.910  0.00  0.00    +0.000 A 
ATOM     11  C   UNL     1     112.850 126.448 138.670  0.00  0.00    +0.000 A 
ATOM     12  C   UNL     1     113.240 126.278 139.417  0.00  0.00    +0.000 A 
ENDROOT
BRANCH   4  17
ATOM     13  O   UNL     1     114.567 130.065 140.259  0.00  0.00    +0.000 OA
ATOM     14  O   UNL     1     112.557 129.760 141.054  0.00  0.00    +0.000 OA
ATOM     15  O   UNL     1     113.085 130.999 142.008  0.00  0.00    +0.000 OA
ATOM     16  O   UNL     1     114.600 131.614 141.795  0.00  0.00    +0.000 OA
ATOM     17  C   UNL     1     113.808 129.757 140.365  0.00  0.00    +0.000 C 
ATOM     18  C   UNL     1     113.314 130.068 140.948  0.00  0.00    +0.000 C 
ATOM     19  C   UNL     1     113.579 130.688 141.425  0.00  0.00    +0.000 C 
ATOM     20  C   UNL     1     114.830 130.684 140.736  0.00  0.00    +0.000 C 
ATOM     21  C   UNL     1     114.336 130.995 141.319  0.00  0.00    +0.000 C 
ATOM     22  C   UNL     1     115.588 130.992 140.629  0.00  0.00    +0.000 C 
ENDBRANCH   4  17
BRANCH  11  24
ATOM     23  O   UNL     1     111.790 123.980 136.753  0.00  0.00    +0.000 OA
ATOM     24  C   UNL     1     112.585 125.831 138.191  0.00  0.00    +0.000 A 
ATOM     25  C   UNL     1     113.100 125.477 137.652  0.00  0.00    +0.000 A 
ATOM     26  C   UNL     1     111.805 125.568 138.251  0.00  0.00    +0.000 A 
ATOM     27  C   UNL     1     112.835 124.860 137.173  0.00  0.00    +0.000 A 
ATOM     28  C   UNL     1     111.540 124.951 137.771  0.00  0.00    +0.000 A 
ATOM     29  C   UNL     1     112.055 124.597 137.232  0.00  0.00    +0.000 A 
BRANCH  27  30
ATOM     30  O   UNL     1     113.349 124.506 136.634  0.00  0.00    +0.000 OA
ATOM     31  C   UNL     1     114.058 124.879 136.433  0.00  0.00    +0.000 C 
ENDBRANCH  27  30
ENDBRANCH  11  24
BRANCH   5  32
ATOM     32  O   UNL     1     113.059 130.082 138.932  0.00  0.00    +0.000 OA
BRANCH  32  40
ATOM     33  O   UNL     1     113.719 130.087 137.664  0.00  0.00    +0.000 OA
ATOM     34  O   UNL     1     111.762 131.213 136.650  0.00  0.00    +0.000 OA
ATOM     35  O   UNL     1     111.754 130.833 138.256  0.00  0.00    +0.000 OA
ATOM     36  O   UNL     1     113.074 130.843 135.720  0.00  0.00    +0.000 OA
ATOM     37  C   UNL     1     112.414 130.838 136.988  0.00  0.00    +0.000 C 
ATOM     38  C   UNL     1     112.411 130.648 137.791  0.00  0.00    +0.000 C 
ATOM     39  C   UNL     1     113.070 130.652 136.524  0.00  0.00    +0.000 C 
ATOM     40  C   UNL     1     113.063 130.272 138.130  0.00  0.00    +0.000 C 
ATOM     41  C   UNL     1     113.723 130.277 136.862  0.00  0.00    +0.000 C 
BRANCH  41  44
ATOM     42  O   UNL     1     114.368 129.423 135.915  0.00  0.00    +0.000 OA
ATOM     43  O   UNL     1     115.046 130.577 136.414  0.00  0.00    +0.000 OA
ATOM     44  C   UNL     1     114.378 130.092 136.397  0.00  0.00    +0.000 C 
ENDBRANCH  41  44
ENDBRANCH  32  40
ENDBRANCH   5  32
TORSDOF 6
ENDMDL
MODEL 5
REMARK VINA RESULT:     -10.3      1.790      3.974
REMARK  Name = 131833693
REMARK  6 active torsions:
REMARK  status: ('A' for Active; 'I' for Inactive)
REMARK    1  A    between atoms: O_3  and  C_21
REMARK    2  A    between atoms: O_3  and  C_27
REMARK    3  A    between atoms: O_15  and  C_41
REMARK    4  A    between atoms: C_19  and  C_24
REMARK    5  A    between atoms: C_23  and  C_32
REMARK    6  A    between atoms: C_36  and  C_38
REMARK                            x       y       z     vdW  Elec       q    Type
REMARK                         _______ _______ _______ _____ _____    ______ ____
ROOT
ATOM      1  O   UNL     1     111.768 129.025 137.729  0.00  0.00    +0.000 OA
ATOM      2  O   UNL     1     112.694 126.918 135.975  0.00  0.00    +0.000 OA
ATOM      3  O   UNL     1     112.461 128.233 135.427  0.00  0.00    +0.000 OA
ATOM      4  C   UNL     1     112.475 126.646 137.360  0.00  0.00    +0.000 A 
ATOM      5  C   UNL     1     112.250 126.902 138.112  0.00  0.00    +0.000 A 
ATOM      6  C   UNL     1     112.469 127.174 136.726  0.00  0.00    +0.000 A 
ATOM      7  C   UNL     1     112.018 127.685 138.229  0.00  0.00    +0.000 A 
ATOM      8  C   UNL     1     112.237 127.957 136.844  0.00  0.00    +0.000 A 
ATOM      9  C   UNL     1     112.011 128.212 137.594  0.00  0.00    +0.000 A 
ATOM     10  C   UNL     1     112.234 128.496 136.175  0.00  0.00    +0.000 A 
ATOM     11  C   UNL     1     111.758 129.580 137.073  0.00  0.00    +0.000 A 
ATOM     12  C   UNL     1     111.993 129.314 136.290  0.00  0.00    +0.000 A 
ENDROOT
BRANCH   4  17
ATOM     13  O   UNL     1     113.498 125.648 137.348  0.00  0.00    +0.000 OA
ATOM     14  O   UNL     1     111.361 125.511 136.920  0.00  0.00    +0.000 OA
ATOM     15  O   UNL     1     111.827 123.945 136.688  0.00  0.00    +0.000 OA
ATOM     16  O   UNL     1     113.405 123.515 136.896  0.00  0.00    +0.000 OA
ATOM     17  C   UNL     1     112.707 125.863 137.244  0.00  0.00    +0.000 C 
ATOM     18  C   UNL     1     112.150 125.296 137.024  0.00  0.00    +0.000 C 
ATOM     19  C   UNL     1     112.384 124.513 136.908  0.00  0.00    +0.000 C 
ATOM     20  C   UNL     1     113.730 124.865 137.232  0.00  0.00    +0.000 C 
ATOM     21  C   UNL     1     113.173 124.297 137.012  0.00  0.00    +0.000 C 
ATOM     22  C   UNL     1     114.519 124.650 137.336  0.00  0.00    +0.000 C 
ENDBRANCH   4  17
BRANCH  11  24
ATOM     23  O   UNL     1     110.829 132.709 137.553  0.00  0.00    +0.000 OA
ATOM     24  C   UNL     1     111.526 130.362 137.193  0.00  0.00    +0.000 A 
ATOM     25  C   UNL     1     110.724 130.556 137.214  0.00  0.00    +0.000 A 
ATOM     26  C   UNL     1     112.096 130.951 137.292  0.00  0.00    +0.000 A 
ATOM     27  C   UNL     1     110.493 131.338 137.334  0.00  0.00    +0.000 A 
ATOM     28  C   UNL     1     111.863 131.733 137.412  0.00  0.00    +0.000 A 
ATOM     29  C   UNL     1     111.062 131.927 137.433  0.00  0.00    +0.000 A 
BRANCH  27  30
ATOM     30  O   UNL     1     109.691 131.531 137.355  0.00  0.00    +0.000 OA
ATOM     31  C   UNL     1     109.139 130.979 137.622  0.00  0.00    +0.000 C 
ENDBRANCH  27  30
ENDBRANCH  11  24
BRANCH   5  32
ATOM     32  O   UNL     1     112.257 126.374 138.747  0.00  0.00    +0.000 OA
BRANCH  32  40
ATOM     33  O   UNL     1     113.138 127.020 139.668  0.00  0.00    +0.000 OA
ATOM     34  O   UNL     1     111.471 126.720 141.473  0.00  0.00    +0.000 OA
ATOM     35  O   UNL     1     111.145 126.174 139.950  0.00  0.00    +0.000 OA
ATOM     36  O   UNL     1     112.908 127.465 141.792  0.00  0.00    +0.000 OA
ATOM     37  C   UNL     1     112.027 126.820 140.871  0.00  0.00    +0.000 C 
ATOM     38  C   UNL     1     111.864 126.547 140.109  0.00  0.00    +0.000 C 
ATOM     39  C   UNL     1     112.745 127.192 141.030  0.00  0.00    +0.000 C 
ATOM     40  C   UNL     1     112.419 126.647 139.507  0.00  0.00    +0.000 C 
ATOM     41  C   UNL     1     113.301 127.292 140.429  0.00  0.00    +0.000 C 
BRANCH  41  44
ATOM     42  O   UNL     1     114.065 128.488 140.593  0.00  0.00    +0.000 OA
ATOM     43  O   UNL     1     114.692 127.214 140.746  0.00  0.00    +0.000 OA
ATOM     44  C   UNL     1     114.019 127.665 140.589  0.00  0.00    +0.000 C 
ENDBRANCH  41  44
ENDBRANCH  32  40
ENDBRANCH   5  32
TORSDOF 6
ENDMDL
MODEL 6
REMARK VINA RESULT:     -10.1      2.624      6.067
REMARK  Name = 131833693
REMARK  6 active torsions:
REMARK  status: ('A' for Active; 'I' for Inactive)
REMARK    1  A    between atoms: O_3  and  C_21
REMARK    2  A    between atoms: O_3  and  C_27
REMARK    3  A    between atoms: O_15  and  C_41
REMARK    4  A    between atoms: C_19  and  C_24
REMARK    5  A    between atoms: C_23  and  C_32
REMARK    6  A    between atoms: C_36  and  C_38
REMARK                            x       y       z     vdW  Elec       q    Type
REMARK                         _______ _______ _______ _____ _____    ______ ____
ROOT
ATOM      1  O   UNL     1     110.768 127.330 136.376  0.00  0.00    +0.000 OA
ATOM      2  O   UNL     1     108.267 128.749 136.051  0.00  0.00    +0.000 OA
ATOM      3  O   UNL     1     108.257 127.305 136.055  0.00  0.00    +0.000 OA
ATOM      4  C   UNL     1     109.485 129.480 136.204  0.00  0.00    +0.000 A 
ATOM      5  C   UNL     1     110.304 129.491 136.308  0.00  0.00    +0.000 A 
ATOM      6  C   UNL     1     109.085 128.760 136.155  0.00  0.00    +0.000 A 
ATOM      7  C   UNL     1     110.721 128.782 136.364  0.00  0.00    +0.000 A 
ATOM      8  C   UNL     1     109.503 128.051 136.212  0.00  0.00    +0.000 A 
ATOM      9  C   UNL     1     110.321 128.062 136.316  0.00  0.00    +0.000 A 
ATOM     10  C   UNL     1     109.076 127.308 136.160  0.00  0.00    +0.000 A 
ATOM     11  C   UNL     1     110.358 126.577 136.327  0.00  0.00    +0.000 A 
ATOM     12  C   UNL     1     109.505 126.565 136.218  0.00  0.00    +0.000 A 
ENDROOT
BRANCH   4  17
ATOM     13  O   UNL     1     108.815 130.574 136.833  0.00  0.00    +0.000 OA
ATOM     14  O   UNL     1     109.153 130.128 134.723  0.00  0.00    +0.000 OA
ATOM     15  O   UNL     1     108.318 131.546 134.612  0.00  0.00    +0.000 OA
ATOM     16  O   UNL     1     107.814 132.316 135.981  0.00  0.00    +0.000 OA
ATOM     17  C   UNL     1     109.067 130.189 136.147  0.00  0.00    +0.000 C 
ATOM     18  C   UNL     1     108.901 130.513 135.407  0.00  0.00    +0.000 C 
ATOM     19  C   UNL     1     108.483 131.222 135.352  0.00  0.00    +0.000 C 
ATOM     20  C   UNL     1     108.398 131.283 136.777  0.00  0.00    +0.000 C 
ATOM     21  C   UNL     1     108.232 131.607 136.036  0.00  0.00    +0.000 C 
ATOM     22  C   UNL     1     108.146 131.668 137.462  0.00  0.00    +0.000 C 
ENDBRANCH   4  17
BRANCH  11  24
ATOM     23  O   UNL     1     112.040 123.747 136.552  0.00  0.00    +0.000 OA
ATOM     24  C   UNL     1     110.778 125.870 136.383  0.00  0.00    +0.000 A 
ATOM     25  C   UNL     1     111.146 125.664 137.093  0.00  0.00    +0.000 A 
ATOM     26  C   UNL     1     110.831 125.368 135.730  0.00  0.00    +0.000 A 
ATOM     27  C   UNL     1     111.566 124.956 137.149  0.00  0.00    +0.000 A 
ATOM     28  C   UNL     1     111.252 124.661 135.786  0.00  0.00    +0.000 A 
ATOM     29  C   UNL     1     111.619 124.455 136.496  0.00  0.00    +0.000 A 
BRANCH  27  30
ATOM     30  O   UNL     1     111.933 124.750 137.858  0.00  0.00    +0.000 OA
ATOM     31  C   UNL     1     112.295 125.331 138.320  0.00  0.00    +0.000 C 
ENDBRANCH  27  30
ENDBRANCH  11  24
BRANCH   5  32
ATOM     32  O   UNL     1     110.704 130.211 136.357  0.00  0.00    +0.000 OA
BRANCH  32  40
ATOM     33  O   UNL     1     111.320 130.166 137.645  0.00  0.00    +0.000 OA
ATOM     34  O   UNL     1     113.507 130.701 136.616  0.00  0.00    +0.000 OA
ATOM     35  O   UNL     1     112.162 130.567 135.671  0.00  0.00    +0.000 OA
ATOM     36  O   UNL     1     113.395 130.478 138.247  0.00  0.00    +0.000 OA
ATOM     37  C   UNL     1     112.778 130.523 136.959  0.00  0.00    +0.000 C 
ATOM     38  C   UNL     1     112.105 130.455 136.486  0.00  0.00    +0.000 C 
ATOM     39  C   UNL     1     112.722 130.411 137.774  0.00  0.00    +0.000 C 
ATOM     40  C   UNL     1     111.376 130.277 136.829  0.00  0.00    +0.000 C 
ATOM     41  C   UNL     1     111.993 130.233 138.117  0.00  0.00    +0.000 C 
BRANCH  41  44
ATOM     42  O   UNL     1     111.703 130.745 139.420  0.00  0.00    +0.000 OA
ATOM     43  O   UNL     1     112.117 129.387 139.262  0.00  0.00    +0.000 OA
ATOM     44  C   UNL     1     111.937 130.122 138.933  0.00  0.00    +0.000 C 
ENDBRANCH  41  44
ENDBRANCH  32  40
ENDBRANCH   5  32
TORSDOF 6
ENDMDL
MODEL 7
REMARK VINA RESULT:      -9.9      2.041      5.121
REMARK  Name = 131833693
REMARK  6 active torsions:
REMARK  status: ('A' for Active; 'I' for Inactive)
REMARK    1  A    between atoms: O_3  and  C_21
REMARK    2  A    between atoms: O_3  and  C_27
REMARK    3  A    between atoms: O_15  and  C_41
REMARK    4  A    between atoms: C_19  and  C_24
REMARK    5  A    between atoms: C_23  and  C_32
REMARK    6  A    between atoms: C_36  and  C_38
REMARK                            x       y       z     vdW  Elec       q    Type
REMARK                         _______ _______ _______ _____ _____    ______ ____
ROOT
ATOM      1  O   UNL     1     112.627 126.878 138.706  0.00  0.00    +0.000 OA
ATOM      2  O   UNL     1     113.474 127.720 141.342  0.00  0.00    +0.000 OA
ATOM      3  O   UNL     1     114.291 126.781 140.611  0.00  0.00    +0.000 OA
ATOM      4  C   UNL     1     112.263 128.235 140.785  0.00  0.00    +0.000 A 
ATOM      5  C   UNL     1     111.719 128.268 140.165  0.00  0.00    +0.000 A 
ATOM      6  C   UNL     1     112.930 127.753 140.723  0.00  0.00    +0.000 A 
ATOM      7  C   UNL     1     111.843 127.820 139.484  0.00  0.00    +0.000 A 
ATOM      8  C   UNL     1     113.053 127.306 140.040  0.00  0.00    +0.000 A 
ATOM      9  C   UNL     1     112.510 127.339 139.421  0.00  0.00    +0.000 A 
ATOM     10  C   UNL     1     113.752 126.809 139.987  0.00  0.00    +0.000 A 
ATOM     11  C   UNL     1     113.320 126.375 138.634  0.00  0.00    +0.000 A 
ATOM     12  C   UNL     1     113.886 126.340 139.279  0.00  0.00    +0.000 A 
ENDROOT
BRANCH   4  17
ATOM     13  O   UNL     1     112.428 129.455 141.510  0.00  0.00    +0.000 OA
ATOM     14  O   UNL     1     111.439 127.588 142.060  0.00  0.00    +0.000 OA
ATOM     15  O   UNL     1     111.192 128.485 143.423  0.00  0.00    +0.000 OA
ATOM     16  O   UNL     1     111.769 130.028 143.510  0.00  0.00    +0.000 OA
ATOM     17  C   UNL     1     112.139 128.682 141.467  0.00  0.00    +0.000 C 
ATOM     18  C   UNL     1     111.727 128.359 142.104  0.00  0.00    +0.000 C 
ATOM     19  C   UNL     1     111.604 128.808 142.785  0.00  0.00    +0.000 C 
ATOM     20  C   UNL     1     112.304 129.903 142.192  0.00  0.00    +0.000 C 
ATOM     21  C   UNL     1     111.892 129.580 142.829  0.00  0.00    +0.000 C 
ATOM     22  C   UNL     1     112.593 130.674 142.235  0.00  0.00    +0.000 C 
ENDBRANCH   4  17
BRANCH  11  24
ATOM     23  O   UNL     1     113.804 124.589 135.902  0.00  0.00    +0.000 OA
ATOM     24  C   UNL     1     113.441 125.928 137.951  0.00  0.00    +0.000 A 
ATOM     25  C   UNL     1     113.017 125.230 137.835  0.00  0.00    +0.000 A 
ATOM     26  C   UNL     1     113.986 126.180 137.385  0.00  0.00    +0.000 A 
ATOM     27  C   UNL     1     113.138 124.784 137.152  0.00  0.00    +0.000 A 
ATOM     28  C   UNL     1     114.107 125.734 136.702  0.00  0.00    +0.000 A 
ATOM     29  C   UNL     1     113.683 125.035 136.585  0.00  0.00    +0.000 A 
BRANCH  27  30
ATOM     30  O   UNL     1     112.715 124.086 137.035  0.00  0.00    +0.000 OA
ATOM     31  C   UNL     1     111.899 124.071 137.162  0.00  0.00    +0.000 C 
ENDBRANCH  27  30
ENDBRANCH  11  24
BRANCH   5  32
ATOM     32  O   UNL     1     111.051 128.749 140.228  0.00  0.00    +0.000 OA
BRANCH  32  40
ATOM     33  O   UNL     1     111.266 129.649 139.138  0.00  0.00    +0.000 OA
ATOM     34  O   UNL     1     108.916 129.343 138.423  0.00  0.00    +0.000 OA
ATOM     35  O   UNL     1     109.485 128.545 139.751  0.00  0.00    +0.000 OA
ATOM     36  O   UNL     1     109.914 130.345 137.572  0.00  0.00    +0.000 OA
ATOM     37  C   UNL     1     109.699 129.445 138.662  0.00  0.00    +0.000 C 
ATOM     38  C   UNL     1     109.984 129.046 139.326  0.00  0.00    +0.000 C 
ATOM     39  C   UNL     1     110.199 129.946 138.237  0.00  0.00    +0.000 C 
ATOM     40  C   UNL     1     110.767 129.148 139.564  0.00  0.00    +0.000 C 
ATOM     41  C   UNL     1     110.982 130.048 138.475  0.00  0.00    +0.000 C 
BRANCH  41  44
ATOM     42  O   UNL     1     111.633 131.310 138.324  0.00  0.00    +0.000 OA
ATOM     43  O   UNL     1     111.825 130.287 137.347  0.00  0.00    +0.000 OA
ATOM     44  C   UNL     1     111.480 130.549 138.049  0.00  0.00    +0.000 C 
ENDBRANCH  41  44
ENDBRANCH  32  40
ENDBRANCH   5  32
TORSDOF 6
ENDMDL
