MODEL 1
REMARK VINA RESULT:     -10.9      0.000      0.000
REMARK  Name = 131838818
REMARK  7 active torsions:
REMARK  status: ('A' for Active; 'I' for Inactive)
REMARK    1  A    between atoms: O_3  and  C_23
REMARK    2  A    between atoms: O_3  and  C_31
REMARK    3  A    between atoms: O_7  and  C_28
REMARK    4  A    between atoms: O_7  and  C_32
REMARK    5  A    between atoms: C_22  and  C_29
REMARK    6  A    between atoms: C_27  and  C_30
REMARK    7  A    between atoms: C_38  and  C_41
REMARK                            x       y       z     vdW  Elec       q    Type
REMARK                         _______ _______ _______ _____ _____    ______ ____
ROOT
ATOM      1  O   UNL     1     110.289 128.158 136.004  0.00  0.00    +0.000 OA
ATOM      2  O   UNL     1     107.923 129.802 135.789  0.00  0.00    +0.000 OA
ATOM      3  O   UNL     1     108.545 126.872 135.736  0.00  0.00    +0.000 OA
ATOM      4  O   UNL     1     107.839 128.364 135.716  0.00  0.00    +0.000 OA
ATOM      5  C   UNL     1     110.068 130.380 136.074  0.00  0.00    +0.000 A 
ATOM      6  C   UNL     1     110.430 129.601 136.084  0.00  0.00    +0.000 A 
ATOM      7  C   UNL     1     109.218 130.452 135.975  0.00  0.00    +0.000 A 
ATOM      8  C   UNL     1     109.936 128.903 135.994  0.00  0.00    +0.000 A 
ATOM      9  C   UNL     1     109.120 128.972 135.898  0.00  0.00    +0.000 A 
ATOM     10  C   UNL     1     108.740 129.742 135.886  0.00  0.00    +0.000 A 
ATOM     11  C   UNL     1     109.825 127.480 135.918  0.00  0.00    +0.000 A 
ATOM     12  C   UNL     1     108.656 128.295 135.812  0.00  0.00    +0.000 A 
ATOM     13  C   UNL     1     109.009 127.549 135.822  0.00  0.00    +0.000 A 
ENDROOT
BRANCH  11  17
ATOM     14  O   UNL     1     111.239 124.500 135.957  0.00  0.00    +0.000 OA
ATOM     15  C   UNL     1     110.707 125.625 136.656  0.00  0.00    +0.000 A 
ATOM     16  C   UNL     1     110.353 126.371 136.647  0.00  0.00    +0.000 A 
ATOM     17  C   UNL     1     110.179 126.735 135.928  0.00  0.00    +0.000 A 
ATOM     18  C   UNL     1     110.886 125.245 135.947  0.00  0.00    +0.000 A 
ATOM     19  C   UNL     1     110.357 126.355 135.218  0.00  0.00    +0.000 A 
ATOM     20  C   UNL     1     110.711 125.609 135.228  0.00  0.00    +0.000 A 
BRANCH  15  21
ATOM     21  O   UNL     1     110.882 125.261 137.375  0.00  0.00    +0.000 OA
BRANCH  21  30
ATOM     22  O   UNL     1     112.115 125.926 137.652  0.00  0.00    +0.000 OA
ATOM     23  O   UNL     1     111.475 126.124 140.035  0.00  0.00    +0.000 OA
ATOM     24  O   UNL     1     112.922 126.724 139.517  0.00  0.00    +0.000 OA
ATOM     25  O   UNL     1     110.454 125.392 138.964  0.00  0.00    +0.000 OA
ATOM     26  C   UNL     1     111.688 126.058 139.240  0.00  0.00    +0.000 C 
ATOM     27  C   UNL     1     112.412 126.358 138.981  0.00  0.00    +0.000 C 
ATOM     28  C   UNL     1     111.178 125.692 138.705  0.00  0.00    +0.000 C 
ATOM     29  C   UNL     1     112.625 126.292 138.187  0.00  0.00    +0.000 C 
ATOM     30  C   UNL     1     111.391 125.626 137.911  0.00  0.00    +0.000 C 
BRANCH  29  33
ATOM     31  O   UNL     1     114.007 126.097 137.882  0.00  0.00    +0.000 OA
ATOM     32  O   UNL     1     113.415 127.387 137.718  0.00  0.00    +0.000 OA
ATOM     33  C   UNL     1     113.349 126.593 137.929  0.00  0.00    +0.000 C 
ENDBRANCH  29  33
ENDBRANCH  21  30
ENDBRANCH  15  21
ENDBRANCH  11  17
BRANCH   5  34
ATOM     34  O   UNL     1     110.534 131.056 136.160  0.00  0.00    +0.000 OA
BRANCH  34  43
ATOM     35  O   UNL     1     110.526 131.157 137.586  0.00  0.00    +0.000 OA
ATOM     36  O   UNL     1     110.193 133.603 137.410  0.00  0.00    +0.000 OA
ATOM     37  O   UNL     1     110.296 132.889 138.893  0.00  0.00    +0.000 OA
ATOM     38  O   UNL     1     110.312 132.686 136.043  0.00  0.00    +0.000 OA
ATOM     39  C   UNL     1     110.304 132.788 137.469  0.00  0.00    +0.000 C 
ATOM     40  C   UNL     1     110.355 132.430 138.210  0.00  0.00    +0.000 C 
ATOM     41  C   UNL     1     110.363 132.329 136.785  0.00  0.00    +0.000 C 
ATOM     42  C   UNL     1     110.466 131.616 138.269  0.00  0.00    +0.000 C 
ATOM     43  C   UNL     1     110.474 131.514 136.843  0.00  0.00    +0.000 C 
BRANCH  42  45
ATOM     44  O   UNL     1     111.216 130.881 139.238  0.00  0.00    +0.000 OA
ATOM     45  C   UNL     1     110.518 131.258 139.010  0.00  0.00    +0.000 C 
ENDBRANCH  42  45
ENDBRANCH  34  43
ENDBRANCH   5  34
TORSDOF 7
ENDMDL
MODEL 2
REMARK VINA RESULT:     -10.4      8.230     10.630
REMARK  Name = 131838818
REMARK  7 active torsions:
REMARK  status: ('A' for Active; 'I' for Inactive)
REMARK    1  A    between atoms: O_3  and  C_23
REMARK    2  A    between atoms: O_3  and  C_31
REMARK    3  A    between atoms: O_7  and  C_28
REMARK    4  A    between atoms: O_7  and  C_32
REMARK    5  A    between atoms: C_22  and  C_29
REMARK    6  A    between atoms: C_27  and  C_30
REMARK    7  A    between atoms: C_38  and  C_41
REMARK                            x       y       z     vdW  Elec       q    Type
REMARK                         _______ _______ _______ _____ _____    ______ ____
ROOT
ATOM      1  O   UNL     1     105.598 125.901 144.515  0.00  0.00    +0.000 OA
ATOM      2  O   UNL     1     106.788 125.909 147.148  0.00  0.00    +0.000 OA
ATOM      3  O   UNL     1     106.958 127.601 144.682  0.00  0.00    +0.000 OA
ATOM      4  O   UNL     1     107.119 126.924 146.178  0.00  0.00    +0.000 OA
ATOM      5  C   UNL     1     105.310 124.498 146.231  0.00  0.00    +0.000 A 
ATOM      6  C   UNL     1     105.229 124.855 145.453  0.00  0.00    +0.000 A 
ATOM      7  C   UNL     1     105.837 124.853 146.808  0.00  0.00    +0.000 A 
ATOM      8  C   UNL     1     105.679 125.563 145.263  0.00  0.00    +0.000 A 
ATOM      9  C   UNL     1     106.186 125.904 145.818  0.00  0.00    +0.000 A 
ATOM     10  C   UNL     1     106.279 125.561 146.600  0.00  0.00    +0.000 A 
ATOM     11  C   UNL     1     106.024 126.581 144.321  0.00  0.00    +0.000 A 
ATOM     12  C   UNL     1     106.612 126.583 145.624  0.00  0.00    +0.000 A 
ATOM     13  C   UNL     1     106.531 126.922 144.876  0.00  0.00    +0.000 A 
ENDROOT
BRANCH  11  17
ATOM     14  O   UNL     1     105.698 127.933 141.330  0.00  0.00    +0.000 OA
ATOM     15  C   UNL     1     106.331 126.994 142.200  0.00  0.00    +0.000 A 
ATOM     16  C   UNL     1     106.413 126.656 142.948  0.00  0.00    +0.000 A 
ATOM     17  C   UNL     1     105.943 126.919 143.573  0.00  0.00    +0.000 A 
ATOM     18  C   UNL     1     105.780 127.596 142.077  0.00  0.00    +0.000 A 
ATOM     19  C   UNL     1     105.392 127.520 143.451  0.00  0.00    +0.000 A 
ATOM     20  C   UNL     1     105.310 127.858 142.703  0.00  0.00    +0.000 A 
BRANCH  15  21
ATOM     21  O   UNL     1     106.801 126.732 141.575  0.00  0.00    +0.000 OA
BRANCH  21  30
ATOM     22  O   UNL     1     106.153 125.496 141.269  0.00  0.00    +0.000 OA
ATOM     23  O   UNL     1     108.354 124.372 141.141  0.00  0.00    +0.000 OA
ATOM     24  O   UNL     1     106.972 123.511 140.877  0.00  0.00    +0.000 OA
ATOM     25  O   UNL     1     108.269 125.983 141.490  0.00  0.00    +0.000 OA
ATOM     26  C   UNL     1     107.621 124.747 141.184  0.00  0.00    +0.000 C 
ATOM     27  C   UNL     1     106.929 124.316 141.052  0.00  0.00    +0.000 C 
ATOM     28  C   UNL     1     107.578 125.552 141.358  0.00  0.00    +0.000 C 
ATOM     29  C   UNL     1     106.196 124.691 141.094  0.00  0.00    +0.000 C 
ATOM     30  C   UNL     1     106.844 125.927 141.401  0.00  0.00    +0.000 C 
BRANCH  29  33
ATOM     31  O   UNL     1     105.148 124.272 140.218  0.00  0.00    +0.000 OA
ATOM     32  O   UNL     1     105.171 123.816 141.573  0.00  0.00    +0.000 OA
ATOM     33  C   UNL     1     105.505 124.260 140.962  0.00  0.00    +0.000 C 
ENDBRANCH  29  33
ENDBRANCH  21  30
ENDBRANCH  15  21
ENDBRANCH  11  17
BRANCH   5  34
ATOM     34  O   UNL     1     104.882 123.819 146.421  0.00  0.00    +0.000 OA
BRANCH  34  43
ATOM     35  O   UNL     1     103.724 124.436 146.987  0.00  0.00    +0.000 OA
ATOM     36  O   UNL     1     102.280 122.816 145.796  0.00  0.00    +0.000 OA
ATOM     37  O   UNL     1     101.604 123.972 146.759  0.00  0.00    +0.000 OA
ATOM     38  O   UNL     1     103.920 122.739 145.628  0.00  0.00    +0.000 OA
ATOM     39  C   UNL     1     102.761 123.356 146.193  0.00  0.00    +0.000 C 
ATOM     40  C   UNL     1     102.423 123.934 146.675  0.00  0.00    +0.000 C 
ATOM     41  C   UNL     1     103.582 123.318 146.109  0.00  0.00    +0.000 C 
ATOM     42  C   UNL     1     102.904 124.473 147.071  0.00  0.00    +0.000 C 
ATOM     43  C   UNL     1     104.062 123.857 146.505  0.00  0.00    +0.000 C 
BRANCH  42  45
ATOM     44  O   UNL     1     102.873 125.191 148.306  0.00  0.00    +0.000 OA
ATOM     45  C   UNL     1     102.566 125.052 147.553  0.00  0.00    +0.000 C 
ENDBRANCH  42  45
ENDBRANCH  34  43
ENDBRANCH   5  34
TORSDOF 7
ENDMDL
MODEL 3
REMARK VINA RESULT:     -10.4      1.871      6.489
REMARK  Name = 131838818
REMARK  7 active torsions:
REMARK  status: ('A' for Active; 'I' for Inactive)
REMARK    1  A    between atoms: O_3  and  C_23
REMARK    2  A    between atoms: O_3  and  C_31
REMARK    3  A    between atoms: O_7  and  C_28
REMARK    4  A    between atoms: O_7  and  C_32
REMARK    5  A    between atoms: C_22  and  C_29
REMARK    6  A    between atoms: C_27  and  C_30
REMARK    7  A    between atoms: C_38  and  C_41
REMARK                            x       y       z     vdW  Elec       q    Type
REMARK                         _______ _______ _______ _____ _____    ______ ____
ROOT
ATOM      1  O   UNL     1     112.538 128.603 138.389  0.00  0.00    +0.000 OA
ATOM      2  O   UNL     1     114.044 127.322 140.496  0.00  0.00    +0.000 OA
ATOM      3  O   UNL     1     113.752 130.100 139.415  0.00  0.00    +0.000 OA
ATOM      4  O   UNL     1     114.160 128.739 140.255  0.00  0.00    +0.000 OA
ATOM      5  C   UNL     1     112.593 126.461 139.023  0.00  0.00    +0.000 A 
ATOM      6  C   UNL     1     112.384 127.173 138.589  0.00  0.00    +0.000 A 
ATOM      7  C   UNL     1     113.155 126.508 139.670  0.00  0.00    +0.000 A 
ATOM      8  C   UNL     1     112.742 127.923 138.809  0.00  0.00    +0.000 A 
ATOM      9  C   UNL     1     113.283 127.968 139.431  0.00  0.00    +0.000 A 
ATOM     10  C   UNL     1     113.503 127.267 139.876  0.00  0.00    +0.000 A 
ATOM     11  C   UNL     1     112.875 129.329 138.591  0.00  0.00    +0.000 A 
ATOM     12  C   UNL     1     113.619 128.694 139.633  0.00  0.00    +0.000 A 
ATOM     13  C   UNL     1     113.416 129.374 139.213  0.00  0.00    +0.000 A 
ENDROOT
BRANCH  11  17
ATOM     14  O   UNL     1     112.060 132.048 136.909  0.00  0.00    +0.000 OA
ATOM     15  C   UNL     1     111.869 131.183 138.030  0.00  0.00    +0.000 A 
ATOM     16  C   UNL     1     112.073 130.503 138.451  0.00  0.00    +0.000 A 
ATOM     17  C   UNL     1     112.671 130.009 138.171  0.00  0.00    +0.000 A 
ATOM     18  C   UNL     1     112.264 131.368 137.329  0.00  0.00    +0.000 A 
ATOM     19  C   UNL     1     113.066 130.194 137.471  0.00  0.00    +0.000 A 
ATOM     20  C   UNL     1     112.862 130.874 137.050  0.00  0.00    +0.000 A 
BRANCH  15  21
ATOM     21  O   UNL     1     111.271 131.678 138.310  0.00  0.00    +0.000 OA
BRANCH  21  30
ATOM     22  O   UNL     1     110.131 130.892 137.961  0.00  0.00    +0.000 OA
ATOM     23  O   UNL     1     109.124 131.370 140.171  0.00  0.00    +0.000 OA
ATOM     24  O   UNL     1     108.319 130.425 139.085  0.00  0.00    +0.000 OA
ATOM     25  O   UNL     1     110.601 131.997 139.784  0.00  0.00    +0.000 OA
ATOM     26  C   UNL     1     109.460 131.211 139.434  0.00  0.00    +0.000 C 
ATOM     27  C   UNL     1     109.057 130.738 138.891  0.00  0.00    +0.000 C 
ATOM     28  C   UNL     1     110.198 131.524 139.241  0.00  0.00    +0.000 C 
ATOM     29  C   UNL     1     109.393 130.579 138.154  0.00  0.00    +0.000 C 
ATOM     30  C   UNL     1     110.534 131.365 138.504  0.00  0.00    +0.000 C 
BRANCH  29  33
ATOM     31  O   UNL     1     108.510 130.455 137.038  0.00  0.00    +0.000 OA
ATOM     32  O   UNL     1     109.064 129.285 137.643  0.00  0.00    +0.000 OA
ATOM     33  C   UNL     1     108.989 130.106 137.612  0.00  0.00    +0.000 C 
ENDBRANCH  29  33
ENDBRANCH  21  30
ENDBRANCH  15  21
ENDBRANCH  11  17
BRANCH   5  34
ATOM     34  O   UNL     1     112.255 125.736 138.819  0.00  0.00    +0.000 OA
BRANCH  34  43
ATOM     35  O   UNL     1     113.302 125.322 137.940  0.00  0.00    +0.000 OA
ATOM     36  O   UNL     1     111.639 124.209 136.484  0.00  0.00    +0.000 OA
ATOM     37  O   UNL     1     113.240 124.165 136.091  0.00  0.00    +0.000 OA
ATOM     38  O   UNL     1     111.146 124.995 137.848  0.00  0.00    +0.000 OA
ATOM     39  C   UNL     1     112.193 124.580 136.969  0.00  0.00    +0.000 C 
ATOM     40  C   UNL     1     112.994 124.558 136.773  0.00  0.00    +0.000 C 
ATOM     41  C   UNL     1     111.947 124.973 137.652  0.00  0.00    +0.000 C 
ATOM     42  C   UNL     1     113.548 124.929 137.258  0.00  0.00    +0.000 C 
ATOM     43  C   UNL     1     112.500 125.344 138.137  0.00  0.00    +0.000 C 
BRANCH  42  45
ATOM     44  O   UNL     1     114.899 124.623 137.607  0.00  0.00    +0.000 OA
ATOM     45  C   UNL     1     114.349 124.907 137.061  0.00  0.00    +0.000 C 
ENDBRANCH  42  45
ENDBRANCH  34  43
ENDBRANCH   5  34
TORSDOF 7
ENDMDL
MODEL 4
REMARK VINA RESULT:     -10.3      1.633      3.254
REMARK  Name = 131838818
REMARK  7 active torsions:
REMARK  status: ('A' for Active; 'I' for Inactive)
REMARK    1  A    between atoms: O_3  and  C_23
REMARK    2  A    between atoms: O_3  and  C_31
REMARK    3  A    between atoms: O_7  and  C_28
REMARK    4  A    between atoms: O_7  and  C_32
REMARK    5  A    between atoms: C_22  and  C_29
REMARK    6  A    between atoms: C_27  and  C_30
REMARK    7  A    between atoms: C_38  and  C_41
REMARK                            x       y       z     vdW  Elec       q    Type
REMARK                         _______ _______ _______ _____ _____    ______ ____
ROOT
ATOM      1  O   UNL     1     112.179 126.725 136.224  0.00  0.00    +0.000 OA
ATOM      2  O   UNL     1     109.917 125.695 134.751  0.00  0.00    +0.000 OA
ATOM      3  O   UNL     1     112.014 124.576 136.574  0.00  0.00    +0.000 OA
ATOM      4  O   UNL     1     110.737 124.826 135.559  0.00  0.00    +0.000 OA
ATOM      5  C   UNL     1     110.723 127.779 134.896  0.00  0.00    +0.000 A 
ATOM      6  C   UNL     1     111.386 127.644 135.425  0.00  0.00    +0.000 A 
ATOM      7  C   UNL     1     110.223 127.121 134.666  0.00  0.00    +0.000 A 
ATOM      8  C   UNL     1     111.541 126.849 135.717  0.00  0.00    +0.000 A 
ATOM      9  C   UNL     1     111.060 126.217 135.495  0.00  0.00    +0.000 A 
ATOM     10  C   UNL     1     110.392 126.333 134.967  0.00  0.00    +0.000 A 
ATOM     11  C   UNL     1     112.337 125.967 136.510  0.00  0.00    +0.000 A 
ATOM     12  C   UNL     1     111.218 125.459 135.781  0.00  0.00    +0.000 A 
ATOM     13  C   UNL     1     111.856 125.334 136.288  0.00  0.00    +0.000 A 
ENDROOT
BRANCH  11  17
ATOM     14  O   UNL     1     114.891 125.470 138.538  0.00  0.00    +0.000 OA
ATOM     15  C   UNL     1     113.547 125.902 138.326  0.00  0.00    +0.000 A 
ATOM     16  C   UNL     1     112.907 126.026 137.819  0.00  0.00    +0.000 A 
ATOM     17  C   UNL     1     112.975 125.843 137.017  0.00  0.00    +0.000 A 
ATOM     18  C   UNL     1     114.253 125.594 138.031  0.00  0.00    +0.000 A 
ATOM     19  C   UNL     1     113.681 125.535 136.722  0.00  0.00    +0.000 A 
ATOM     20  C   UNL     1     114.320 125.411 137.229  0.00  0.00    +0.000 A 
BRANCH  15  21
ATOM     21  O   UNL     1     113.479 126.085 139.127  0.00  0.00    +0.000 OA
BRANCH  21  30
ATOM     22  O   UNL     1     113.393 127.509 139.055  0.00  0.00    +0.000 OA
ATOM     23  O   UNL     1     111.521 127.478 140.673  0.00  0.00    +0.000 OA
ATOM     24  O   UNL     1     112.058 128.913 140.061  0.00  0.00    +0.000 OA
ATOM     25  O   UNL     1     112.231 126.064 140.207  0.00  0.00    +0.000 OA
ATOM     26  C   UNL     1     112.145 127.489 140.134  0.00  0.00    +0.000 C 
ATOM     27  C   UNL     1     112.414 128.206 139.828  0.00  0.00    +0.000 C 
ATOM     28  C   UNL     1     112.500 126.781 139.900  0.00  0.00    +0.000 C 
ATOM     29  C   UNL     1     113.038 128.216 139.288  0.00  0.00    +0.000 C 
ATOM     30  C   UNL     1     113.124 126.791 139.361  0.00  0.00    +0.000 C 
BRANCH  29  33
ATOM     31  O   UNL     1     112.965 129.243 138.298  0.00  0.00    +0.000 OA
ATOM     32  O   UNL     1     113.915 129.343 139.361  0.00  0.00    +0.000 OA
ATOM     33  C   UNL     1     113.306 128.934 138.982  0.00  0.00    +0.000 C 
ENDBRANCH  29  33
ENDBRANCH  21  30
ENDBRANCH  15  21
ENDBRANCH  11  17
BRANCH   5  34
ATOM     34  O   UNL     1     110.567 128.538 134.612  0.00  0.00    +0.000 OA
BRANCH  34  43
ATOM     35  O   UNL     1     109.492 128.978 135.444  0.00  0.00    +0.000 OA
ATOM     36  O   UNL     1     110.728 131.064 135.938  0.00  0.00    +0.000 OA
ATOM     37  O   UNL     1     109.241 130.809 136.605  0.00  0.00    +0.000 OA
ATOM     38  O   UNL     1     111.391 129.929 134.942  0.00  0.00    +0.000 OA
ATOM     39  C   UNL     1     110.316 130.369 135.774  0.00  0.00    +0.000 C 
ATOM     40  C   UNL     1     109.572 130.241 136.107  0.00  0.00    +0.000 C 
ATOM     41  C   UNL     1     110.648 129.801 135.275  0.00  0.00    +0.000 C 
ATOM     42  C   UNL     1     109.161 129.546 135.942  0.00  0.00    +0.000 C 
ATOM     43  C   UNL     1     110.236 129.106 135.110  0.00  0.00    +0.000 C 
BRANCH  42  45
ATOM     44  O   UNL     1     107.809 129.101 135.815  0.00  0.00    +0.000 OA
ATOM     45  C   UNL     1     108.417 129.418 136.275  0.00  0.00    +0.000 C 
ENDBRANCH  42  45
ENDBRANCH  34  43
ENDBRANCH   5  34
TORSDOF 7
ENDMDL
MODEL 5
REMARK VINA RESULT:     -10.3      1.218      5.220
REMARK  Name = 131838818
REMARK  7 active torsions:
REMARK  status: ('A' for Active; 'I' for Inactive)
REMARK    1  A    between atoms: O_3  and  C_23
REMARK    2  A    between atoms: O_3  and  C_31
REMARK    3  A    between atoms: O_7  and  C_28
REMARK    4  A    between atoms: O_7  and  C_32
REMARK    5  A    between atoms: C_22  and  C_29
REMARK    6  A    between atoms: C_27  and  C_30
REMARK    7  A    between atoms: C_38  and  C_41
REMARK                            x       y       z     vdW  Elec       q    Type
REMARK                         _______ _______ _______ _____ _____    ______ ____
ROOT
ATOM      1  O   UNL     1     110.081 130.027 136.752  0.00  0.00    +0.000 OA
ATOM      2  O   UNL     1     108.067 128.351 135.535  0.00  0.00    +0.000 OA
ATOM      3  O   UNL     1     108.142 131.023 136.885  0.00  0.00    +0.000 OA
ATOM      4  O   UNL     1     107.724 129.629 136.109  0.00  0.00    +0.000 OA
ATOM      5  C   UNL     1     110.267 128.021 135.785  0.00  0.00    +0.000 A 
ATOM      6  C   UNL     1     110.480 128.749 136.189  0.00  0.00    +0.000 A 
ATOM      7  C   UNL     1     109.450 127.883 135.561  0.00  0.00    +0.000 A 
ATOM      8  C   UNL     1     109.871 129.330 136.364  0.00  0.00    +0.000 A 
ATOM      9  C   UNL     1     109.085 129.197 136.150  0.00  0.00    +0.000 A 
ATOM     10  C   UNL     1     108.854 128.475 135.745  0.00  0.00    +0.000 A 
ATOM     11  C   UNL     1     109.504 130.592 136.926  0.00  0.00    +0.000 A 
ATOM     12  C   UNL     1     108.509 129.762 136.323  0.00  0.00    +0.000 A 
ATOM     13  C   UNL     1     108.718 130.459 136.711  0.00  0.00    +0.000 A 
ENDROOT
BRANCH  11  17
ATOM     14  O   UNL     1     110.345 133.380 138.476  0.00  0.00    +0.000 OA
ATOM     15  C   UNL     1     109.935 132.013 138.525  0.00  0.00    +0.000 A 
ATOM     16  C   UNL     1     109.725 131.316 138.138  0.00  0.00    +0.000 A 
ATOM     17  C   UNL     1     109.714 131.289 137.313  0.00  0.00    +0.000 A 
ATOM     18  C   UNL     1     110.135 132.684 138.088  0.00  0.00    +0.000 A 
ATOM     19  C   UNL     1     109.913 131.959 136.876  0.00  0.00    +0.000 A 
ATOM     20  C   UNL     1     110.124 132.657 137.263  0.00  0.00    +0.000 A 
BRANCH  15  21
ATOM     21  O   UNL     1     109.946 132.040 139.350  0.00  0.00    +0.000 OA
BRANCH  21  30
ATOM     22  O   UNL     1     111.072 131.195 139.588  0.00  0.00    +0.000 OA
ATOM     23  O   UNL     1     109.856 130.095 141.442  0.00  0.00    +0.000 OA
ATOM     24  O   UNL     1     111.389 129.617 141.063  0.00  0.00    +0.000 OA
ATOM     25  O   UNL     1     109.134 131.307 140.586  0.00  0.00    +0.000 OA
ATOM     26  C   UNL     1     110.262 130.462 140.824  0.00  0.00    +0.000 C 
ATOM     27  C   UNL     1     111.028 130.223 140.634  0.00  0.00    +0.000 C 
ATOM     28  C   UNL     1     109.901 131.068 140.396  0.00  0.00    +0.000 C 
ATOM     29  C   UNL     1     111.433 130.589 140.016  0.00  0.00    +0.000 C 
ATOM     30  C   UNL     1     110.306 131.434 139.778  0.00  0.00    +0.000 C 
BRANCH  29  33
ATOM     31  O   UNL     1     112.847 130.749 140.147  0.00  0.00    +0.000 OA
ATOM     32  O   UNL     1     112.320 129.710 139.319  0.00  0.00    +0.000 OA
ATOM     33  C   UNL     1     112.200 130.349 139.827  0.00  0.00    +0.000 C 
ENDBRANCH  29  33
ENDBRANCH  21  30
ENDBRANCH  15  21
ENDBRANCH  11  17
BRANCH   5  34
ATOM     34  O   UNL     1     110.846 127.458 135.612  0.00  0.00    +0.000 OA
BRANCH  34  43
ATOM     35  O   UNL     1     110.928 126.842 136.899  0.00  0.00    +0.000 OA
ATOM     36  O   UNL     1     111.080 124.618 135.823  0.00  0.00    +0.000 OA
ATOM     37  O   UNL     1     111.111 124.743 137.467  0.00  0.00    +0.000 OA
ATOM     38  O   UNL     1     110.948 125.976 134.895  0.00  0.00    +0.000 OA
ATOM     39  C   UNL     1     111.029 125.359 136.182  0.00  0.00    +0.000 C 
ATOM     40  C   UNL     1     111.045 125.422 137.004  0.00  0.00    +0.000 C 
ATOM     41  C   UNL     1     110.963 126.039 135.717  0.00  0.00    +0.000 C 
ATOM     42  C   UNL     1     110.994 126.163 137.362  0.00  0.00    +0.000 C 
ATOM     43  C   UNL     1     110.912 126.779 136.076  0.00  0.00    +0.000 C 
BRANCH  42  45
ATOM     44  O   UNL     1     111.594 126.679 138.552  0.00  0.00    +0.000 OA
ATOM     45  C   UNL     1     111.009 126.226 138.184  0.00  0.00    +0.000 C 
ENDBRANCH  42  45
ENDBRANCH  34  43
ENDBRANCH   5  34
TORSDOF 7
ENDMDL
MODEL 6
REMARK VINA RESULT:     -10.3      1.578      5.910
REMARK  Name = 131838818
REMARK  7 active torsions:
REMARK  status: ('A' for Active; 'I' for Inactive)
REMARK    1  A    between atoms: O_3  and  C_23
REMARK    2  A    between atoms: O_3  and  C_31
REMARK    3  A    between atoms: O_7  and  C_28
REMARK    4  A    between atoms: O_7  and  C_32
REMARK    5  A    between atoms: C_22  and  C_29
REMARK    6  A    between atoms: C_27  and  C_30
REMARK    7  A    between atoms: C_38  and  C_41
REMARK                            x       y       z     vdW  Elec       q    Type
REMARK                         _______ _______ _______ _____ _____    ______ ____
ROOT
ATOM      1  O   UNL     1     111.060 128.578 136.536  0.00  0.00    +0.000 OA
ATOM      2  O   UNL     1     113.688 128.563 135.336  0.00  0.00    +0.000 OA
ATOM      3  O   UNL     1     111.093 129.983 134.865  0.00  0.00    +0.000 OA
ATOM      4  O   UNL     1     112.640 129.411 134.822  0.00  0.00    +0.000 OA
ATOM      5  C   UNL     1     112.883 127.404 137.075  0.00  0.00    +0.000 A 
ATOM      6  C   UNL     1     112.079 127.706 137.093  0.00  0.00    +0.000 A 
ATOM      7  C   UNL     1     113.431 127.693 136.481  0.00  0.00    +0.000 A 
ATOM      8  C   UNL     1     111.833 128.293 136.514  0.00  0.00    +0.000 A 
ATOM      9  C   UNL     1     112.360 128.570 135.943  0.00  0.00    +0.000 A 
ATOM     10  C   UNL     1     113.168 128.280 135.910  0.00  0.00    +0.000 A 
ATOM     11  C   UNL     1     110.813 129.142 135.986  0.00  0.00    +0.000 A 
ATOM     12  C   UNL     1     112.114 129.133 135.393  0.00  0.00    +0.000 A 
ATOM     13  C   UNL     1     111.340 129.420 135.414  0.00  0.00    +0.000 A 
ENDROOT
BRANCH  11  17
ATOM     14  O   UNL     1     107.719 130.284 136.072  0.00  0.00    +0.000 OA
ATOM     15  C   UNL     1     109.102 130.433 136.396  0.00  0.00    +0.000 A 
ATOM     16  C   UNL     1     109.876 130.148 136.375  0.00  0.00    +0.000 A 
ATOM     17  C   UNL     1     110.040 129.428 136.007  0.00  0.00    +0.000 A 
ATOM     18  C   UNL     1     108.492 129.998 136.051  0.00  0.00    +0.000 A 
ATOM     19  C   UNL     1     109.430 128.993 135.661  0.00  0.00    +0.000 A 
ATOM     20  C   UNL     1     108.656 129.278 135.683  0.00  0.00    +0.000 A 
BRANCH  15  21
ATOM     21  O   UNL     1     108.937 131.153 136.764  0.00  0.00    +0.000 OA
BRANCH  21  30
ATOM     22  O   UNL     1     108.964 130.705 138.120  0.00  0.00    +0.000 OA
ATOM     23  O   UNL     1     110.163 132.767 138.779  0.00  0.00    +0.000 OA
ATOM     24  O   UNL     1     109.790 131.631 139.916  0.00  0.00    +0.000 OA
ATOM     25  O   UNL     1     109.737 132.529 137.203  0.00  0.00    +0.000 OA
ATOM     26  C   UNL     1     109.763 132.080 138.559  0.00  0.00    +0.000 C 
ATOM     27  C   UNL     1     109.577 131.512 139.128  0.00  0.00    +0.000 C 
ATOM     28  C   UNL     1     109.550 131.961 137.771  0.00  0.00    +0.000 C 
ATOM     29  C   UNL     1     109.177 130.825 138.908  0.00  0.00    +0.000 C 
ATOM     30  C   UNL     1     109.151 131.273 137.551  0.00  0.00    +0.000 C 
BRANCH  29  33
ATOM     31  O   UNL     1     109.557 129.703 139.707  0.00  0.00    +0.000 OA
ATOM     32  O   UNL     1     108.239 130.243 139.816  0.00  0.00    +0.000 OA
ATOM     33  C   UNL     1     108.991 130.257 139.477  0.00  0.00    +0.000 C 
ENDBRANCH  29  33
ENDBRANCH  21  30
ENDBRANCH  15  21
ENDBRANCH  11  17
BRANCH   5  34
ATOM     34  O   UNL     1     113.127 126.841 137.626  0.00  0.00    +0.000 OA
BRANCH  34  43
ATOM     35  O   UNL     1     112.536 125.686 137.026  0.00  0.00    +0.000 OA
ATOM     36  O   UNL     1     114.573 124.377 137.538  0.00  0.00    +0.000 OA
ATOM     37  O   UNL     1     113.303 123.660 136.767  0.00  0.00    +0.000 OA
ATOM     38  O   UNL     1     114.485 125.968 137.967  0.00  0.00    +0.000 OA
ATOM     39  C   UNL     1     113.894 124.813 137.367  0.00  0.00    +0.000 C 
ATOM     40  C   UNL     1     113.259 124.455 136.982  0.00  0.00    +0.000 C 
ATOM     41  C   UNL     1     113.850 125.609 137.582  0.00  0.00    +0.000 C 
ATOM     42  C   UNL     1     112.581 124.891 136.811  0.00  0.00    +0.000 C 
ATOM     43  C   UNL     1     113.172 126.045 137.411  0.00  0.00    +0.000 C 
BRANCH  42  45
ATOM     44  O   UNL     1     111.182 124.609 136.731  0.00  0.00    +0.000 OA
ATOM     45  C   UNL     1     111.945 124.533 136.426  0.00  0.00    +0.000 C 
ENDBRANCH  42  45
ENDBRANCH  34  43
ENDBRANCH   5  34
TORSDOF 7
ENDMDL
MODEL 7
REMARK VINA RESULT:     -10.2      1.763      4.830
REMARK  Name = 131838818
REMARK  7 active torsions:
REMARK  status: ('A' for Active; 'I' for Inactive)
REMARK    1  A    between atoms: O_3  and  C_23
REMARK    2  A    between atoms: O_3  and  C_31
REMARK    3  A    between atoms: O_7  and  C_28
REMARK    4  A    between atoms: O_7  and  C_32
REMARK    5  A    between atoms: C_22  and  C_29
REMARK    6  A    between atoms: C_27  and  C_30
REMARK    7  A    between atoms: C_38  and  C_41
REMARK                            x       y       z     vdW  Elec       q    Type
REMARK                         _______ _______ _______ _____ _____    ______ ____
ROOT
ATOM      1  O   UNL     1     111.820 126.487 137.961  0.00  0.00    +0.000 OA
ATOM      2  O   UNL     1     114.325 126.229 139.375  0.00  0.00    +0.000 OA
ATOM      3  O   UNL     1     113.258 125.449 136.687  0.00  0.00    +0.000 OA
ATOM      4  O   UNL     1     114.169 125.712 138.038  0.00  0.00    +0.000 OA
ATOM      5  C   UNL     1     112.393 127.164 140.011  0.00  0.00    +0.000 A 
ATOM      6  C   UNL     1     111.923 127.025 139.305  0.00  0.00    +0.000 A 
ATOM      7  C   UNL     1     113.208 126.896 140.038  0.00  0.00    +0.000 A 
ATOM      8  C   UNL     1     112.275 126.618 138.635  0.00  0.00    +0.000 A 
ATOM      9  C   UNL     1     113.059 126.360 138.661  0.00  0.00    +0.000 A 
ATOM     10  C   UNL     1     113.543 126.490 139.358  0.00  0.00    +0.000 A 
ATOM     11  C   UNL     1     112.147 126.097 137.310  0.00  0.00    +0.000 A 
ATOM     12  C   UNL     1     113.386 125.970 138.012  0.00  0.00    +0.000 A 
ATOM     13  C   UNL     1     112.931 125.839 137.336  0.00  0.00    +0.000 A 
ENDROOT
BRANCH  11  17
ATOM     14  O   UNL     1     110.323 125.572 134.612  0.00  0.00    +0.000 OA
ATOM     15  C   UNL     1     111.106 126.447 135.424  0.00  0.00    +0.000 A 
ATOM     16  C   UNL     1     111.563 126.579 136.099  0.00  0.00    +0.000 A 
ATOM     17  C   UNL     1     111.692 125.966 136.636  0.00  0.00    +0.000 A 
ATOM     18  C   UNL     1     110.779 125.703 135.287  0.00  0.00    +0.000 A 
ATOM     19  C   UNL     1     111.364 125.222 136.498  0.00  0.00    +0.000 A 
ATOM     20  C   UNL     1     110.908 125.090 135.824  0.00  0.00    +0.000 A 
BRANCH  15  21
ATOM     21  O   UNL     1     110.978 127.060 134.887  0.00  0.00    +0.000 OA
BRANCH  21  30
ATOM     22  O   UNL     1     109.927 127.776 135.537  0.00  0.00    +0.000 OA
ATOM     23  O   UNL     1     111.124 129.904 135.129  0.00  0.00    +0.000 OA
ATOM     24  O   UNL     1     109.673 129.911 135.916  0.00  0.00    +0.000 OA
ATOM     25  O   UNL     1     111.776 128.478 134.615  0.00  0.00    +0.000 OA
ATOM     26  C   UNL     1     110.725 129.195 135.265  0.00  0.00    +0.000 C 
ATOM     27  C   UNL     1     110.000 129.198 135.659  0.00  0.00    +0.000 C 
ATOM     28  C   UNL     1     111.051 128.482 135.008  0.00  0.00    +0.000 C 
ATOM     29  C   UNL     1     109.601 128.489 135.795  0.00  0.00    +0.000 C 
ATOM     30  C   UNL     1     110.652 127.773 135.144  0.00  0.00    +0.000 C 
BRANCH  29  33
ATOM     31  O   UNL     1     108.855 128.484 137.013  0.00  0.00    +0.000 OA
ATOM     32  O   UNL     1     108.172 128.508 135.758  0.00  0.00    +0.000 OA
ATOM     33  C   UNL     1     108.876 128.494 136.188  0.00  0.00    +0.000 C 
ENDBRANCH  29  33
ENDBRANCH  21  30
ENDBRANCH  15  21
ENDBRANCH  11  17
BRANCH   5  34
ATOM     34  O   UNL     1     112.063 127.554 140.659  0.00  0.00    +0.000 OA
BRANCH  34  43
ATOM     35  O   UNL     1     112.180 128.870 140.115  0.00  0.00    +0.000 OA
ATOM     36  O   UNL     1     112.608 129.769 142.381  0.00  0.00    +0.000 OA
ATOM     37  O   UNL     1     112.583 130.785 141.082  0.00  0.00    +0.000 OA
ATOM     38  O   UNL     1     112.348 128.153 142.170  0.00  0.00    +0.000 OA
ATOM     39  C   UNL     1     112.465 129.469 141.626  0.00  0.00    +0.000 C 
ATOM     40  C   UNL     1     112.453 129.977 140.976  0.00  0.00    +0.000 C 
ATOM     41  C   UNL     1     112.335 128.661 141.520  0.00  0.00    +0.000 C 
ATOM     42  C   UNL     1     112.310 129.678 140.222  0.00  0.00    +0.000 C 
ATOM     43  C   UNL     1     112.193 128.362 140.765  0.00  0.00    +0.000 C 
BRANCH  42  45
ATOM     44  O   UNL     1     111.661 130.166 139.046  0.00  0.00    +0.000 OA
ATOM     45  C   UNL     1     112.297 130.186 139.572  0.00  0.00    +0.000 C 
ENDBRANCH  42  45
ENDBRANCH  34  43
ENDBRANCH   5  34
TORSDOF 7
ENDMDL
MODEL 8
REMARK VINA RESULT:     -10.1      3.135      5.434
REMARK  Name = 131838818
REMARK  7 active torsions:
REMARK  status: ('A' for Active; 'I' for Inactive)
REMARK    1  A    between atoms: O_3  and  C_23
REMARK    2  A    between atoms: O_3  and  C_31
REMARK    3  A    between atoms: O_7  and  C_28
REMARK    4  A    between atoms: O_7  and  C_32
REMARK    5  A    between atoms: C_22  and  C_29
REMARK    6  A    between atoms: C_27  and  C_30
REMARK    7  A    between atoms: C_38  and  C_41
REMARK                            x       y       z     vdW  Elec       q    Type
REMARK                         _______ _______ _______ _____ _____    ______ ____
ROOT
ATOM      1  O   UNL     1     112.058 127.392 139.164  0.00  0.00    +0.000 OA
ATOM      2  O   UNL     1     112.680 128.134 141.886  0.00  0.00    +0.000 OA
ATOM      3  O   UNL     1     113.608 128.930 139.151  0.00  0.00    +0.000 OA
ATOM      4  O   UNL     1     113.356 128.754 140.773  0.00  0.00    +0.000 OA
ATOM      5  C   UNL     1     111.212 126.641 141.091  0.00  0.00    +0.000 A 
ATOM      6  C   UNL     1     111.348 126.736 140.248  0.00  0.00    +0.000 A 
ATOM      7  C   UNL     1     111.662 127.113 141.649  0.00  0.00    +0.000 A 
ATOM      8  C   UNL     1     111.933 127.305 139.974  0.00  0.00    +0.000 A 
ATOM      9  C   UNL     1     112.365 127.759 140.510  0.00  0.00    +0.000 A 
ATOM     10  C   UNL     1     112.243 127.677 141.357  0.00  0.00    +0.000 A 
ATOM     11  C   UNL     1     112.617 127.934 138.889  0.00  0.00    +0.000 A 
ATOM     12  C   UNL     1     112.923 128.300 140.236  0.00  0.00    +0.000 A 
ATOM     13  C   UNL     1     113.049 128.388 139.426  0.00  0.00    +0.000 A 
ENDROOT
BRANCH  11  17
ATOM     14  O   UNL     1     113.119 128.285 135.647  0.00  0.00    +0.000 OA
ATOM     15  C   UNL     1     113.223 127.502 136.837  0.00  0.00    +0.000 A 
ATOM     16  C   UNL     1     113.097 127.414 137.648  0.00  0.00    +0.000 A 
ATOM     17  C   UNL     1     112.743 128.022 138.079  0.00  0.00    +0.000 A 
ATOM     18  C   UNL     1     112.993 128.198 136.457  0.00  0.00    +0.000 A 
ATOM     19  C   UNL     1     112.513 128.717 137.699  0.00  0.00    +0.000 A 
ATOM     20  C   UNL     1     112.639 128.805 136.888  0.00  0.00    +0.000 A 
BRANCH  15  21
ATOM     21  O   UNL     1     113.577 126.895 136.406  0.00  0.00    +0.000 OA
BRANCH  21  30
ATOM     22  O   UNL     1     112.468 126.000 136.319  0.00  0.00    +0.000 OA
ATOM     23  O   UNL     1     113.967 124.092 136.807  0.00  0.00    +0.000 OA
ATOM     24  O   UNL     1     112.356 123.833 136.557  0.00  0.00    +0.000 OA
ATOM     25  O   UNL     1     114.578 125.623 136.731  0.00  0.00    +0.000 OA
ATOM     26  C   UNL     1     113.467 124.728 136.644  0.00  0.00    +0.000 C 
ATOM     27  C   UNL     1     112.662 124.598 136.519  0.00  0.00    +0.000 C 
ATOM     28  C   UNL     1     113.772 125.493 136.606  0.00  0.00    +0.000 C 
ATOM     29  C   UNL     1     112.162 125.234 136.357  0.00  0.00    +0.000 C 
ATOM     30  C   UNL     1     113.273 126.129 136.444  0.00  0.00    +0.000 C 
BRANCH  29  33
ATOM     31  O   UNL     1     111.069 125.015 135.464  0.00  0.00    +0.000 OA
ATOM     32  O   UNL     1     110.841 125.062 136.874  0.00  0.00    +0.000 OA
ATOM     33  C   UNL     1     111.357 125.103 136.232  0.00  0.00    +0.000 C 
ENDBRANCH  29  33
ENDBRANCH  21  30
ENDBRANCH  15  21
ENDBRANCH  11  17
BRANCH   5  34
ATOM     34  O   UNL     1     110.653 126.098 141.362  0.00  0.00    +0.000 OA
BRANCH  34  43
ATOM     35  O   UNL     1     109.578 126.981 141.689  0.00  0.00    +0.000 OA
ATOM     36  O   UNL     1     107.986 125.458 140.560  0.00  0.00    +0.000 OA
ATOM     37  O   UNL     1     107.442 126.847 141.263  0.00  0.00    +0.000 OA
ATOM     38  O   UNL     1     109.592 125.083 140.610  0.00  0.00    +0.000 OA
ATOM     39  C   UNL     1     108.517 125.966 140.937  0.00  0.00    +0.000 C 
ATOM     40  C   UNL     1     108.245 126.661 141.288  0.00  0.00    +0.000 C 
ATOM     41  C   UNL     1     109.320 125.778 140.961  0.00  0.00    +0.000 C 
ATOM     42  C   UNL     1     108.775 127.168 141.664  0.00  0.00    +0.000 C 
ATOM     43  C   UNL     1     109.850 126.285 141.337  0.00  0.00    +0.000 C 
BRANCH  42  45
ATOM     44  O   UNL     1     108.677 128.019 142.807  0.00  0.00    +0.000 OA
ATOM     45  C   UNL     1     108.503 127.863 142.015  0.00  0.00    +0.000 C 
ENDBRANCH  42  45
ENDBRANCH  34  43
ENDBRANCH   5  34
TORSDOF 7
ENDMDL
MODEL 9
REMARK VINA RESULT:     -10.1      1.601      3.387
REMARK  Name = 131838818
REMARK  7 active torsions:
REMARK  status: ('A' for Active; 'I' for Inactive)
REMARK    1  A    between atoms: O_3  and  C_23
REMARK    2  A    between atoms: O_3  and  C_31
REMARK    3  A    between atoms: O_7  and  C_28
REMARK    4  A    between atoms: O_7  and  C_32
REMARK    5  A    between atoms: C_22  and  C_29
REMARK    6  A    between atoms: C_27  and  C_30
REMARK    7  A    between atoms: C_38  and  C_41
REMARK                            x       y       z     vdW  Elec       q    Type
REMARK                         _______ _______ _______ _____ _____    ______ ____
ROOT
ATOM      1  O   UNL     1     111.681 129.377 138.396  0.00  0.00    +0.000 OA
ATOM      2  O   UNL     1     113.129 131.032 136.522  0.00  0.00    +0.000 OA
ATOM      3  O   UNL     1     113.439 128.291 137.689  0.00  0.00    +0.000 OA
ATOM      4  O   UNL     1     113.594 129.709 136.859  0.00  0.00    +0.000 OA
ATOM      5  C   UNL     1     111.245 131.442 137.662  0.00  0.00    +0.000 A 
ATOM      6  C   UNL     1     111.169 130.701 138.091  0.00  0.00    +0.000 A 
ATOM      7  C   UNL     1     111.909 131.557 137.129  0.00  0.00    +0.000 A 
ATOM      8  C   UNL     1     111.759 130.085 137.981  0.00  0.00    +0.000 A 
ATOM      9  C   UNL     1     112.397 130.196 137.469  0.00  0.00    +0.000 A 
ATOM     10  C   UNL     1     112.489 130.930 137.032  0.00  0.00    +0.000 A 
ATOM     11  C   UNL     1     112.242 128.778 138.298  0.00  0.00    +0.000 A 
ATOM     12  C   UNL     1     112.956 129.598 137.372  0.00  0.00    +0.000 A 
ATOM     13  C   UNL     1     112.879 128.889 137.786  0.00  0.00    +0.000 A 
ENDROOT
BRANCH  11  17
ATOM     14  O   UNL     1     111.930 125.944 139.959  0.00  0.00    +0.000 OA
ATOM     15  C   UNL     1     111.554 126.786 138.868  0.00  0.00    +0.000 A 
ATOM     16  C   UNL     1     111.632 127.495 138.453  0.00  0.00    +0.000 A 
ATOM     17  C   UNL     1     112.163 128.070 138.713  0.00  0.00    +0.000 A 
ATOM     18  C   UNL     1     112.008 126.652 139.544  0.00  0.00    +0.000 A 
ATOM     19  C   UNL     1     112.617 127.936 139.389  0.00  0.00    +0.000 A 
ATOM     20  C   UNL     1     112.540 127.227 139.804  0.00  0.00    +0.000 A 
BRANCH  15  21
ATOM     21  O   UNL     1     111.022 126.212 138.608  0.00  0.00    +0.000 OA
BRANCH  21  30
ATOM     22  O   UNL     1     111.801 125.509 137.638  0.00  0.00    +0.000 OA
ATOM     23  O   UNL     1     109.936 125.675 136.019  0.00  0.00    +0.000 OA
ATOM     24  O   UNL     1     111.337 124.917 135.589  0.00  0.00    +0.000 OA
ATOM     25  O   UNL     1     109.778 126.323 137.529  0.00  0.00    +0.000 OA
ATOM     26  C   UNL     1     110.557 125.620 136.559  0.00  0.00    +0.000 C 
ATOM     27  C   UNL     1     111.258 125.240 136.344  0.00  0.00    +0.000 C 
ATOM     28  C   UNL     1     110.479 125.944 137.314  0.00  0.00    +0.000 C 
ATOM     29  C   UNL     1     111.879 125.185 136.883  0.00  0.00    +0.000 C 
ATOM     30  C   UNL     1     111.100 125.888 137.853  0.00  0.00    +0.000 C 
BRANCH  29  33
ATOM     31  O   UNL     1     112.674 124.000 136.817  0.00  0.00    +0.000 OA
ATOM     32  O   UNL     1     113.184 125.231 136.302  0.00  0.00    +0.000 OA
ATOM     33  C   UNL     1     112.579 124.806 136.667  0.00  0.00    +0.000 C 
ENDBRANCH  29  33
ENDBRANCH  21  30
ENDBRANCH  15  21
ENDBRANCH  11  17
BRANCH   5  34
ATOM     34  O   UNL     1     110.684 132.038 137.761  0.00  0.00    +0.000 OA
BRANCH  34  43
ATOM     35  O   UNL     1     109.807 131.714 136.681  0.00  0.00    +0.000 OA
ATOM     36  O   UNL     1     107.854 132.093 138.153  0.00  0.00    +0.000 OA
ATOM     37  O   UNL     1     107.628 131.643 136.583  0.00  0.00    +0.000 OA
ATOM     38  O   UNL     1     109.382 132.291 138.743  0.00  0.00    +0.000 OA
ATOM     39  C   UNL     1     108.505 131.967 137.662  0.00  0.00    +0.000 C 
ATOM     40  C   UNL     1     108.393 131.742 136.877  0.00  0.00    +0.000 C 
ATOM     41  C   UNL     1     109.270 132.066 137.957  0.00  0.00    +0.000 C 
ATOM     42  C   UNL     1     109.043 131.615 136.387  0.00  0.00    +0.000 C 
ATOM     43  C   UNL     1     109.920 131.940 137.467  0.00  0.00    +0.000 C 
BRANCH  42  45
ATOM     44  O   UNL     1     109.264 131.837 134.992  0.00  0.00    +0.000 OA
ATOM     45  C   UNL     1     108.930 131.390 135.601  0.00  0.00    +0.000 C 
ENDBRANCH  42  45
ENDBRANCH  34  43
ENDBRANCH   5  34
TORSDOF 7
ENDMDL
MODEL 10
REMARK VINA RESULT:     -10.0      1.685      3.555
REMARK  Name = 131838818
REMARK  7 active torsions:
REMARK  status: ('A' for Active; 'I' for Inactive)
REMARK    1  A    between atoms: O_3  and  C_23
REMARK    2  A    between atoms: O_3  and  C_31
REMARK    3  A    between atoms: O_7  and  C_28
REMARK    4  A    between atoms: O_7  and  C_32
REMARK    5  A    between atoms: C_22  and  C_29
REMARK    6  A    between atoms: C_27  and  C_30
REMARK    7  A    between atoms: C_38  and  C_41
REMARK                            x       y       z     vdW  Elec       q    Type
REMARK                         _______ _______ _______ _____ _____    ______ ____
ROOT
ATOM      1  O   UNL     1     112.524 128.744 137.493  0.00  0.00    +0.000 OA
ATOM      2  O   UNL     1     113.788 130.945 136.112  0.00  0.00    +0.000 OA
ATOM      3  O   UNL     1     113.903 127.954 135.995  0.00  0.00    +0.000 OA
ATOM      4  O   UNL     1     114.101 129.578 135.776  0.00  0.00    +0.000 OA
ATOM      5  C   UNL     1     112.273 130.949 137.761  0.00  0.00    +0.000 A 
ATOM      6  C   UNL     1     112.173 130.102 137.871  0.00  0.00    +0.000 A 
ATOM      7  C   UNL     1     112.819 131.238 137.165  0.00  0.00    +0.000 A 
ATOM      8  C   UNL     1     112.624 129.556 137.383  0.00  0.00    +0.000 A 
ATOM      9  C   UNL     1     113.149 129.834 136.811  0.00  0.00    +0.000 A 
ATOM     10  C   UNL     1     113.261 130.676 136.687  0.00  0.00    +0.000 A 
ATOM     11  C   UNL     1     112.951 128.210 137.030  0.00  0.00    +0.000 A 
ATOM     12  C   UNL     1     113.575 129.300 136.348  0.00  0.00    +0.000 A 
ATOM     13  C   UNL     1     113.476 128.488 136.458  0.00  0.00    +0.000 A 
ENDROOT
BRANCH  11  17
ATOM     14  O   UNL     1     112.555 124.965 137.472  0.00  0.00    +0.000 OA
ATOM     15  C   UNL     1     112.165 126.183 136.837  0.00  0.00    +0.000 A 
ATOM     16  C   UNL     1     112.264 126.995 136.726  0.00  0.00    +0.000 A 
ATOM     17  C   UNL     1     112.852 127.399 137.140  0.00  0.00    +0.000 A 
ATOM     18  C   UNL     1     112.654 125.776 137.362  0.00  0.00    +0.000 A 
ATOM     19  C   UNL     1     113.341 126.992 137.665  0.00  0.00    +0.000 A 
ATOM     20  C   UNL     1     113.242 126.180 137.776  0.00  0.00    +0.000 A 
BRANCH  15  21
ATOM     21  O   UNL     1     111.577 125.779 136.423  0.00  0.00    +0.000 OA
BRANCH  21  30
ATOM     22  O   UNL     1     110.446 126.283 137.135  0.00  0.00    +0.000 OA
ATOM     23  O   UNL     1     109.188 126.465 135.011  0.00  0.00    +0.000 OA
ATOM     24  O   UNL     1     108.476 126.908 136.432  0.00  0.00    +0.000 OA
ATOM     25  O   UNL     1     110.739 125.900 135.006  0.00  0.00    +0.000 OA
ATOM     26  C   UNL     1     109.608 126.404 135.719  0.00  0.00    +0.000 C 
ATOM     27  C   UNL     1     109.252 126.626 136.430  0.00  0.00    +0.000 C 
ATOM     28  C   UNL     1     110.383 126.122 135.717  0.00  0.00    +0.000 C 
ATOM     29  C   UNL     1     109.671 126.565 137.138  0.00  0.00    +0.000 C 
ATOM     30  C   UNL     1     110.802 126.061 136.425  0.00  0.00    +0.000 C 
BRANCH  29  33
ATOM     31  O   UNL     1     108.953 126.217 138.322  0.00  0.00    +0.000 OA
ATOM     32  O   UNL     1     109.318 127.578 138.083  0.00  0.00    +0.000 OA
ATOM     33  C   UNL     1     109.314 126.787 137.848  0.00  0.00    +0.000 C 
ENDBRANCH  29  33
ENDBRANCH  21  30
ENDBRANCH  15  21
ENDBRANCH  11  17
BRANCH   5  34
ATOM     34  O   UNL     1     111.845 131.480 138.225  0.00  0.00    +0.000 OA
BRANCH  34  43
ATOM     35  O   UNL     1     110.829 131.844 137.288  0.00  0.00    +0.000 OA
ATOM     36  O   UNL     1     109.121 131.666 139.070  0.00  0.00    +0.000 OA
ATOM     37  O   UNL     1     108.675 132.089 137.540  0.00  0.00    +0.000 OA
ATOM     38  O   UNL     1     110.706 131.361 139.413  0.00  0.00    +0.000 OA
ATOM     39  C   UNL     1     109.690 131.725 138.476  0.00  0.00    +0.000 C 
ATOM     40  C   UNL     1     109.468 131.937 137.711  0.00  0.00    +0.000 C 
ATOM     41  C   UNL     1     110.484 131.573 138.648  0.00  0.00    +0.000 C 
ATOM     42  C   UNL     1     110.037 131.996 137.117  0.00  0.00    +0.000 C 
ATOM     43  C   UNL     1     111.052 131.632 138.054  0.00  0.00    +0.000 C 
BRANCH  42  45
ATOM     44  O   UNL     1     110.076 132.921 136.029  0.00  0.00    +0.000 OA
ATOM     45  C   UNL     1     109.814 132.208 136.352  0.00  0.00    +0.000 C 
ENDBRANCH  42  45
ENDBRANCH  34  43
ENDBRANCH   5  34
TORSDOF 7
ENDMDL
