MODEL 1
REMARK VINA RESULT:      -8.5      0.000      0.000
REMARK  Name = 369597
REMARK  2 active torsions:
REMARK  status: ('A' for Active; 'I' for Inactive)
REMARK    1  A    between atoms: O_4  and  C_14
REMARK    2  A    between atoms: C_5  and  C_10
REMARK                            x       y       z     vdW  Elec       q    Type
REMARK                         _______ _______ _______ _____ _____    ______ ____
ROOT
ATOM      1  O   UNL     1     105.063 124.359 147.463  0.00  0.00    +0.000 OA
ATOM      2  O   UNL     1     106.279 125.349 145.476  0.00  0.00    +0.000 OA
ATOM      3  O   UNL     1     107.455 125.497 146.297  0.00  0.00    +0.000 OA
ATOM      4  C   UNL     1     104.649 124.442 146.715  0.00  0.00    +0.000 C 
ATOM      5  C   UNL     1     105.059 124.777 146.039  0.00  0.00    +0.000 C 
ATOM      6  C   UNL     1     106.276 124.935 146.876  0.00  0.00    +0.000 A 
ATOM      7  C   UNL     1     105.882 124.613 147.526  0.00  0.00    +0.000 A 
ATOM      8  C   UNL     1     105.877 125.025 146.120  0.00  0.00    +0.000 C 
ATOM      9  C   UNL     1     107.062 125.175 146.947  0.00  0.00    +0.000 A 
ATOM     10  C   UNL     1     107.454 125.093 147.669  0.00  0.00    +0.000 A 
ATOM     11  C   UNL     1     106.274 124.531 148.246  0.00  0.00    +0.000 A 
ATOM     12  C   UNL     1     107.060 124.771 148.318  0.00  0.00    +0.000 A 
ATOM     13  C   UNL     1     108.240 125.333 147.740  0.00  0.00    +0.000 C 
ENDROOT
BRANCH   4  14
ATOM     14  C   UNL     1     103.863 124.201 146.646  0.00  0.00    +0.000 A 
ATOM     15  C   UNL     1     103.680 123.501 146.249  0.00  0.00    +0.000 A 
ATOM     16  C   UNL     1     103.261 124.659 146.975  0.00  0.00    +0.000 A 
ATOM     17  C   UNL     1     102.894 123.260 146.181  0.00  0.00    +0.000 A 
ATOM     18  C   UNL     1     102.475 124.417 146.906  0.00  0.00    +0.000 A 
ATOM     19  C   UNL     1     102.291 123.718 146.508  0.00  0.00    +0.000 A 
ENDBRANCH   4  14
BRANCH  12  20
ATOM     20  O   UNL     1     107.453 124.689 149.039  0.00  0.00    +0.000 OA
ATOM     21  C   UNL     1     107.159 124.174 149.612  0.00  0.00    +0.000 C 
ENDBRANCH  12  20
TORSDOF 2
ENDMDL
MODEL 2
REMARK VINA RESULT:      -8.5      1.189      4.215
REMARK  Name = 369597
REMARK  2 active torsions:
REMARK  status: ('A' for Active; 'I' for Inactive)
REMARK    1  A    between atoms: O_4  and  C_14
REMARK    2  A    between atoms: C_5  and  C_10
REMARK                            x       y       z     vdW  Elec       q    Type
REMARK                         _______ _______ _______ _____ _____    ______ ____
ROOT
ATOM      1  O   UNL     1     105.440 124.308 147.264  0.00  0.00    +0.000 OA
ATOM      2  O   UNL     1     103.779 125.483 148.772  0.00  0.00    +0.000 OA
ATOM      3  O   UNL     1     102.712 125.021 147.919  0.00  0.00    +0.000 OA
ATOM      4  C   UNL     1     105.725 124.738 147.951  0.00  0.00    +0.000 C 
ATOM      5  C   UNL     1     105.165 125.137 148.464  0.00  0.00    +0.000 C 
ATOM      6  C   UNL     1     104.058 124.667 147.593  0.00  0.00    +0.000 A 
ATOM      7  C   UNL     1     104.596 124.284 147.099  0.00  0.00    +0.000 A 
ATOM      8  C   UNL     1     104.325 125.102 148.284  0.00  0.00    +0.000 C 
ATOM      9  C   UNL     1     103.251 124.637 147.425  0.00  0.00    +0.000 A 
ATOM     10  C   UNL     1     102.982 124.222 146.764  0.00  0.00    +0.000 A 
ATOM     11  C   UNL     1     104.328 123.870 146.439  0.00  0.00    +0.000 A 
ATOM     12  C   UNL     1     103.521 123.839 146.271  0.00  0.00    +0.000 A 
ATOM     13  C   UNL     1     102.175 124.192 146.597  0.00  0.00    +0.000 C 
ENDROOT
BRANCH   4  14
ATOM     14  C   UNL     1     106.533 124.767 148.116  0.00  0.00    +0.000 A 
ATOM     15  C   UNL     1     107.045 125.162 147.604  0.00  0.00    +0.000 A 
ATOM     16  C   UNL     1     106.829 124.400 148.794  0.00  0.00    +0.000 A 
ATOM     17  C   UNL     1     107.853 125.191 147.770  0.00  0.00    +0.000 A 
ATOM     18  C   UNL     1     107.637 124.430 148.958  0.00  0.00    +0.000 A 
ATOM     19  C   UNL     1     108.149 124.825 148.446  0.00  0.00    +0.000 A 
ENDBRANCH   4  14
BRANCH  12  20
ATOM     20  O   UNL     1     103.252 123.425 145.610  0.00  0.00    +0.000 OA
ATOM     21  C   UNL     1     103.715 122.826 145.283  0.00  0.00    +0.000 C 
ENDBRANCH  12  20
TORSDOF 2
ENDMDL
MODEL 3
REMARK VINA RESULT:      -8.5      7.327      8.319
REMARK  Name = 369597
REMARK  2 active torsions:
REMARK  status: ('A' for Active; 'I' for Inactive)
REMARK    1  A    between atoms: O_4  and  C_14
REMARK    2  A    between atoms: C_5  and  C_10
REMARK                            x       y       z     vdW  Elec       q    Type
REMARK                         _______ _______ _______ _____ _____    ______ ____
ROOT
ATOM      1  O   UNL     1     102.931 130.520 142.254  0.00  0.00    +0.000 OA
ATOM      2  O   UNL     1     102.834 129.278 140.050  0.00  0.00    +0.000 OA
ATOM      3  O   UNL     1     103.810 128.345 140.558  0.00  0.00    +0.000 OA
ATOM      4  C   UNL     1     102.409 130.803 141.633  0.00  0.00    +0.000 C 
ATOM      5  C   UNL     1     102.374 130.384 140.884  0.00  0.00    +0.000 C 
ATOM      6  C   UNL     1     103.378 129.418 141.398  0.00  0.00    +0.000 A 
ATOM      7  C   UNL     1     103.412 129.820 142.117  0.00  0.00    +0.000 A 
ATOM      8  C   UNL     1     102.861 129.687 140.766  0.00  0.00    +0.000 C 
ATOM      9  C   UNL     1     103.844 128.748 141.277  0.00  0.00    +0.000 A 
ATOM     10  C   UNL     1     104.344 128.480 141.877  0.00  0.00    +0.000 A 
ATOM     11  C   UNL     1     103.911 129.553 142.716  0.00  0.00    +0.000 A 
ATOM     12  C   UNL     1     104.378 128.883 142.597  0.00  0.00    +0.000 A 
ATOM     13  C   UNL     1     104.809 127.810 141.757  0.00  0.00    +0.000 C 
ENDROOT
BRANCH   4  14
ATOM     14  C   UNL     1     101.944 131.474 141.756  0.00  0.00    +0.000 A 
ATOM     15  C   UNL     1     101.175 131.395 142.044  0.00  0.00    +0.000 A 
ATOM     16  C   UNL     1     102.249 132.223 141.591  0.00  0.00    +0.000 A 
ATOM     17  C   UNL     1     100.710 132.066 142.166  0.00  0.00    +0.000 A 
ATOM     18  C   UNL     1     101.783 132.893 141.713  0.00  0.00    +0.000 A 
ATOM     19  C   UNL     1     101.014 132.815 142.001  0.00  0.00    +0.000 A 
ENDBRANCH   4  14
BRANCH  12  20
ATOM     20  O   UNL     1     104.877 128.615 143.196  0.00  0.00    +0.000 OA
ATOM     21  C   UNL     1     104.922 129.026 143.909  0.00  0.00    +0.000 C 
ENDBRANCH  12  20
TORSDOF 2
ENDMDL
MODEL 4
REMARK VINA RESULT:      -8.2     12.109     12.874
REMARK  Name = 369597
REMARK  2 active torsions:
REMARK  status: ('A' for Active; 'I' for Inactive)
REMARK    1  A    between atoms: O_4  and  C_14
REMARK    2  A    between atoms: C_5  and  C_10
REMARK                            x       y       z     vdW  Elec       q    Type
REMARK                         _______ _______ _______ _____ _____    ______ ____
ROOT
ATOM      1  O   UNL     1     111.911 125.875 136.017  0.00  0.00    +0.000 OA
ATOM      2  O   UNL     1     111.950 123.499 136.892  0.00  0.00    +0.000 OA
ATOM      3  O   UNL     1     113.354 123.652 137.182  0.00  0.00    +0.000 OA
ATOM      4  C   UNL     1     111.189 125.411 136.008  0.00  0.00    +0.000 C 
ATOM      5  C   UNL     1     111.198 124.605 136.304  0.00  0.00    +0.000 C 
ATOM      6  C   UNL     1     112.645 124.752 136.607  0.00  0.00    +0.000 A 
ATOM      7  C   UNL     1     112.635 125.526 136.323  0.00  0.00    +0.000 A 
ATOM      8  C   UNL     1     111.931 124.273 136.605  0.00  0.00    +0.000 C 
ATOM      9  C   UNL     1     113.345 124.427 136.898  0.00  0.00    +0.000 A 
ATOM     10  C   UNL     1     114.037 124.878 136.904  0.00  0.00    +0.000 A 
ATOM     11  C   UNL     1     113.326 125.976 136.330  0.00  0.00    +0.000 A 
ATOM     12  C   UNL     1     114.027 125.652 136.620  0.00  0.00    +0.000 A 
ATOM     13  C   UNL     1     114.737 124.553 137.195  0.00  0.00    +0.000 C 
ENDROOT
BRANCH   4  14
ATOM     14  C   UNL     1     110.489 125.738 135.717  0.00  0.00    +0.000 A 
ATOM     15  C   UNL     1     110.270 125.611 134.932  0.00  0.00    +0.000 A 
ATOM     16  C   UNL     1     110.009 126.192 136.211  0.00  0.00    +0.000 A 
ATOM     17  C   UNL     1     109.571 125.938 134.640  0.00  0.00    +0.000 A 
ATOM     18  C   UNL     1     109.309 126.519 135.918  0.00  0.00    +0.000 A 
ATOM     19  C   UNL     1     109.091 126.392 135.133  0.00  0.00    +0.000 A 
ENDBRANCH   4  14
BRANCH  12  20
ATOM     20  O   UNL     1     114.718 126.102 136.627  0.00  0.00    +0.000 OA
ATOM     21  C   UNL     1     114.760 126.801 136.191  0.00  0.00    +0.000 C 
ENDBRANCH  12  20
TORSDOF 2
ENDMDL
MODEL 5
REMARK VINA RESULT:      -7.9      1.979      3.813
REMARK  Name = 369597
REMARK  2 active torsions:
REMARK  status: ('A' for Active; 'I' for Inactive)
REMARK    1  A    between atoms: O_4  and  C_14
REMARK    2  A    between atoms: C_5  and  C_10
REMARK                            x       y       z     vdW  Elec       q    Type
REMARK                         _______ _______ _______ _____ _____    ______ ____
ROOT
ATOM      1  O   UNL     1     106.538 124.933 146.823  0.00  0.00    +0.000 OA
ATOM      2  O   UNL     1     107.355 127.290 146.385  0.00  0.00    +0.000 OA
ATOM      3  O   UNL     1     106.776 127.221 145.066  0.00  0.00    +0.000 OA
ATOM      4  C   UNL     1     106.970 125.350 147.437  0.00  0.00    +0.000 C 
ATOM      5  C   UNL     1     107.249 126.150 147.292  0.00  0.00    +0.000 C 
ATOM      6  C   UNL     1     106.657 126.090 145.931  0.00  0.00    +0.000 A 
ATOM      7  C   UNL     1     106.389 125.322 146.070  0.00  0.00    +0.000 A 
ATOM      8  C   UNL     1     107.091 126.522 146.534  0.00  0.00    +0.000 C 
ATOM      9  C   UNL     1     106.509 126.453 145.205  0.00  0.00    +0.000 A 
ATOM     10  C   UNL     1     106.093 126.048 144.619  0.00  0.00    +0.000 A 
ATOM     11  C   UNL     1     105.974 124.918 145.485  0.00  0.00    +0.000 A 
ATOM     12  C   UNL     1     105.825 125.280 144.758  0.00  0.00    +0.000 A 
ATOM     13  C   UNL     1     105.944 126.411 143.893  0.00  0.00    +0.000 C 
ENDROOT
BRANCH   4  14
ATOM     14  C   UNL     1     107.117 124.985 148.162  0.00  0.00    +0.000 A 
ATOM     15  C   UNL     1     107.891 124.801 148.382  0.00  0.00    +0.000 A 
ATOM     16  C   UNL     1     106.491 124.803 148.667  0.00  0.00    +0.000 A 
ATOM     17  C   UNL     1     108.038 124.436 149.107  0.00  0.00    +0.000 A 
ATOM     18  C   UNL     1     106.639 124.438 149.392  0.00  0.00    +0.000 A 
ATOM     19  C   UNL     1     107.412 124.254 149.612  0.00  0.00    +0.000 A 
ENDBRANCH   4  14
BRANCH  12  20
ATOM     20  O   UNL     1     105.410 124.876 144.172  0.00  0.00    +0.000 OA
ATOM     21  C   UNL     1     105.228 124.077 144.272  0.00  0.00    +0.000 C 
ENDBRANCH  12  20
TORSDOF 2
ENDMDL
MODEL 6
REMARK VINA RESULT:      -7.9     12.610     13.744
REMARK  Name = 369597
REMARK  2 active torsions:
REMARK  status: ('A' for Active; 'I' for Inactive)
REMARK    1  A    between atoms: O_4  and  C_14
REMARK    2  A    between atoms: C_5  and  C_10
REMARK                            x       y       z     vdW  Elec       q    Type
REMARK                         _______ _______ _______ _____ _____    ______ ____
ROOT
ATOM      1  O   UNL     1     112.641 127.130 136.121  0.00  0.00    +0.000 OA
ATOM      2  O   UNL     1     114.279 125.503 137.161  0.00  0.00    +0.000 OA
ATOM      3  O   UNL     1     113.314 124.447 136.975  0.00  0.00    +0.000 OA
ATOM      4  C   UNL     1     113.407 127.415 136.386  0.00  0.00    +0.000 C 
ATOM      5  C   UNL     1     113.965 126.865 136.739  0.00  0.00    +0.000 C 
ATOM      6  C   UNL     1     112.979 125.770 136.552  0.00  0.00    +0.000 A 
ATOM      7  C   UNL     1     112.443 126.298 136.213  0.00  0.00    +0.000 A 
ATOM      8  C   UNL     1     113.750 126.038 136.823  0.00  0.00    +0.000 C 
ATOM      9  C   UNL     1     112.778 124.975 136.636  0.00  0.00    +0.000 A 
ATOM     10  C   UNL     1     112.041 124.707 136.379  0.00  0.00    +0.000 A 
ATOM     11  C   UNL     1     111.707 126.030 135.957  0.00  0.00    +0.000 A 
ATOM     12  C   UNL     1     111.505 125.234 136.039  0.00  0.00    +0.000 A 
ATOM     13  C   UNL     1     111.840 123.911 136.462  0.00  0.00    +0.000 C 
ENDROOT
BRANCH   4  14
ATOM     14  C   UNL     1     113.605 128.211 136.302  0.00  0.00    +0.000 A 
ATOM     15  C   UNL     1     114.035 128.461 135.643  0.00  0.00    +0.000 A 
ATOM     16  C   UNL     1     113.375 128.757 136.876  0.00  0.00    +0.000 A 
ATOM     17  C   UNL     1     114.233 129.258 135.559  0.00  0.00    +0.000 A 
ATOM     18  C   UNL     1     113.574 129.553 136.791  0.00  0.00    +0.000 A 
ATOM     19  C   UNL     1     114.003 129.804 136.132  0.00  0.00    +0.000 A 
ENDBRANCH   4  14
BRANCH  12  20
ATOM     20  O   UNL     1     110.769 124.966 135.783  0.00  0.00    +0.000 OA
ATOM     21  C   UNL     1     110.282 125.461 135.337  0.00  0.00    +0.000 C 
ENDBRANCH  12  20
TORSDOF 2
ENDMDL
MODEL 7
REMARK VINA RESULT:      -7.8     12.434     13.818
REMARK  Name = 369597
REMARK  2 active torsions:
REMARK  status: ('A' for Active; 'I' for Inactive)
REMARK    1  A    between atoms: O_4  and  C_14
REMARK    2  A    between atoms: C_5  and  C_10
REMARK                            x       y       z     vdW  Elec       q    Type
REMARK                         _______ _______ _______ _____ _____    ______ ____
ROOT
ATOM      1  O   UNL     1     113.766 127.170 136.358  0.00  0.00    +0.000 OA
ATOM      2  O   UNL     1     112.392 128.247 138.191  0.00  0.00    +0.000 OA
ATOM      3  O   UNL     1     112.602 129.529 137.564  0.00  0.00    +0.000 OA
ATOM      4  C   UNL     1     113.435 126.679 136.980  0.00  0.00    +0.000 C 
ATOM      5  C   UNL     1     112.968 127.041 137.603  0.00  0.00    +0.000 C 
ATOM      6  C   UNL     1     113.178 128.366 136.966  0.00  0.00    +0.000 A 
ATOM      7  C   UNL     1     113.626 128.018 136.367  0.00  0.00    +0.000 A 
ATOM      8  C   UNL     1     112.839 127.890 137.596  0.00  0.00    +0.000 C 
ATOM      9  C   UNL     1     113.050 129.181 136.965  0.00  0.00    +0.000 A 
ATOM     10  C   UNL     1     113.371 129.648 136.365  0.00  0.00    +0.000 A 
ATOM     11  C   UNL     1     113.947 128.485 135.768  0.00  0.00    +0.000 A 
ATOM     12  C   UNL     1     113.820 129.300 135.766  0.00  0.00    +0.000 A 
ATOM     13  C   UNL     1     113.243 130.463 136.364  0.00  0.00    +0.000 C 
ENDROOT
BRANCH   4  14
ATOM     14  C   UNL     1     113.564 125.864 136.978  0.00  0.00    +0.000 A 
ATOM     15  C   UNL     1     114.243 125.553 137.330  0.00  0.00    +0.000 A 
ATOM     16  C   UNL     1     113.015 125.360 136.625  0.00  0.00    +0.000 A 
ATOM     17  C   UNL     1     114.372 124.739 137.328  0.00  0.00    +0.000 A 
ATOM     18  C   UNL     1     113.145 124.544 136.625  0.00  0.00    +0.000 A 
ATOM     19  C   UNL     1     113.824 124.234 136.976  0.00  0.00    +0.000 A 
ENDBRANCH   4  14
BRANCH  12  20
ATOM     20  O   UNL     1     114.140 129.767 135.167  0.00  0.00    +0.000 OA
ATOM     21  C   UNL     1     114.650 129.432 134.612  0.00  0.00    +0.000 C 
ENDBRANCH  12  20
TORSDOF 2
ENDMDL
MODEL 8
REMARK VINA RESULT:      -7.8      1.595      4.254
REMARK  Name = 369597
REMARK  2 active torsions:
REMARK  status: ('A' for Active; 'I' for Inactive)
REMARK    1  A    between atoms: O_4  and  C_14
REMARK    2  A    between atoms: C_5  and  C_10
REMARK                            x       y       z     vdW  Elec       q    Type
REMARK                         _______ _______ _______ _____ _____    ______ ____
ROOT
ATOM      1  O   UNL     1     103.946 124.664 147.784  0.00  0.00    +0.000 OA
ATOM      2  O   UNL     1     103.984 123.829 145.394  0.00  0.00    +0.000 OA
ATOM      3  O   UNL     1     102.560 123.614 145.470  0.00  0.00    +0.000 OA
ATOM      4  C   UNL     1     104.692 124.641 147.357  0.00  0.00    +0.000 C 
ATOM      5  C   UNL     1     104.708 124.358 146.547  0.00  0.00    +0.000 C 
ATOM      6  C   UNL     1     103.241 124.133 146.614  0.00  0.00    +0.000 A 
ATOM      7  C   UNL     1     103.226 124.404 147.393  0.00  0.00    +0.000 A 
ATOM      8  C   UNL     1     103.978 124.102 146.172  0.00  0.00    +0.000 C 
ATOM      9  C   UNL     1     102.544 123.886 146.249  0.00  0.00    +0.000 A 
ATOM     10  C   UNL     1     101.831 123.910 146.664  0.00  0.00    +0.000 A 
ATOM     11  C   UNL     1     102.513 124.429 147.807  0.00  0.00    +0.000 A 
ATOM     12  C   UNL     1     101.815 124.182 147.443  0.00  0.00    +0.000 A 
ATOM     13  C   UNL     1     101.133 123.663 146.299  0.00  0.00    +0.000 C 
ENDROOT
BRANCH   4  14
ATOM     14  C   UNL     1     105.388 124.889 147.725  0.00  0.00    +0.000 A 
ATOM     15  C   UNL     1     105.866 124.341 148.114  0.00  0.00    +0.000 A 
ATOM     16  C   UNL     1     105.605 125.684 147.702  0.00  0.00    +0.000 A 
ATOM     17  C   UNL     1     106.562 124.588 148.481  0.00  0.00    +0.000 A 
ATOM     18  C   UNL     1     106.302 125.931 148.070  0.00  0.00    +0.000 A 
ATOM     19  C   UNL     1     106.780 125.383 148.459  0.00  0.00    +0.000 A 
ENDBRANCH   4  14
BRANCH  12  20
ATOM     20  O   UNL     1     101.103 124.206 147.856  0.00  0.00    +0.000 OA
ATOM     21  C   UNL     1     101.093 124.438 148.648  0.00  0.00    +0.000 C 
ENDBRANCH  12  20
TORSDOF 2
ENDMDL
MODEL 9
REMARK VINA RESULT:      -7.8     12.595     13.956
REMARK  Name = 369597
REMARK  2 active torsions:
REMARK  status: ('A' for Active; 'I' for Inactive)
REMARK    1  A    between atoms: O_4  and  C_14
REMARK    2  A    between atoms: C_5  and  C_10
REMARK                            x       y       z     vdW  Elec       q    Type
REMARK                         _______ _______ _______ _____ _____    ______ ____
ROOT
ATOM      1  O   UNL     1     113.859 127.364 136.418  0.00  0.00    +0.000 OA
ATOM      2  O   UNL     1     111.406 127.099 135.847  0.00  0.00    +0.000 OA
ATOM      3  O   UNL     1     111.490 125.711 136.229  0.00  0.00    +0.000 OA
ATOM      4  C   UNL     1     113.419 128.042 136.127  0.00  0.00    +0.000 C 
ATOM      5  C   UNL     1     112.587 127.955 135.932  0.00  0.00    +0.000 C 
ATOM      6  C   UNL     1     112.661 126.524 136.323  0.00  0.00    +0.000 A 
ATOM      7  C   UNL     1     113.461 126.607 136.510  0.00  0.00    +0.000 A 
ATOM      8  C   UNL     1     112.205 127.192 136.031  0.00  0.00    +0.000 C 
ATOM      9  C   UNL     1     112.289 125.794 136.416  0.00  0.00    +0.000 A 
ATOM     10  C   UNL     1     112.718 125.146 136.696  0.00  0.00    +0.000 A 
ATOM     11  C   UNL     1     113.888 125.960 136.790  0.00  0.00    +0.000 A 
ATOM     12  C   UNL     1     113.517 125.229 136.883  0.00  0.00    +0.000 A 
ATOM     13  C   UNL     1     112.346 124.416 136.788  0.00  0.00    +0.000 C 
ENDROOT
BRANCH   4  14
ATOM     14  C   UNL     1     113.793 128.771 136.035  0.00  0.00    +0.000 A 
ATOM     15  C   UNL     1     114.248 128.920 135.363  0.00  0.00    +0.000 A 
ATOM     16  C   UNL     1     113.712 129.352 136.615  0.00  0.00    +0.000 A 
ATOM     17  C   UNL     1     114.622 129.649 135.271  0.00  0.00    +0.000 A 
ATOM     18  C   UNL     1     114.086 130.082 136.523  0.00  0.00    +0.000 A 
ATOM     19  C   UNL     1     114.541 130.230 135.851  0.00  0.00    +0.000 A 
ENDBRANCH   4  14
BRANCH  12  20
ATOM     20  O   UNL     1     113.944 124.582 137.162  0.00  0.00    +0.000 OA
ATOM     21  C   UNL     1     114.733 124.673 137.385  0.00  0.00    +0.000 C 
ENDBRANCH  12  20
TORSDOF 2
ENDMDL
