MODEL 1
REMARK VINA RESULT:      -9.1      0.000      0.000
REMARK  Name = 44259557
REMARK  5 active torsions:
REMARK  status: ('A' for Active; 'I' for Inactive)
REMARK    1  A    between atoms: O_2  and  C_16
REMARK    2  A    between atoms: O_2  and  C_19
REMARK    3  A    between atoms: O_11  and  C_27
REMARK    4  A    between atoms: C_17  and  C_18
REMARK    5  A    between atoms: C_20  and  C_24
REMARK                            x       y       z     vdW  Elec       q    Type
REMARK                         _______ _______ _______ _____ _____    ______ ____
ROOT
ATOM      1  O   UNL     1     112.915 126.038 138.587  0.00  0.00    +0.000 OA
ATOM      2  O   UNL     1     110.612 125.690 137.747  0.00  0.00    +0.000 OA
ATOM      3  O   UNL     1     110.057 126.137 139.001  0.00  0.00    +0.000 OA
ATOM      4  C   UNL     1     112.025 125.641 137.541  0.00  0.00    +0.000 A 
ATOM      5  C   UNL     1     112.793 125.756 137.821  0.00  0.00    +0.000 A 
ATOM      6  C   UNL     1     111.380 125.806 138.027  0.00  0.00    +0.000 A 
ATOM      7  C   UNL     1     111.502 126.087 138.793  0.00  0.00    +0.000 A 
ATOM      8  C   UNL     1     112.269 126.203 139.073  0.00  0.00    +0.000 A 
ATOM      9  C   UNL     1     110.821 126.256 139.290  0.00  0.00    +0.000 A 
ATOM     10  C   UNL     1     112.410 126.496 139.869  0.00  0.00    +0.000 A 
ATOM     11  C   UNL     1     111.741 126.670 140.380  0.00  0.00    +0.000 A 
ATOM     12  C   UNL     1     110.942 126.549 140.088  0.00  0.00    +0.000 A 
ENDROOT
BRANCH   5  14
ATOM     13  O   UNL     1     115.375 125.096 135.874  0.00  0.00    +0.000 OA
ATOM     14  C   UNL     1     113.439 125.591 137.334  0.00  0.00    +0.000 A 
ATOM     15  C   UNL     1     113.654 124.808 137.185  0.00  0.00    +0.000 A 
ATOM     16  C   UNL     1     113.869 126.209 136.996  0.00  0.00    +0.000 A 
ATOM     17  C   UNL     1     114.299 124.644 136.699  0.00  0.00    +0.000 A 
ATOM     18  C   UNL     1     114.514 126.043 136.510  0.00  0.00    +0.000 A 
ATOM     19  C   UNL     1     114.729 125.261 136.361  0.00  0.00    +0.000 A 
ENDBRANCH   5  14
BRANCH  11  20
ATOM     20  O   UNL     1     111.866 126.951 141.145  0.00  0.00    +0.000 OA
ATOM     21  C   UNL     1     111.947 127.761 141.279  0.00  0.00    +0.000 C 
ENDBRANCH  11  20
BRANCH   4  22
ATOM     22  O   UNL     1     111.904 125.359 136.775  0.00  0.00    +0.000 OA
BRANCH  22  30
ATOM     23  O   UNL     1     111.541 126.630 136.230  0.00  0.00    +0.000 OA
ATOM     24  O   UNL     1     110.028 125.510 134.623  0.00  0.00    +0.000 OA
ATOM     25  O   UNL     1     110.895 124.613 135.703  0.00  0.00    +0.000 OA
ATOM     26  O   UNL     1     110.170 127.153 134.615  0.00  0.00    +0.000 OA
ATOM     27  C   UNL     1     110.532 125.883 135.159  0.00  0.00    +0.000 C 
ATOM     28  C   UNL     1     110.966 125.434 135.700  0.00  0.00    +0.000 C 
ATOM     29  C   UNL     1     110.604 126.705 135.155  0.00  0.00    +0.000 C 
ATOM     30  C   UNL     1     111.471 125.808 136.235  0.00  0.00    +0.000 C 
ATOM     31  C   UNL     1     111.108 127.078 135.691  0.00  0.00    +0.000 C 
BRANCH  31  34
ATOM     32  O   UNL     1     111.789 128.260 135.262  0.00  0.00    +0.000 OA
ATOM     33  O   UNL     1     110.640 128.362 136.106  0.00  0.00    +0.000 OA
ATOM     34  C   UNL     1     111.179 127.900 135.686  0.00  0.00    +0.000 C 
ENDBRANCH  31  34
ENDBRANCH  22  30
ENDBRANCH   4  22
TORSDOF 5
ENDMDL
MODEL 2
REMARK VINA RESULT:      -9.1      2.043      4.312
REMARK  Name = 44259557
REMARK  5 active torsions:
REMARK  status: ('A' for Active; 'I' for Inactive)
REMARK    1  A    between atoms: O_2  and  C_16
REMARK    2  A    between atoms: O_2  and  C_19
REMARK    3  A    between atoms: O_11  and  C_27
REMARK    4  A    between atoms: C_17  and  C_18
REMARK    5  A    between atoms: C_20  and  C_24
REMARK                            x       y       z     vdW  Elec       q    Type
REMARK                         _______ _______ _______ _____ _____    ______ ____
ROOT
ATOM      1  O   UNL     1     113.599 127.332 136.727  0.00  0.00    +0.000 OA
ATOM      2  O   UNL     1     112.115 128.174 138.521  0.00  0.00    +0.000 OA
ATOM      3  O   UNL     1     112.237 129.525 138.027  0.00  0.00    +0.000 OA
ATOM      4  C   UNL     1     112.787 127.089 137.879  0.00  0.00    +0.000 A 
ATOM      5  C   UNL     1     113.283 126.808 137.281  0.00  0.00    +0.000 A 
ATOM      6  C   UNL     1     112.610 127.894 137.923  0.00  0.00    +0.000 A 
ATOM      7  C   UNL     1     112.926 128.417 137.369  0.00  0.00    +0.000 A 
ATOM      8  C   UNL     1     113.420 128.136 136.772  0.00  0.00    +0.000 A 
ATOM      9  C   UNL     1     112.733 129.253 137.426  0.00  0.00    +0.000 A 
ATOM     10  C   UNL     1     113.757 128.671 136.189  0.00  0.00    +0.000 A 
ATOM     11  C   UNL     1     113.574 129.510 136.229  0.00  0.00    +0.000 A 
ATOM     12  C   UNL     1     113.059 129.802 136.852  0.00  0.00    +0.000 A 
ENDROOT
BRANCH   5  14
ATOM     13  O   UNL     1     113.992 123.590 137.106  0.00  0.00    +0.000 OA
ATOM     14  C   UNL     1     113.460 126.004 137.238  0.00  0.00    +0.000 A 
ATOM     15  C   UNL     1     114.207 125.733 137.462  0.00  0.00    +0.000 A 
ATOM     16  C   UNL     1     112.891 125.470 136.969  0.00  0.00    +0.000 A 
ATOM     17  C   UNL     1     114.383 124.929 137.418  0.00  0.00    +0.000 A 
ATOM     18  C   UNL     1     113.069 124.666 136.926  0.00  0.00    +0.000 A 
ATOM     19  C   UNL     1     113.815 124.395 137.150  0.00  0.00    +0.000 A 
ENDBRANCH   5  14
BRANCH  11  20
ATOM     20  O   UNL     1     113.892 130.031 135.674  0.00  0.00    +0.000 OA
ATOM     21  C   UNL     1     114.620 130.392 135.817  0.00  0.00    +0.000 C 
ENDBRANCH  11  20
BRANCH   4  22
ATOM     22  O   UNL     1     112.471 126.566 138.433  0.00  0.00    +0.000 OA
BRANCH  22  30
ATOM     23  O   UNL     1     113.351 126.974 139.482  0.00  0.00    +0.000 OA
ATOM     24  O   UNL     1     111.622 126.398 141.157  0.00  0.00    +0.000 OA
ATOM     25  O   UNL     1     111.318 126.182 139.549  0.00  0.00    +0.000 OA
ATOM     26  O   UNL     1     113.078 126.998 141.647  0.00  0.00    +0.000 OA
ATOM     27  C   UNL     1     112.198 126.590 140.598  0.00  0.00    +0.000 C 
ATOM     28  C   UNL     1     112.047 126.482 139.794  0.00  0.00    +0.000 C 
ATOM     29  C   UNL     1     112.927 126.890 140.843  0.00  0.00    +0.000 C 
ATOM     30  C   UNL     1     112.623 126.674 139.236  0.00  0.00    +0.000 C 
ATOM     31  C   UNL     1     113.503 127.082 140.285  0.00  0.00    +0.000 C 
BRANCH  31  34
ATOM     32  O   UNL     1     114.316 128.190 140.678  0.00  0.00    +0.000 OA
ATOM     33  O   UNL     1     114.874 126.875 140.629  0.00  0.00    +0.000 OA
ATOM     34  C   UNL     1     114.231 127.382 140.531  0.00  0.00    +0.000 C 
ENDBRANCH  31  34
ENDBRANCH  22  30
ENDBRANCH   4  22
TORSDOF 5
ENDMDL
MODEL 3
REMARK VINA RESULT:      -9.0      1.895      3.524
REMARK  Name = 44259557
REMARK  5 active torsions:
REMARK  status: ('A' for Active; 'I' for Inactive)
REMARK    1  A    between atoms: O_2  and  C_16
REMARK    2  A    between atoms: O_2  and  C_19
REMARK    3  A    between atoms: O_11  and  C_27
REMARK    4  A    between atoms: C_17  and  C_18
REMARK    5  A    between atoms: C_20  and  C_24
REMARK                            x       y       z     vdW  Elec       q    Type
REMARK                         _______ _______ _______ _____ _____    ______ ____
ROOT
ATOM      1  O   UNL     1     114.103 127.509 136.111  0.00  0.00    +0.000 OA
ATOM      2  O   UNL     1     111.913 128.436 136.799  0.00  0.00    +0.000 OA
ATOM      3  O   UNL     1     112.185 129.670 136.104  0.00  0.00    +0.000 OA
ATOM      4  C   UNL     1     112.861 127.366 136.804  0.00  0.00    +0.000 A 
ATOM      5  C   UNL     1     113.591 127.057 136.574  0.00  0.00    +0.000 A 
ATOM      6  C   UNL     1     112.644 128.127 136.570  0.00  0.00    +0.000 A 
ATOM      7  C   UNL     1     113.156 128.579 136.107  0.00  0.00    +0.000 A 
ATOM      8  C   UNL     1     113.885 128.270 135.878  0.00  0.00    +0.000 A 
ATOM      9  C   UNL     1     112.917 129.370 135.870  0.00  0.00    +0.000 A 
ATOM     10  C   UNL     1     114.428 128.730 135.395  0.00  0.00    +0.000 A 
ATOM     11  C   UNL     1     114.207 129.523 135.149  0.00  0.00    +0.000 A 
ATOM     12  C   UNL     1     113.446 129.844 135.388  0.00  0.00    +0.000 A 
ENDROOT
BRANCH   5  14
ATOM     13  O   UNL     1     114.460 124.013 137.507  0.00  0.00    +0.000 OA
ATOM     14  C   UNL     1     113.808 126.297 136.808  0.00  0.00    +0.000 A 
ATOM     15  C   UNL     1     113.999 126.146 137.596  0.00  0.00    +0.000 A 
ATOM     16  C   UNL     1     113.835 125.686 136.252  0.00  0.00    +0.000 A 
ATOM     17  C   UNL     1     114.216 125.384 137.829  0.00  0.00    +0.000 A 
ATOM     18  C   UNL     1     114.052 124.926 136.486  0.00  0.00    +0.000 A 
ATOM     19  C   UNL     1     114.243 124.775 137.275  0.00  0.00    +0.000 A 
ENDBRANCH   5  14
BRANCH  11  20
ATOM     20  O   UNL     1     114.721 129.973 134.686  0.00  0.00    +0.000 OA
ATOM     21  C   UNL     1     115.267 130.476 135.046  0.00  0.00    +0.000 C 
ENDBRANCH  11  20
BRANCH   4  22
ATOM     22  O   UNL     1     112.349 126.914 137.266  0.00  0.00    +0.000 OA
BRANCH  22  30
ATOM     23  O   UNL     1     111.460 126.588 136.196  0.00  0.00    +0.000 OA
ATOM     24  O   UNL     1     109.560 126.558 137.782  0.00  0.00    +0.000 OA
ATOM     25  O   UNL     1     111.082 126.894 138.324  0.00  0.00    +0.000 OA
ATOM     26  O   UNL     1     109.306 126.242 136.184  0.00  0.00    +0.000 OA
ATOM     27  C   UNL     1     110.194 126.568 137.253  0.00  0.00    +0.000 C 
ATOM     28  C   UNL     1     110.955 126.736 137.524  0.00  0.00    +0.000 C 
ATOM     29  C   UNL     1     110.067 126.410 136.454  0.00  0.00    +0.000 C 
ATOM     30  C   UNL     1     111.588 126.746 136.996  0.00  0.00    +0.000 C 
ATOM     31  C   UNL     1     110.700 126.420 135.925  0.00  0.00    +0.000 C 
BRANCH  31  34
ATOM     32  O   UNL     1     110.664 125.494 134.837  0.00  0.00    +0.000 OA
ATOM     33  O   UNL     1     110.352 126.871 134.615  0.00  0.00    +0.000 OA
ATOM     34  C   UNL     1     110.572 126.262 135.126  0.00  0.00    +0.000 C 
ENDBRANCH  31  34
ENDBRANCH  22  30
ENDBRANCH   4  22
TORSDOF 5
ENDMDL
MODEL 4
REMARK VINA RESULT:      -8.9      1.530      3.016
REMARK  Name = 44259557
REMARK  5 active torsions:
REMARK  status: ('A' for Active; 'I' for Inactive)
REMARK    1  A    between atoms: O_2  and  C_16
REMARK    2  A    between atoms: O_2  and  C_19
REMARK    3  A    between atoms: O_11  and  C_27
REMARK    4  A    between atoms: C_17  and  C_18
REMARK    5  A    between atoms: C_20  and  C_24
REMARK                            x       y       z     vdW  Elec       q    Type
REMARK                         _______ _______ _______ _____ _____    ______ ____
ROOT
ATOM      1  O   UNL     1     112.987 128.317 138.290  0.00  0.00    +0.000 OA
ATOM      2  O   UNL     1     112.041 126.057 138.646  0.00  0.00    +0.000 OA
ATOM      3  O   UNL     1     112.300 126.140 140.063  0.00  0.00    +0.000 OA
ATOM      4  C   UNL     1     112.380 127.132 137.768  0.00  0.00    +0.000 A 
ATOM      5  C   UNL     1     112.695 127.886 137.650  0.00  0.00    +0.000 A 
ATOM      6  C   UNL     1     112.356 126.810 138.528  0.00  0.00    +0.000 A 
ATOM      7  C   UNL     1     112.648 127.241 139.168  0.00  0.00    +0.000 A 
ATOM      8  C   UNL     1     112.963 127.994 139.049  0.00  0.00    +0.000 A 
ATOM      9  C   UNL     1     112.618 126.894 139.954  0.00  0.00    +0.000 A 
ATOM     10  C   UNL     1     113.271 128.453 139.708  0.00  0.00    +0.000 A 
ATOM     11  C   UNL     1     113.249 128.123 140.501  0.00  0.00    +0.000 A 
ATOM     12  C   UNL     1     112.920 127.338 140.624  0.00  0.00    +0.000 A 
ENDROOT
BRANCH   5  14
ATOM     13  O   UNL     1     112.786 129.173 134.612  0.00  0.00    +0.000 OA
ATOM     14  C   UNL     1     112.719 128.207 136.890  0.00  0.00    +0.000 A 
ATOM     15  C   UNL     1     113.438 128.272 136.491  0.00  0.00    +0.000 A 
ATOM     16  C   UNL     1     112.022 128.464 136.530  0.00  0.00    +0.000 A 
ATOM     17  C   UNL     1     113.460 128.594 135.732  0.00  0.00    +0.000 A 
ATOM     18  C   UNL     1     112.045 128.786 135.771  0.00  0.00    +0.000 A 
ATOM     19  C   UNL     1     112.764 128.851 135.372  0.00  0.00    +0.000 A 
ENDBRANCH   5  14
BRANCH  11  20
ATOM     20  O   UNL     1     113.541 128.556 141.139  0.00  0.00    +0.000 OA
ATOM     21  C   UNL     1     113.129 129.216 141.413  0.00  0.00    +0.000 C 
ENDBRANCH  11  20
BRANCH   4  22
ATOM     22  O   UNL     1     112.088 126.701 137.128  0.00  0.00    +0.000 OA
BRANCH  22  30
ATOM     23  O   UNL     1     113.217 125.831 137.025  0.00  0.00    +0.000 OA
ATOM     24  O   UNL     1     111.737 124.000 136.264  0.00  0.00    +0.000 OA
ATOM     25  O   UNL     1     111.101 125.480 136.621  0.00  0.00    +0.000 OA
ATOM     26  O   UNL     1     113.358 123.741 136.415  0.00  0.00    +0.000 OA
ATOM     27  C   UNL     1     112.230 124.610 136.518  0.00  0.00    +0.000 C 
ATOM     28  C   UNL     1     111.912 125.351 136.696  0.00  0.00    +0.000 C 
ATOM     29  C   UNL     1     113.041 124.481 136.594  0.00  0.00    +0.000 C 
ATOM     30  C   UNL     1     112.406 125.962 136.950  0.00  0.00    +0.000 C 
ATOM     31  C   UNL     1     113.535 125.092 136.847  0.00  0.00    +0.000 C 
BRANCH  31  34
ATOM     32  O   UNL     1     114.646 124.610 137.606  0.00  0.00    +0.000 OA
ATOM     33  O   UNL     1     114.857 125.185 136.315  0.00  0.00    +0.000 OA
ATOM     34  C   UNL     1     114.345 124.962 136.923  0.00  0.00    +0.000 C 
ENDBRANCH  31  34
ENDBRANCH  22  30
ENDBRANCH   4  22
TORSDOF 5
ENDMDL
MODEL 5
REMARK VINA RESULT:      -8.9      2.195      3.737
REMARK  Name = 44259557
REMARK  5 active torsions:
REMARK  status: ('A' for Active; 'I' for Inactive)
REMARK    1  A    between atoms: O_2  and  C_16
REMARK    2  A    between atoms: O_2  and  C_19
REMARK    3  A    between atoms: O_11  and  C_27
REMARK    4  A    between atoms: C_17  and  C_18
REMARK    5  A    between atoms: C_20  and  C_24
REMARK                            x       y       z     vdW  Elec       q    Type
REMARK                         _______ _______ _______ _____ _____    ______ ____
ROOT
ATOM      1  O   UNL     1     112.638 126.936 136.235  0.00  0.00    +0.000 OA
ATOM      2  O   UNL     1     110.318 127.076 135.383  0.00  0.00    +0.000 OA
ATOM      3  O   UNL     1     110.143 125.652 135.542  0.00  0.00    +0.000 OA
ATOM      4  C   UNL     1     111.551 127.712 135.725  0.00  0.00    +0.000 A 
ATOM      5  C   UNL     1     112.325 127.665 136.010  0.00  0.00    +0.000 A 
ATOM      6  C   UNL     1     111.092 127.029 135.667  0.00  0.00    +0.000 A 
ATOM      7  C   UNL     1     111.405 126.300 135.892  0.00  0.00    +0.000 A 
ATOM      8  C   UNL     1     112.178 126.253 136.176  0.00  0.00    +0.000 A 
ATOM      9  C   UNL     1     110.916 125.596 135.827  0.00  0.00    +0.000 A 
ATOM     10  C   UNL     1     112.517 125.499 136.414  0.00  0.00    +0.000 A 
ATOM     11  C   UNL     1     112.043 124.785 136.355  0.00  0.00    +0.000 A 
ATOM     12  C   UNL     1     111.237 124.834 136.060  0.00  0.00    +0.000 A 
ENDROOT
BRANCH   5  14
ATOM     13  O   UNL     1     114.163 130.396 136.240  0.00  0.00    +0.000 OA
ATOM     14  C   UNL     1     112.784 128.347 136.068  0.00  0.00    +0.000 A 
ATOM     15  C   UNL     1     112.952 128.670 136.808  0.00  0.00    +0.000 A 
ATOM     16  C   UNL     1     113.076 128.707 135.384  0.00  0.00    +0.000 A 
ATOM     17  C   UNL     1     113.412 129.353 136.865  0.00  0.00    +0.000 A 
ATOM     18  C   UNL     1     113.535 129.390 135.443  0.00  0.00    +0.000 A 
ATOM     19  C   UNL     1     113.703 129.713 136.183  0.00  0.00    +0.000 A 
ENDBRANCH   5  14
BRANCH  11  20
ATOM     20  O   UNL     1     112.358 124.057 136.582  0.00  0.00    +0.000 OA
ATOM     21  C   UNL     1     112.003 123.623 137.186  0.00  0.00    +0.000 C 
ENDBRANCH  11  20
BRANCH   4  22
ATOM     22  O   UNL     1     111.238 128.441 135.500  0.00  0.00    +0.000 OA
BRANCH  22  30
ATOM     23  O   UNL     1     110.450 128.623 136.679  0.00  0.00    +0.000 OA
ATOM     24  O   UNL     1     108.729 129.802 135.346  0.00  0.00    +0.000 OA
ATOM     25  O   UNL     1     110.090 129.226 134.612  0.00  0.00    +0.000 OA
ATOM     26  O   UNL     1     108.516 129.591 136.968  0.00  0.00    +0.000 OA
ATOM     27  C   UNL     1     109.303 129.409 135.791  0.00  0.00    +0.000 C 
ATOM     28  C   UNL     1     109.984 129.121 135.423  0.00  0.00    +0.000 C 
ATOM     29  C   UNL     1     109.197 129.303 136.602  0.00  0.00    +0.000 C 
ATOM     30  C   UNL     1     110.558 128.728 135.867  0.00  0.00    +0.000 C 
ATOM     31  C   UNL     1     109.771 128.911 137.046  0.00  0.00    +0.000 C 
BRANCH  31  34
ATOM     32  O   UNL     1     109.269 128.138 138.138  0.00  0.00    +0.000 OA
ATOM     33  O   UNL     1     109.951 129.369 138.386  0.00  0.00    +0.000 OA
ATOM     34  C   UNL     1     109.664 128.806 137.856  0.00  0.00    +0.000 C 
ENDBRANCH  31  34
ENDBRANCH  22  30
ENDBRANCH   4  22
TORSDOF 5
ENDMDL
MODEL 6
REMARK VINA RESULT:      -8.8      1.814      3.725
REMARK  Name = 44259557
REMARK  5 active torsions:
REMARK  status: ('A' for Active; 'I' for Inactive)
REMARK    1  A    between atoms: O_2  and  C_16
REMARK    2  A    between atoms: O_2  and  C_19
REMARK    3  A    between atoms: O_11  and  C_27
REMARK    4  A    between atoms: C_17  and  C_18
REMARK    5  A    between atoms: C_20  and  C_24
REMARK                            x       y       z     vdW  Elec       q    Type
REMARK                         _______ _______ _______ _____ _____    ______ ____
ROOT
ATOM      1  O   UNL     1     112.983 126.853 136.331  0.00  0.00    +0.000 OA
ATOM      2  O   UNL     1     112.499 127.890 138.526  0.00  0.00    +0.000 OA
ATOM      3  O   UNL     1     112.972 129.170 138.058  0.00  0.00    +0.000 OA
ATOM      4  C   UNL     1     112.504 126.744 137.674  0.00  0.00    +0.000 A 
ATOM      5  C   UNL     1     112.665 126.398 136.941  0.00  0.00    +0.000 A 
ATOM      6  C   UNL     1     112.661 127.545 137.794  0.00  0.00    +0.000 A 
ATOM      7  C   UNL     1     112.978 128.000 137.184  0.00  0.00    +0.000 A 
ATOM      8  C   UNL     1     113.139 127.655 136.453  0.00  0.00    +0.000 A 
ATOM      9  C   UNL     1     113.136 128.833 137.323  0.00  0.00    +0.000 A 
ATOM     10  C   UNL     1     113.470 128.118 135.808  0.00  0.00    +0.000 A 
ATOM     11  C   UNL     1     113.635 128.953 135.929  0.00  0.00    +0.000 A 
ATOM     12  C   UNL     1     113.467 129.312 136.691  0.00  0.00    +0.000 A 
ENDROOT
BRANCH   5  14
ATOM     13  O   UNL     1     112.041 123.193 136.460  0.00  0.00    +0.000 OA
ATOM     14  C   UNL     1     112.509 125.597 136.821  0.00  0.00    +0.000 A 
ATOM     15  C   UNL     1     111.860 125.367 136.366  0.00  0.00    +0.000 A 
ATOM     16  C   UNL     1     113.002 125.026 137.155  0.00  0.00    +0.000 A 
ATOM     17  C   UNL     1     111.704 124.566 136.246  0.00  0.00    +0.000 A 
ATOM     18  C   UNL     1     112.845 124.225 137.035  0.00  0.00    +0.000 A 
ATOM     19  C   UNL     1     112.197 123.995 136.580  0.00  0.00    +0.000 A 
ENDBRANCH   5  14
BRANCH  11  20
ATOM     20  O   UNL     1     113.952 129.406 135.316  0.00  0.00    +0.000 OA
ATOM     21  C   UNL     1     114.769 129.440 135.210  0.00  0.00    +0.000 C 
ENDBRANCH  11  20
BRANCH   4  22
ATOM     22  O   UNL     1     112.187 126.288 138.284  0.00  0.00    +0.000 OA
BRANCH  22  30
ATOM     23  O   UNL     1     110.859 126.794 138.132  0.00  0.00    +0.000 OA
ATOM     24  O   UNL     1     110.462 126.482 140.555  0.00  0.00    +0.000 OA
ATOM     25  O   UNL     1     111.922 126.080 139.899  0.00  0.00    +0.000 OA
ATOM     26  O   UNL     1     109.267 127.091 139.595  0.00  0.00    +0.000 OA
ATOM     27  C   UNL     1     110.594 126.586 139.747  0.00  0.00    +0.000 C 
ATOM     28  C   UNL     1     111.325 126.385 139.419  0.00  0.00    +0.000 C 
ATOM     29  C   UNL     1     109.997 126.891 139.267  0.00  0.00    +0.000 C 
ATOM     30  C   UNL     1     111.457 126.489 138.611  0.00  0.00    +0.000 C 
ATOM     31  C   UNL     1     110.129 126.995 138.459  0.00  0.00    +0.000 C 
BRANCH  31  34
ATOM     32  O   UNL     1     109.424 128.115 137.921  0.00  0.00    +0.000 OA
ATOM     33  O   UNL     1     109.041 126.788 137.557  0.00  0.00    +0.000 OA
ATOM     34  C   UNL     1     109.532 127.299 137.979  0.00  0.00    +0.000 C 
ENDBRANCH  31  34
ENDBRANCH  22  30
ENDBRANCH   4  22
TORSDOF 5
ENDMDL
MODEL 7
REMARK VINA RESULT:      -8.8      1.846      3.965
REMARK  Name = 44259557
REMARK  5 active torsions:
REMARK  status: ('A' for Active; 'I' for Inactive)
REMARK    1  A    between atoms: O_2  and  C_16
REMARK    2  A    between atoms: O_2  and  C_19
REMARK    3  A    between atoms: O_11  and  C_27
REMARK    4  A    between atoms: C_17  and  C_18
REMARK    5  A    between atoms: C_20  and  C_24
REMARK                            x       y       z     vdW  Elec       q    Type
REMARK                         _______ _______ _______ _____ _____    ______ ____
ROOT
ATOM      1  O   UNL     1     113.049 128.409 138.146  0.00  0.00    +0.000 OA
ATOM      2  O   UNL     1     112.286 127.152 136.154  0.00  0.00    +0.000 OA
ATOM      3  O   UNL     1     112.743 128.205 135.279  0.00  0.00    +0.000 OA
ATOM      4  C   UNL     1     112.436 127.252 137.571  0.00  0.00    +0.000 A 
ATOM      5  C   UNL     1     112.691 127.671 138.236  0.00  0.00    +0.000 A 
ATOM      6  C   UNL     1     112.540 127.571 136.818  0.00  0.00    +0.000 A 
ATOM      7  C   UNL     1     112.898 128.309 136.728  0.00  0.00    +0.000 A 
ATOM      8  C   UNL     1     113.152 128.727 137.392  0.00  0.00    +0.000 A 
ATOM      9  C   UNL     1     113.000 128.631 135.938  0.00  0.00    +0.000 A 
ATOM     10  C   UNL     1     113.527 129.497 137.312  0.00  0.00    +0.000 A 
ATOM     11  C   UNL     1     113.637 129.835 136.530  0.00  0.00    +0.000 A 
ATOM     12  C   UNL     1     113.372 129.399 135.838  0.00  0.00    +0.000 A 
ENDROOT
BRANCH   5  14
ATOM     13  O   UNL     1     112.278 126.391 141.249  0.00  0.00    +0.000 OA
ATOM     14  C   UNL     1     112.587 127.351 138.989  0.00  0.00    +0.000 A 
ATOM     15  C   UNL     1     111.833 127.313 139.321  0.00  0.00    +0.000 A 
ATOM     16  C   UNL     1     113.239 127.069 139.410  0.00  0.00    +0.000 A 
ATOM     17  C   UNL     1     111.730 126.992 140.075  0.00  0.00    +0.000 A 
ATOM     18  C   UNL     1     113.135 126.749 140.164  0.00  0.00    +0.000 A 
ATOM     19  C   UNL     1     112.381 126.711 140.496  0.00  0.00    +0.000 A 
ENDBRANCH   5  14
BRANCH  11  20
ATOM     20  O   UNL     1     113.995 130.573 136.443  0.00  0.00    +0.000 OA
ATOM     21  C   UNL     1     114.778 130.624 136.188  0.00  0.00    +0.000 C 
ENDBRANCH  11  20
BRANCH   4  22
ATOM     22  O   UNL     1     112.078 126.514 137.661  0.00  0.00    +0.000 OA
BRANCH  22  30
ATOM     23  O   UNL     1     113.236 125.772 137.270  0.00  0.00    +0.000 OA
ATOM     24  O   UNL     1     111.784 123.995 136.343  0.00  0.00    +0.000 OA
ATOM     25  O   UNL     1     111.110 125.329 137.043  0.00  0.00    +0.000 OA
ATOM     26  O   UNL     1     113.424 123.846 136.261  0.00  0.00    +0.000 OA
ATOM     27  C   UNL     1     112.268 124.587 136.652  0.00  0.00    +0.000 C 
ATOM     28  C   UNL     1     111.931 125.255 137.002  0.00  0.00    +0.000 C 
ATOM     29  C   UNL     1     113.088 124.513 136.612  0.00  0.00    +0.000 C 
ATOM     30  C   UNL     1     112.415 125.847 137.311  0.00  0.00    +0.000 C 
ATOM     31  C   UNL     1     113.572 125.106 136.920  0.00  0.00    +0.000 C 
BRANCH  31  34
ATOM     32  O   UNL     1     114.795 125.266 136.199  0.00  0.00    +0.000 OA
ATOM     33  O   UNL     1     114.810 124.721 137.519  0.00  0.00    +0.000 OA
ATOM     34  C   UNL     1     114.392 125.031 136.879  0.00  0.00    +0.000 C 
ENDBRANCH  31  34
ENDBRANCH  22  30
ENDBRANCH   4  22
TORSDOF 5
ENDMDL
MODEL 8
REMARK VINA RESULT:      -8.8      3.839      5.957
REMARK  Name = 44259557
REMARK  5 active torsions:
REMARK  status: ('A' for Active; 'I' for Inactive)
REMARK    1  A    between atoms: O_2  and  C_16
REMARK    2  A    between atoms: O_2  and  C_19
REMARK    3  A    between atoms: O_11  and  C_27
REMARK    4  A    between atoms: C_17  and  C_18
REMARK    5  A    between atoms: C_20  and  C_24
REMARK                            x       y       z     vdW  Elec       q    Type
REMARK                         _______ _______ _______ _____ _____    ______ ____
ROOT
ATOM      1  O   UNL     1     111.870 129.403 135.821  0.00  0.00    +0.000 OA
ATOM      2  O   UNL     1     112.356 130.707 137.868  0.00  0.00    +0.000 OA
ATOM      3  O   UNL     1     113.751 130.800 137.512  0.00  0.00    +0.000 OA
ATOM      4  C   UNL     1     111.425 130.016 137.033  0.00  0.00    +0.000 A 
ATOM      5  C   UNL     1     111.263 129.581 136.350  0.00  0.00    +0.000 A 
ATOM      6  C   UNL     1     112.194 130.272 137.185  0.00  0.00    +0.000 A 
ATOM      7  C   UNL     1     112.801 130.094 136.656  0.00  0.00    +0.000 A 
ATOM      8  C   UNL     1     112.639 129.659 135.974  0.00  0.00    +0.000 A 
ATOM      9  C   UNL     1     113.598 130.366 136.827  0.00  0.00    +0.000 A 
ATOM     10  C   UNL     1     113.263 129.467 135.414  0.00  0.00    +0.000 A 
ATOM     11  C   UNL     1     114.066 129.731 135.568  0.00  0.00    +0.000 A 
ATOM     12  C   UNL     1     114.234 130.183 136.279  0.00  0.00    +0.000 A 
ENDROOT
BRANCH   5  14
ATOM     13  O   UNL     1     108.185 128.556 135.742  0.00  0.00    +0.000 OA
ATOM     14  C   UNL     1     110.494 129.326 136.198  0.00  0.00    +0.000 A 
ATOM     15  C   UNL     1     110.051 129.682 135.599  0.00  0.00    +0.000 A 
ATOM     16  C   UNL     1     110.167 128.713 136.644  0.00  0.00    +0.000 A 
ATOM     17  C   UNL     1     109.281 129.425 135.448  0.00  0.00    +0.000 A 
ATOM     18  C   UNL     1     109.398 128.457 136.492  0.00  0.00    +0.000 A 
ATOM     19  C   UNL     1     108.955 128.813 135.894  0.00  0.00    +0.000 A 
ENDBRANCH   5  14
BRANCH  11  20
ATOM     20  O   UNL     1     114.671 129.551 135.037  0.00  0.00    +0.000 OA
ATOM     21  C   UNL     1     115.040 130.155 134.613  0.00  0.00    +0.000 C 
ENDBRANCH  11  20
BRANCH   4  22
ATOM     22  O   UNL     1     110.818 130.195 137.562  0.00  0.00    +0.000 OA
BRANCH  22  30
ATOM     23  O   UNL     1     110.665 131.555 137.152  0.00  0.00    +0.000 OA
ATOM     24  O   UNL     1     110.098 132.192 139.475  0.00  0.00    +0.000 OA
ATOM     25  O   UNL     1     110.440 130.619 139.111  0.00  0.00    +0.000 OA
ATOM     26  O   UNL     1     110.135 133.339 138.291  0.00  0.00    +0.000 OA
ATOM     27  C   UNL     1     110.287 131.980 138.701  0.00  0.00    +0.000 C 
ATOM     28  C   UNL     1     110.458 131.193 138.519  0.00  0.00    +0.000 C 
ATOM     29  C   UNL     1     110.306 132.553 138.108  0.00  0.00    +0.000 C 
ATOM     30  C   UNL     1     110.647 130.980 137.744  0.00  0.00    +0.000 C 
ATOM     31  C   UNL     1     110.495 132.341 137.334  0.00  0.00    +0.000 C 
BRANCH  31  34
ATOM     32  O   UNL     1     109.866 133.010 136.239  0.00  0.00    +0.000 OA
ATOM     33  O   UNL     1     111.179 133.393 136.652  0.00  0.00    +0.000 OA
ATOM     34  C   UNL     1     110.513 132.914 136.742  0.00  0.00    +0.000 C 
ENDBRANCH  31  34
ENDBRANCH  22  30
ENDBRANCH   4  22
TORSDOF 5
ENDMDL
