MODEL 1
REMARK VINA RESULT:     -10.4      0.000      0.000
REMARK  Name = 131752183
REMARK  3 active torsions:
REMARK  status: ('A' for Active; 'I' for Inactive)
REMARK    1  A    between atoms: C_12  and  C_17
REMARK    2  A    between atoms: C_16  and  C_22
REMARK    3  A    between atoms: C_23  and  C_27
REMARK                            x       y       z     vdW  Elec       q    Type
REMARK                         _______ _______ _______ _____ _____    ______ ____
ROOT
ATOM      1  O   UNL     1     104.288 124.975 139.416  0.00  0.00    +0.000 OA
ATOM      2  O   UNL     1     106.129 124.474 141.592  0.00  0.00    +0.000 OA
ATOM      3  O   UNL     1     104.815 122.798 139.448  0.00  0.00    +0.000 OA
ATOM      4  O   UNL     1     105.155 127.121 141.132  0.00  0.00    +0.000 OA
ATOM      5  C   UNL     1     105.642 125.797 141.362  0.00  0.00    +0.000 A 
ATOM      6  C   UNL     1     105.220 124.724 140.518  0.00  0.00    +0.000 A 
ATOM      7  C   UNL     1     105.664 124.998 141.157  0.00  0.00    +0.000 A 
ATOM      8  C   UNL     1     105.251 123.889 140.315  0.00  0.00    +0.000 C 
ATOM      9  C   UNL     1     104.792 123.598 139.650  0.00  0.00    +0.000 C 
ATOM     10  C   UNL     1     104.307 124.144 139.198  0.00  0.00    +0.000 C 
ATOM     11  C   UNL     1     104.755 125.248 140.084  0.00  0.00    +0.000 A 
ATOM     12  C   UNL     1     105.177 126.322 140.928  0.00  0.00    +0.000 A 
ATOM     13  C   UNL     1     104.733 126.047 140.288  0.00  0.00    +0.000 A 
ENDROOT
BRANCH   5  18
ATOM     14  O   UNL     1     105.759 126.077 142.759  0.00  0.00    +0.000 OA
ATOM     15  O   UNL     1     107.184 126.335 141.126  0.00  0.00    +0.000 OA
ATOM     16  O   UNL     1     108.071 126.884 142.404  0.00  0.00    +0.000 OA
ATOM     17  O   UNL     1     107.417 126.895 143.918  0.00  0.00    +0.000 OA
ATOM     18  C   UNL     1     106.085 126.071 142.001  0.00  0.00    +0.000 C 
ATOM     19  C   UNL     1     106.856 126.340 141.883  0.00  0.00    +0.000 C 
ATOM     20  C   UNL     1     107.300 126.615 142.522  0.00  0.00    +0.000 C 
ATOM     21  C   UNL     1     106.973 126.621 143.279  0.00  0.00    +0.000 C 
ATOM     22  C   UNL     1     106.202 126.352 143.397  0.00  0.00    +0.000 C 
BRANCH  22  24
ATOM     23  O   UNL     1     105.153 125.984 144.295  0.00  0.00    +0.000 OA
ATOM     24  C   UNL     1     105.875 126.357 144.154  0.00  0.00    +0.000 C 
ENDBRANCH  22  24
ENDBRANCH   5  18
BRANCH  10  27
ATOM     25  O   UNL     1     101.778 123.474 138.046  0.00  0.00    +0.000 OA
ATOM     26  O   UNL     1     102.529 123.060 136.637  0.00  0.00    +0.000 OA
ATOM     27  C   UNL     1     103.862 123.873 138.558  0.00  0.00    +0.000 A 
ATOM     28  C   UNL     1     103.042 123.809 138.622  0.00  0.00    +0.000 A 
ATOM     29  C   UNL     1     104.238 123.666 137.853  0.00  0.00    +0.000 A 
ATOM     30  C   UNL     1     102.598 123.538 137.982  0.00  0.00    +0.000 A 
ATOM     31  C   UNL     1     103.794 123.395 137.213  0.00  0.00    +0.000 A 
ATOM     32  C   UNL     1     102.974 123.331 137.277  0.00  0.00    +0.000 A 
ENDBRANCH  10  27
TORSDOF 3
ENDMDL
MODEL 2
REMARK VINA RESULT:      -9.5      7.864      8.993
REMARK  Name = 131752183
REMARK  3 active torsions:
REMARK  status: ('A' for Active; 'I' for Inactive)
REMARK    1  A    between atoms: C_12  and  C_17
REMARK    2  A    between atoms: C_16  and  C_22
REMARK    3  A    between atoms: C_23  and  C_27
REMARK                            x       y       z     vdW  Elec       q    Type
REMARK                         _______ _______ _______ _____ _____    ______ ____
ROOT
ATOM      1  O   UNL     1     113.402 126.338 138.838  0.00  0.00    +0.000 OA
ATOM      2  O   UNL     1     112.969 129.193 139.021  0.00  0.00    +0.000 OA
ATOM      3  O   UNL     1     112.467 127.064 136.937  0.00  0.00    +0.000 OA
ATOM      4  O   UNL     1     114.148 127.788 141.213  0.00  0.00    +0.000 OA
ATOM      5  C   UNL     1     113.559 128.491 140.117  0.00  0.00    +0.000 A 
ATOM      6  C   UNL     1     113.184 127.784 138.934  0.00  0.00    +0.000 A 
ATOM      7  C   UNL     1     113.237 128.489 139.357  0.00  0.00    +0.000 A 
ATOM      8  C   UNL     1     112.847 127.794 138.143  0.00  0.00    +0.000 C 
ATOM      9  C   UNL     1     112.789 127.063 137.697  0.00  0.00    +0.000 C 
ATOM     10  C   UNL     1     113.068 126.329 138.047  0.00  0.00    +0.000 C 
ATOM     11  C   UNL     1     113.452 127.079 139.270  0.00  0.00    +0.000 A 
ATOM     12  C   UNL     1     113.827 127.787 140.453  0.00  0.00    +0.000 A 
ATOM     13  C   UNL     1     113.773 127.081 140.029  0.00  0.00    +0.000 A 
ENDROOT
BRANCH   5  18
ATOM     14  O   UNL     1     114.258 129.698 140.429  0.00  0.00    +0.000 OA
ATOM     15  O   UNL     1     112.373 128.901 141.189  0.00  0.00    +0.000 OA
ATOM     16  O   UNL     1     112.479 130.313 142.037  0.00  0.00    +0.000 OA
ATOM     17  O   UNL     1     113.771 131.314 141.813  0.00  0.00    +0.000 OA
ATOM     18  C   UNL     1     113.612 129.196 140.541  0.00  0.00    +0.000 C 
ATOM     19  C   UNL     1     113.019 129.402 141.076  0.00  0.00    +0.000 C 
ATOM     20  C   UNL     1     113.072 130.108 141.501  0.00  0.00    +0.000 C 
ATOM     21  C   UNL     1     113.718 130.608 141.389  0.00  0.00    +0.000 C 
ATOM     22  C   UNL     1     114.311 130.403 140.853  0.00  0.00    +0.000 C 
BRANCH  22  24
ATOM     23  O   UNL     1     115.710 130.587 140.626  0.00  0.00    +0.000 OA
ATOM     24  C   UNL     1     114.957 130.903 140.741  0.00  0.00    +0.000 C 
ENDBRANCH  22  24
ENDBRANCH   5  18
BRANCH  10  27
ATOM     25  O   UNL     1     111.583 124.016 137.265  0.00  0.00    +0.000 OA
ATOM     26  O   UNL     1     112.863 123.498 136.363  0.00  0.00    +0.000 OA
ATOM     27  C   UNL     1     113.016 125.621 137.626  0.00  0.00    +0.000 A 
ATOM     28  C   UNL     1     112.325 125.172 137.656  0.00  0.00    +0.000 A 
ATOM     29  C   UNL     1     113.657 125.363 137.175  0.00  0.00    +0.000 A 
ATOM     30  C   UNL     1     112.274 124.465 137.235  0.00  0.00    +0.000 A 
ATOM     31  C   UNL     1     113.606 124.655 136.753  0.00  0.00    +0.000 A 
ATOM     32  C   UNL     1     112.915 124.206 136.784  0.00  0.00    +0.000 A 
ENDBRANCH  10  27
TORSDOF 3
ENDMDL
MODEL 3
REMARK VINA RESULT:      -9.5      7.754     10.363
REMARK  Name = 131752183
REMARK  3 active torsions:
REMARK  status: ('A' for Active; 'I' for Inactive)
REMARK    1  A    between atoms: C_12  and  C_17
REMARK    2  A    between atoms: C_16  and  C_22
REMARK    3  A    between atoms: C_23  and  C_27
REMARK                            x       y       z     vdW  Elec       q    Type
REMARK                         _______ _______ _______ _____ _____    ______ ____
ROOT
ATOM      1  O   UNL     1     113.371 128.780 139.368  0.00  0.00    +0.000 OA
ATOM      2  O   UNL     1     113.573 125.897 139.221  0.00  0.00    +0.000 OA
ATOM      3  O   UNL     1     114.342 128.014 141.235  0.00  0.00    +0.000 OA
ATOM      4  O   UNL     1     112.396 127.353 137.062  0.00  0.00    +0.000 OA
ATOM      5  C   UNL     1     112.985 126.624 138.141  0.00  0.00    +0.000 A 
ATOM      6  C   UNL     1     113.472 127.320 139.291  0.00  0.00    +0.000 A 
ATOM      7  C   UNL     1     113.343 126.614 138.885  0.00  0.00    +0.000 A 
ATOM      8  C   UNL     1     113.846 127.296 140.064  0.00  0.00    +0.000 C 
ATOM      9  C   UNL     1     113.983 128.028 140.492  0.00  0.00    +0.000 C 
ATOM     10  C   UNL     1     113.743 128.775 140.142  0.00  0.00    +0.000 C 
ATOM     11  C   UNL     1     113.242 128.037 138.954  0.00  0.00    +0.000 A 
ATOM     12  C   UNL     1     112.755 127.342 137.805  0.00  0.00    +0.000 A 
ATOM     13  C   UNL     1     112.883 128.049 138.211  0.00  0.00    +0.000 A 
ENDROOT
BRANCH   5  18
ATOM     14  O   UNL     1     113.443 125.613 137.242  0.00  0.00    +0.000 OA
ATOM     15  O   UNL     1     111.553 125.822 138.314  0.00  0.00    +0.000 OA
ATOM     16  O   UNL     1     111.295 124.410 137.502  0.00  0.00    +0.000 OA
ATOM     17  O   UNL     1     112.469 123.800 136.516  0.00  0.00    +0.000 OA
ATOM     18  C   UNL     1     112.856 125.919 137.735  0.00  0.00    +0.000 C 
ATOM     19  C   UNL     1     112.140 125.518 137.822  0.00  0.00    +0.000 C 
ATOM     20  C   UNL     1     112.011 124.811 137.415  0.00  0.00    +0.000 C 
ATOM     21  C   UNL     1     112.598 124.506 136.922  0.00  0.00    +0.000 C 
ATOM     22  C   UNL     1     113.314 124.907 136.836  0.00  0.00    +0.000 C 
BRANCH  22  24
ATOM     23  O   UNL     1     114.580 125.044 136.186  0.00  0.00    +0.000 OA
ATOM     24  C   UNL     1     113.901 124.602 136.343  0.00  0.00    +0.000 C 
ENDBRANCH  22  24
ENDBRANCH   5  18
BRANCH  10  27
ATOM     25  O   UNL     1     115.370 131.065 140.674  0.00  0.00    +0.000 OA
ATOM     26  O   UNL     1     114.250 131.609 141.757  0.00  0.00    +0.000 OA
ATOM     27  C   UNL     1     113.871 129.483 140.545  0.00  0.00    +0.000 A 
ATOM     28  C   UNL     1     114.557 129.920 140.408  0.00  0.00    +0.000 A 
ATOM     29  C   UNL     1     113.311 129.755 141.087  0.00  0.00    +0.000 A 
ATOM     30  C   UNL     1     114.683 130.628 140.811  0.00  0.00    +0.000 A 
ATOM     31  C   UNL     1     113.437 130.463 141.491  0.00  0.00    +0.000 A 
ATOM     32  C   UNL     1     114.123 130.900 141.353  0.00  0.00    +0.000 A 
ENDBRANCH  10  27
TORSDOF 3
ENDMDL
MODEL 4
REMARK VINA RESULT:      -9.4      3.569      5.525
REMARK  Name = 131752183
REMARK  3 active torsions:
REMARK  status: ('A' for Active; 'I' for Inactive)
REMARK    1  A    between atoms: C_12  and  C_17
REMARK    2  A    between atoms: C_16  and  C_22
REMARK    3  A    between atoms: C_23  and  C_27
REMARK                            x       y       z     vdW  Elec       q    Type
REMARK                         _______ _______ _______ _____ _____    ______ ____
ROOT
ATOM      1  O   UNL     1     103.813 129.861 142.275  0.00  0.00    +0.000 OA
ATOM      2  O   UNL     1     104.675 127.379 141.063  0.00  0.00    +0.000 OA
ATOM      3  O   UNL     1     102.663 129.528 140.383  0.00  0.00    +0.000 OA
ATOM      4  O   UNL     1     105.856 128.251 143.515  0.00  0.00    +0.000 OA
ATOM      5  C   UNL     1     105.266 127.814 142.289  0.00  0.00    +0.000 A 
ATOM      6  C   UNL     1     104.252 128.604 141.663  0.00  0.00    +0.000 A 
ATOM      7  C   UNL     1     104.730 127.933 141.672  0.00  0.00    +0.000 A 
ATOM      8  C   UNL     1     103.698 128.715 141.015  0.00  0.00    +0.000 C 
ATOM      9  C   UNL     1     103.197 129.413 141.001  0.00  0.00    +0.000 C 
ATOM     10  C   UNL     1     103.254 129.989 141.635  0.00  0.00    +0.000 C 
ATOM     11  C   UNL     1     104.307 129.157 142.272  0.00  0.00    +0.000 A 
ATOM     12  C   UNL     1     105.321 128.368 142.898  0.00  0.00    +0.000 A 
ATOM     13  C   UNL     1     104.842 129.040 142.890  0.00  0.00    +0.000 A 
ENDROOT
BRANCH   5  18
ATOM     14  O   UNL     1     105.481 126.452 142.661  0.00  0.00    +0.000 OA
ATOM     15  O   UNL     1     106.753 127.854 141.576  0.00  0.00    +0.000 OA
ATOM     16  O   UNL     1     107.712 126.512 141.592  0.00  0.00    +0.000 OA
ATOM     17  O   UNL     1     107.183 125.130 142.321  0.00  0.00    +0.000 OA
ATOM     18  C   UNL     1     105.745 127.143 142.297  0.00  0.00    +0.000 C 
ATOM     19  C   UNL     1     106.488 127.163 141.940  0.00  0.00    +0.000 C 
ATOM     20  C   UNL     1     106.968 126.492 141.948  0.00  0.00    +0.000 C 
ATOM     21  C   UNL     1     106.703 125.801 142.313  0.00  0.00    +0.000 C 
ATOM     22  C   UNL     1     105.960 125.781 142.669  0.00  0.00    +0.000 C 
BRANCH  22  24
ATOM     23  O   UNL     1     105.267 125.131 143.737  0.00  0.00    +0.000 OA
ATOM     24  C   UNL     1     105.696 125.090 143.033  0.00  0.00    +0.000 C 
ENDBRANCH  22  24
ENDBRANCH   5  18
BRANCH  10  27
ATOM     25  O   UNL     1     102.875 132.753 141.011  0.00  0.00    +0.000 OA
ATOM     26  O   UNL     1     101.342 132.679 141.617  0.00  0.00    +0.000 OA
ATOM     27  C   UNL     1     102.776 130.662 141.631  0.00  0.00    +0.000 A 
ATOM     28  C   UNL     1     103.065 131.371 141.323  0.00  0.00    +0.000 A 
ATOM     29  C   UNL     1     102.010 130.625 141.934  0.00  0.00    +0.000 A 
ATOM     30  C   UNL     1     102.586 132.043 141.319  0.00  0.00    +0.000 A 
ATOM     31  C   UNL     1     101.532 131.297 141.929  0.00  0.00    +0.000 A 
ATOM     32  C   UNL     1     101.820 132.006 141.622  0.00  0.00    +0.000 A 
ENDBRANCH  10  27
TORSDOF 3
ENDMDL
MODEL 5
REMARK VINA RESULT:      -9.4      4.204      6.115
REMARK  Name = 131752183
REMARK  3 active torsions:
REMARK  status: ('A' for Active; 'I' for Inactive)
REMARK    1  A    between atoms: C_12  and  C_17
REMARK    2  A    between atoms: C_16  and  C_22
REMARK    3  A    between atoms: C_23  and  C_27
REMARK                            x       y       z     vdW  Elec       q    Type
REMARK                         _______ _______ _______ _____ _____    ______ ____
ROOT
ATOM      1  O   UNL     1     106.220 127.225 144.815  0.00  0.00    +0.000 OA
ATOM      2  O   UNL     1     106.364 124.659 146.144  0.00  0.00    +0.000 OA
ATOM      3  O   UNL     1     105.772 125.604 143.337  0.00  0.00    +0.000 OA
ATOM      4  O   UNL     1     106.862 127.056 147.619  0.00  0.00    +0.000 OA
ATOM      5  C   UNL     1     106.613 125.857 146.882  0.00  0.00    +0.000 A 
ATOM      6  C   UNL     1     106.294 125.927 145.491  0.00  0.00    +0.000 A 
ATOM      7  C   UNL     1     106.424 125.481 146.172  0.00  0.00    +0.000 A 
ATOM      8  C   UNL     1     106.097 125.523 144.758  0.00  0.00    +0.000 C 
ATOM      9  C   UNL     1     105.961 125.983 144.045  0.00  0.00    +0.000 C 
ATOM     10  C   UNL     1     106.023 126.839 144.074  0.00  0.00    +0.000 C 
ATOM     11  C   UNL     1     106.353 126.749 145.519  0.00  0.00    +0.000 A 
ATOM     12  C   UNL     1     106.673 126.679 146.910  0.00  0.00    +0.000 A 
ATOM     13  C   UNL     1     106.543 127.126 146.228  0.00  0.00    +0.000 A 
ENDROOT
BRANCH   5  18
ATOM     14  O   UNL     1     106.105 125.176 148.031  0.00  0.00    +0.000 OA
ATOM     15  O   UNL     1     108.149 125.433 147.310  0.00  0.00    +0.000 OA
ATOM     16  O   UNL     1     108.410 124.541 148.674  0.00  0.00    +0.000 OA
ATOM     17  O   UNL     1     107.134 124.072 149.608  0.00  0.00    +0.000 OA
ATOM     18  C   UNL     1     106.743 125.411 147.563  0.00  0.00    +0.000 C 
ATOM     19  C   UNL     1     107.511 125.199 147.777  0.00  0.00    +0.000 C 
ATOM     20  C   UNL     1     107.641 124.753 148.460  0.00  0.00    +0.000 C 
ATOM     21  C   UNL     1     107.003 124.518 148.927  0.00  0.00    +0.000 C 
ATOM     22  C   UNL     1     106.235 124.730 148.713  0.00  0.00    +0.000 C 
BRANCH  22  24
ATOM     23  O   UNL     1     104.923 124.968 149.225  0.00  0.00    +0.000 OA
ATOM     24  C   UNL     1     105.598 124.496 149.180  0.00  0.00    +0.000 C 
ENDBRANCH  22  24
ENDBRANCH   5  18
BRANCH  10  27
ATOM     25  O   UNL     1     106.988 127.972 141.633  0.00  0.00    +0.000 OA
ATOM     26  O   UNL     1     105.504 128.638 141.355  0.00  0.00    +0.000 OA
ATOM     27  C   UNL     1     105.893 127.289 143.394  0.00  0.00    +0.000 A 
ATOM     28  C   UNL     1     106.506 127.406 142.853  0.00  0.00    +0.000 A 
ATOM     29  C   UNL     1     105.151 127.621 143.255  0.00  0.00    +0.000 A 
ATOM     30  C   UNL     1     106.375 127.855 142.174  0.00  0.00    +0.000 A 
ATOM     31  C   UNL     1     105.021 128.071 142.576  0.00  0.00    +0.000 A 
ATOM     32  C   UNL     1     105.633 128.188 142.035  0.00  0.00    +0.000 A 
ENDBRANCH  10  27
TORSDOF 3
ENDMDL
MODEL 6
REMARK VINA RESULT:      -9.3      7.115      8.212
REMARK  Name = 131752183
REMARK  3 active torsions:
REMARK  status: ('A' for Active; 'I' for Inactive)
REMARK    1  A    between atoms: C_12  and  C_17
REMARK    2  A    between atoms: C_16  and  C_22
REMARK    3  A    between atoms: C_23  and  C_27
REMARK                            x       y       z     vdW  Elec       q    Type
REMARK                         _______ _______ _______ _____ _____    ______ ____
ROOT
ATOM      1  O   UNL     1     110.224 126.781 136.322  0.00  0.00    +0.000 OA
ATOM      2  O   UNL     1     110.844 129.605 136.442  0.00  0.00    +0.000 OA
ATOM      3  O   UNL     1     112.405 127.037 136.756  0.00  0.00    +0.000 OA
ATOM      4  O   UNL     1     108.167 128.757 135.910  0.00  0.00    +0.000 OA
ATOM      5  C   UNL     1     109.506 129.181 136.176  0.00  0.00    +0.000 A 
ATOM      6  C   UNL     1     110.535 128.212 136.382  0.00  0.00    +0.000 A 
ATOM      7  C   UNL     1     110.295 128.999 136.333  0.00  0.00    +0.000 A 
ATOM      8  C   UNL     1     111.360 128.035 136.547  0.00  0.00    +0.000 C 
ATOM      9  C   UNL     1     111.616 127.216 136.599  0.00  0.00    +0.000 C 
ATOM     10  C   UNL     1     111.044 126.585 136.485  0.00  0.00    +0.000 C 
ATOM     11  C   UNL     1     109.986 127.606 136.273  0.00  0.00    +0.000 A 
ATOM     12  C   UNL     1     108.957 128.575 136.067  0.00  0.00    +0.000 A 
ATOM     13  C   UNL     1     109.197 127.787 136.116  0.00  0.00    +0.000 A 
ENDROOT
BRANCH   5  18
ATOM     14  O   UNL     1     109.053 130.379 136.811  0.00  0.00    +0.000 OA
ATOM     15  O   UNL     1     109.451 129.937 134.710  0.00  0.00    +0.000 OA
ATOM     16  O   UNL     1     108.971 131.513 134.612  0.00  0.00    +0.000 OA
ATOM     17  O   UNL     1     108.546 132.332 135.979  0.00  0.00    +0.000 OA
ATOM     18  C   UNL     1     109.266 129.968 136.127  0.00  0.00    +0.000 C 
ATOM     19  C   UNL     1     109.238 130.347 135.394  0.00  0.00    +0.000 C 
ATOM     20  C   UNL     1     108.998 131.135 135.345  0.00  0.00    +0.000 C 
ATOM     21  C   UNL     1     108.786 131.544 136.029  0.00  0.00    +0.000 C 
ATOM     22  C   UNL     1     108.813 131.166 136.762  0.00  0.00    +0.000 C 
BRANCH  22  24
ATOM     23  O   UNL     1     108.223 131.180 138.063  0.00  0.00    +0.000 OA
ATOM     24  C   UNL     1     108.601 131.576 137.445  0.00  0.00    +0.000 C 
ENDBRANCH  22  24
ENDBRANCH   5  18
BRANCH  10  27
ATOM     25  O   UNL     1     111.502 124.227 138.034  0.00  0.00    +0.000 OA
ATOM     26  O   UNL     1     111.990 123.429 136.676  0.00  0.00    +0.000 OA
ATOM     27  C   UNL     1     111.280 125.796 136.533  0.00  0.00    +0.000 A 
ATOM     28  C   UNL     1     111.273 125.406 137.260  0.00  0.00    +0.000 A 
ATOM     29  C   UNL     1     111.525 125.397 135.854  0.00  0.00    +0.000 A 
ATOM     30  C   UNL     1     111.509 124.617 137.308  0.00  0.00    +0.000 A 
ATOM     31  C   UNL     1     111.761 124.608 135.901  0.00  0.00    +0.000 A 
ATOM     32  C   UNL     1     111.753 124.218 136.628  0.00  0.00    +0.000 A 
ENDBRANCH  10  27
TORSDOF 3
ENDMDL
MODEL 7
REMARK VINA RESULT:      -9.3      2.808      6.556
REMARK  Name = 131752183
REMARK  3 active torsions:
REMARK  status: ('A' for Active; 'I' for Inactive)
REMARK    1  A    between atoms: C_12  and  C_17
REMARK    2  A    between atoms: C_16  and  C_22
REMARK    3  A    between atoms: C_23  and  C_27
REMARK                            x       y       z     vdW  Elec       q    Type
REMARK                         _______ _______ _______ _____ _____    ______ ____
ROOT
ATOM      1  O   UNL     1     105.951 125.561 145.910  0.00  0.00    +0.000 OA
ATOM      2  O   UNL     1     105.298 124.325 143.376  0.00  0.00    +0.000 OA
ATOM      3  O   UNL     1     104.591 123.818 146.269  0.00  0.00    +0.000 OA
ATOM      4  O   UNL     1     107.018 126.607 143.446  0.00  0.00    +0.000 OA
ATOM      5  C   UNL     1     106.158 125.466 143.410  0.00  0.00    +0.000 A 
ATOM      6  C   UNL     1     105.622 124.937 144.625  0.00  0.00    +0.000 A 
ATOM      7  C   UNL     1     105.692 124.910 143.804  0.00  0.00    +0.000 A 
ATOM      8  C   UNL     1     105.134 124.352 145.023  0.00  0.00    +0.000 C 
ATOM      9  C   UNL     1     105.057 124.376 145.879  0.00  0.00    +0.000 C 
ATOM     10  C   UNL     1     105.468 124.984 146.324  0.00  0.00    +0.000 C 
ATOM     11  C   UNL     1     106.016 125.522 145.053  0.00  0.00    +0.000 A 
ATOM     12  C   UNL     1     106.552 126.050 143.838  0.00  0.00    +0.000 A 
ATOM     13  C   UNL     1     106.482 126.078 144.661  0.00  0.00    +0.000 A 
ENDROOT
BRANCH   5  18
ATOM     14  O   UNL     1     106.777 124.931 142.239  0.00  0.00    +0.000 OA
ATOM     15  O   UNL     1     105.201 126.424 142.467  0.00  0.00    +0.000 OA
ATOM     16  O   UNL     1     105.342 126.369 140.824  0.00  0.00    +0.000 OA
ATOM     17  O   UNL     1     106.439 125.356 140.125  0.00  0.00    +0.000 OA
ATOM     18  C   UNL     1     106.228 125.438 142.589  0.00  0.00    +0.000 C 
ATOM     19  C   UNL     1     105.750 125.917 142.118  0.00  0.00    +0.000 C 
ATOM     20  C   UNL     1     105.820 125.890 141.296  0.00  0.00    +0.000 C 
ATOM     21  C   UNL     1     106.369 125.383 140.946  0.00  0.00    +0.000 C 
ATOM     22  C   UNL     1     106.847 124.904 141.418  0.00  0.00    +0.000 C 
BRANCH  22  24
ATOM     23  O   UNL     1     108.129 124.272 141.425  0.00  0.00    +0.000 OA
ATOM     24  C   UNL     1     107.396 124.397 141.068  0.00  0.00    +0.000 C 
ENDBRANCH  22  24
ENDBRANCH   5  18
BRANCH  10  27
ATOM     25  O   UNL     1     106.460 124.311 148.919  0.00  0.00    +0.000 OA
ATOM     26  O   UNL     1     105.193 125.109 149.612  0.00  0.00    +0.000 OA
ATOM     27  C   UNL     1     105.400 125.015 147.147  0.00  0.00    +0.000 A 
ATOM     28  C   UNL     1     105.964 124.648 147.622  0.00  0.00    +0.000 A 
ATOM     29  C   UNL     1     104.766 125.415 147.492  0.00  0.00    +0.000 A 
ATOM     30  C   UNL     1     105.895 124.679 148.444  0.00  0.00    +0.000 A 
ATOM     31  C   UNL     1     104.697 125.446 148.314  0.00  0.00    +0.000 A 
ATOM     32  C   UNL     1     105.262 125.078 148.790  0.00  0.00    +0.000 A 
ENDBRANCH  10  27
TORSDOF 3
ENDMDL
MODEL 8
REMARK VINA RESULT:      -9.2      7.651      8.757
REMARK  Name = 131752183
REMARK  3 active torsions:
REMARK  status: ('A' for Active; 'I' for Inactive)
REMARK    1  A    between atoms: C_12  and  C_17
REMARK    2  A    between atoms: C_16  and  C_22
REMARK    3  A    between atoms: C_23  and  C_27
REMARK                            x       y       z     vdW  Elec       q    Type
REMARK                         _______ _______ _______ _____ _____    ______ ____
ROOT
ATOM      1  O   UNL     1     110.157 128.075 135.316  0.00  0.00    +0.000 OA
ATOM      2  O   UNL     1     111.997 126.890 137.209  0.00  0.00    +0.000 OA
ATOM      3  O   UNL     1     110.775 129.625 136.809  0.00  0.00    +0.000 OA
ATOM      4  O   UNL     1     110.915 125.304 135.092  0.00  0.00    +0.000 OA
ATOM      5  C   UNL     1     111.456 126.097 136.151  0.00  0.00    +0.000 A 
ATOM      6  C   UNL     1     111.088 127.472 136.273  0.00  0.00    +0.000 A 
ATOM      7  C   UNL     1     111.513 126.820 136.544  0.00  0.00    +0.000 A 
ATOM      8  C   UNL     1     111.157 128.220 136.692  0.00  0.00    +0.000 C 
ATOM      9  C   UNL     1     110.716 128.903 136.414  0.00  0.00    +0.000 C 
ATOM     10  C   UNL     1     110.213 128.830 135.721  0.00  0.00    +0.000 C 
ATOM     11  C   UNL     1     110.605 127.402 135.608  0.00  0.00    +0.000 A 
ATOM     12  C   UNL     1     110.973 126.027 135.486  0.00  0.00    +0.000 A 
ATOM     13  C   UNL     1     110.547 126.680 135.214  0.00  0.00    +0.000 A 
ENDROOT
BRANCH   5  18
ATOM     14  O   UNL     1     112.660 125.327 136.175  0.00  0.00    +0.000 OA
ATOM     15  O   UNL     1     110.751 125.026 137.190  0.00  0.00    +0.000 OA
ATOM     16  O   UNL     1     111.602 123.721 137.733  0.00  0.00    +0.000 OA
ATOM     17  O   UNL     1     113.157 123.486 137.237  0.00  0.00    +0.000 OA
ATOM     18  C   UNL     1     111.881 125.445 136.422  0.00  0.00    +0.000 C 
ATOM     19  C   UNL     1     111.529 124.909 136.941  0.00  0.00    +0.000 C 
ATOM     20  C   UNL     1     111.954 124.256 137.213  0.00  0.00    +0.000 C 
ATOM     21  C   UNL     1     112.732 124.139 136.965  0.00  0.00    +0.000 C 
ATOM     22  C   UNL     1     113.085 124.674 136.446  0.00  0.00    +0.000 C 
BRANCH  22  24
ATOM     23  O   UNL     1     114.377 125.198 136.134  0.00  0.00    +0.000 OA
ATOM     24  C   UNL     1     113.862 124.557 136.198  0.00  0.00    +0.000 C 
ENDBRANCH  22  24
ENDBRANCH   5  18
BRANCH  10  27
ATOM     25  O   UNL     1     107.839 130.422 135.743  0.00  0.00    +0.000 OA
ATOM     26  O   UNL     1     108.506 131.433 134.623  0.00  0.00    +0.000 OA
ATOM     27  C   UNL     1     109.786 129.481 135.447  0.00  0.00    +0.000 A 
ATOM     28  C   UNL     1     109.025 129.626 135.733  0.00  0.00    +0.000 A 
ATOM     29  C   UNL     1     110.120 129.986 134.887  0.00  0.00    +0.000 A 
ATOM     30  C   UNL     1     108.599 130.277 135.458  0.00  0.00    +0.000 A 
ATOM     31  C   UNL     1     109.693 130.637 134.612  0.00  0.00    +0.000 A 
ATOM     32  C   UNL     1     108.933 130.782 134.898  0.00  0.00    +0.000 A 
ENDBRANCH  10  27
TORSDOF 3
ENDMDL
MODEL 9
REMARK VINA RESULT:      -9.2      4.629      6.060
REMARK  Name = 131752183
REMARK  3 active torsions:
REMARK  status: ('A' for Active; 'I' for Inactive)
REMARK    1  A    between atoms: C_12  and  C_17
REMARK    2  A    between atoms: C_16  and  C_22
REMARK    3  A    between atoms: C_23  and  C_27
REMARK                            x       y       z     vdW  Elec       q    Type
REMARK                         _______ _______ _______ _____ _____    ______ ____
ROOT
ATOM      1  O   UNL     1     105.707 127.041 143.880  0.00  0.00    +0.000 OA
ATOM      2  O   UNL     1     106.207 127.125 146.729  0.00  0.00    +0.000 OA
ATOM      3  O   UNL     1     105.458 129.144 144.610  0.00  0.00    +0.000 OA
ATOM      4  O   UNL     1     106.401 124.645 145.322  0.00  0.00    +0.000 OA
ATOM      5  C   UNL     1     106.304 125.885 146.026  0.00  0.00    +0.000 A 
ATOM      6  C   UNL     1     105.961 127.081 145.323  0.00  0.00    +0.000 A 
ATOM      7  C   UNL     1     106.157 126.697 146.026  0.00  0.00    +0.000 A 
ATOM      8  C   UNL     1     105.810 127.927 145.336  0.00  0.00    +0.000 C 
ATOM      9  C   UNL     1     105.605 128.332 144.607  0.00  0.00    +0.000 C 
ATOM     10  C   UNL     1     105.553 127.886 143.874  0.00  0.00    +0.000 C 
ATOM     11  C   UNL     1     105.911 126.653 144.619  0.00  0.00    +0.000 A 
ATOM     12  C   UNL     1     106.255 125.457 145.322  0.00  0.00    +0.000 A 
ATOM     13  C   UNL     1     106.058 125.841 144.619  0.00  0.00    +0.000 A 
ENDROOT
BRANCH   5  18
ATOM     14  O   UNL     1     107.286 125.481 146.983  0.00  0.00    +0.000 OA
ATOM     15  O   UNL     1     105.128 125.155 146.924  0.00  0.00    +0.000 OA
ATOM     16  O   UNL     1     105.521 124.387 148.331  0.00  0.00    +0.000 OA
ATOM     17  O   UNL     1     107.090 124.349 148.838  0.00  0.00    +0.000 OA
ATOM     18  C   UNL     1     106.501 125.501 146.729  0.00  0.00    +0.000 C 
ATOM     19  C   UNL     1     105.913 125.136 147.178  0.00  0.00    +0.000 C 
ATOM     20  C   UNL     1     106.109 124.752 147.882  0.00  0.00    +0.000 C 
ATOM     21  C   UNL     1     106.894 124.733 148.135  0.00  0.00    +0.000 C 
ATOM     22  C   UNL     1     107.482 125.098 147.686  0.00  0.00    +0.000 C 
BRANCH  22  24
ATOM     23  O   UNL     1     108.880 125.125 147.390  0.00  0.00    +0.000 OA
ATOM     24  C   UNL     1     108.266 125.078 147.940  0.00  0.00    +0.000 C 
ENDBRANCH  22  24
ENDBRANCH   5  18
BRANCH  10  27
ATOM     25  O   UNL     1     106.342 129.055 141.388  0.00  0.00    +0.000 OA
ATOM     26  O   UNL     1     104.765 129.409 141.054  0.00  0.00    +0.000 OA
ATOM     27  C   UNL     1     105.357 128.267 143.169  0.00  0.00    +0.000 A 
ATOM     28  C   UNL     1     105.948 128.471 142.631  0.00  0.00    +0.000 A 
ATOM     29  C   UNL     1     104.568 128.444 143.002  0.00  0.00    +0.000 A 
ATOM     30  C   UNL     1     105.750 128.851 141.926  0.00  0.00    +0.000 A 
ATOM     31  C   UNL     1     104.371 128.825 142.297  0.00  0.00    +0.000 A 
ATOM     32  C   UNL     1     104.962 129.028 141.759  0.00  0.00    +0.000 A 
ENDBRANCH  10  27
TORSDOF 3
ENDMDL
MODEL 10
REMARK VINA RESULT:      -9.1      4.346      7.012
REMARK  Name = 131752183
REMARK  3 active torsions:
REMARK  status: ('A' for Active; 'I' for Inactive)
REMARK    1  A    between atoms: C_12  and  C_17
REMARK    2  A    between atoms: C_16  and  C_22
REMARK    3  A    between atoms: C_23  and  C_27
REMARK                            x       y       z     vdW  Elec       q    Type
REMARK                         _______ _______ _______ _____ _____    ______ ____
ROOT
ATOM      1  O   UNL     1     106.816 126.426 146.498  0.00  0.00    +0.000 OA
ATOM      2  O   UNL     1     105.570 126.165 143.900  0.00  0.00    +0.000 OA
ATOM      3  O   UNL     1     105.981 124.359 146.286  0.00  0.00    +0.000 OA
ATOM      4  O   UNL     1     106.790 128.638 144.652  0.00  0.00    +0.000 OA
ATOM      5  C   UNL     1     106.180 127.401 144.275  0.00  0.00    +0.000 A 
ATOM      6  C   UNL     1     106.186 126.297 145.182  0.00  0.00    +0.000 A 
ATOM      7  C   UNL     1     105.979 126.621 144.453  0.00  0.00    +0.000 A 
ATOM      8  C   UNL     1     105.971 125.482 145.354  0.00  0.00    +0.000 C 
ATOM      9  C   UNL     1     106.184 125.139 146.112  0.00  0.00    +0.000 C 
ATOM     10  C   UNL     1     106.609 125.614 146.688  0.00  0.00    +0.000 C 
ATOM     11  C   UNL     1     106.595 126.753 145.735  0.00  0.00    +0.000 A 
ATOM     12  C   UNL     1     106.589 127.857 144.828  0.00  0.00    +0.000 A 
ATOM     13  C   UNL     1     106.796 127.533 145.559  0.00  0.00    +0.000 A 
ENDROOT
BRANCH   5  18
ATOM     14  O   UNL     1     105.236 128.083 143.447  0.00  0.00    +0.000 OA
ATOM     15  O   UNL     1     107.240 127.336 143.013  0.00  0.00    +0.000 OA
ATOM     16  O   UNL     1     106.826 127.985 141.553  0.00  0.00    +0.000 OA
ATOM     17  O   UNL     1     105.353 128.699 141.357  0.00  0.00    +0.000 OA
ATOM     18  C   UNL     1     105.973 127.726 143.546  0.00  0.00    +0.000 C 
ATOM     19  C   UNL     1     106.503 127.693 142.915  0.00  0.00    +0.000 C 
ATOM     20  C   UNL     1     106.296 128.018 142.185  0.00  0.00    +0.000 C 
ATOM     21  C   UNL     1     105.559 128.375 142.087  0.00  0.00    +0.000 C 
ATOM     22  C   UNL     1     105.029 128.408 142.718  0.00  0.00    +0.000 C 
BRANCH  22  24
ATOM     23  O   UNL     1     104.033 129.333 143.159  0.00  0.00    +0.000 OA
ATOM     24  C   UNL     1     104.293 128.765 142.620  0.00  0.00    +0.000 C 
ENDBRANCH  22  24
ENDBRANCH   5  18
BRANCH  10  27
ATOM     25  O   UNL     1     108.608 124.640 148.485  0.00  0.00    +0.000 OA
ATOM     26  O   UNL     1     107.443 124.329 149.612  0.00  0.00    +0.000 OA
ATOM     27  C   UNL     1     106.818 125.292 147.419  0.00  0.00    +0.000 A 
ATOM     28  C   UNL     1     107.609 125.127 147.587  0.00  0.00    +0.000 A 
ATOM     29  C   UNL     1     106.236 125.137 147.982  0.00  0.00    +0.000 A 
ATOM     30  C   UNL     1     107.817 124.806 148.318  0.00  0.00    +0.000 A 
ATOM     31  C   UNL     1     106.444 124.816 148.713  0.00  0.00    +0.000 A 
ATOM     32  C   UNL     1     107.234 124.650 148.881  0.00  0.00    +0.000 A 
ENDBRANCH  10  27
TORSDOF 3
ENDMDL
