MODEL 1
REMARK VINA RESULT:     -10.6      0.000      0.000
REMARK  Name = 44257961
REMARK  6 active torsions:
REMARK  status: ('A' for Active; 'I' for Inactive)
REMARK    1  A    between atoms: O_2  and  C_16
REMARK    2  A    between atoms: O_2  and  C_28
REMARK    3  A    between atoms: C_18  and  C_21
REMARK    4  A    between atoms: C_20  and  C_22
REMARK    5  A    between atoms: C_28  and  C_30
REMARK    6  A    between atoms: C_32  and  C_35
REMARK                            x       y       z     vdW  Elec       q    Type
REMARK                         _______ _______ _______ _____ _____    ______ ____
ROOT
ATOM      1  O   UNL     1     107.372 125.634 147.189  0.00  0.00    +0.000 OA
ATOM      2  O   UNL     1     105.696 124.234 148.352  0.00  0.00    +0.000 OA
ATOM      3  O   UNL     1     107.276 124.189 148.821  0.00  0.00    +0.000 OA
ATOM      4  C   UNL     1     106.022 125.190 147.342  0.00  0.00    +0.000 C 
ATOM      5  C   UNL     1     106.255 124.701 147.965  0.00  0.00    +0.000 C 
ATOM      6  C   UNL     1     106.581 125.657 146.954  0.00  0.00    +0.000 C 
ATOM      7  C   UNL     1     107.045 124.678 148.199  0.00  0.00    +0.000 C 
ATOM      8  C   UNL     1     107.603 125.145 147.811  0.00  0.00    +0.000 C 
ENDROOT
BRANCH   6  13
ATOM      9  O   UNL     1     106.727 125.133 145.396  0.00  0.00    +0.000 OA
ATOM     10  O   UNL     1     105.973 127.158 147.266  0.00  0.00    +0.000 OA
ATOM     11  O   UNL     1     105.644 127.643 144.445  0.00  0.00    +0.000 OA
ATOM     12  O   UNL     1     106.579 125.337 143.976  0.00  0.00    +0.000 OA
ATOM     13  C   UNL     1     106.350 126.146 146.332  0.00  0.00    +0.000 A 
ATOM     14  C   UNL     1     106.423 125.884 145.552  0.00  0.00    +0.000 A 
ATOM     15  C   UNL     1     106.046 126.897 146.488  0.00  0.00    +0.000 A 
ATOM     16  C   UNL     1     106.192 126.373 144.930  0.00  0.00    +0.000 A 
ATOM     17  C   UNL     1     105.815 127.386 145.864  0.00  0.00    +0.000 A 
ATOM     18  C   UNL     1     105.888 127.124 145.086  0.00  0.00    +0.000 A 
ATOM     19  C   UNL     1     106.273 126.090 144.123  0.00  0.00    +0.000 A 
ATOM     20  C   UNL     1     106.035 126.594 143.470  0.00  0.00    +0.000 A 
ATOM     21  C   UNL     1     105.718 127.376 143.632  0.00  0.00    +0.000 A 
BRANCH  21  24
ATOM     22  O   UNL     1     106.391 129.007 141.383  0.00  0.00    +0.000 OA
ATOM     23  O   UNL     1     104.792 129.341 141.148  0.00  0.00    +0.000 OA
ATOM     24  C   UNL     1     105.486 127.867 143.011  0.00  0.00    +0.000 A 
ATOM     25  C   UNL     1     106.054 128.191 142.508  0.00  0.00    +0.000 A 
ATOM     26  C   UNL     1     104.688 128.035 142.893  0.00  0.00    +0.000 A 
ATOM     27  C   UNL     1     105.823 128.683 141.886  0.00  0.00    +0.000 A 
ATOM     28  C   UNL     1     104.456 128.526 142.272  0.00  0.00    +0.000 A 
ATOM     29  C   UNL     1     105.024 128.850 141.769  0.00  0.00    +0.000 A 
ENDBRANCH  21  24
ENDBRANCH   6  13
BRANCH   8  31
ATOM     30  O   UNL     1     108.993 125.196 147.482  0.00  0.00    +0.000 OA
ATOM     31  C   UNL     1     108.394 125.122 148.046  0.00  0.00    +0.000 C 
ENDBRANCH   8  31
BRANCH   4  32
ATOM     32  O   UNL     1     105.232 125.213 147.107  0.00  0.00    +0.000 OA
BRANCH  32  34
ATOM     33  O   UNL     1     105.158 123.785 147.125  0.00  0.00    +0.000 OA
ATOM     34  C   UNL     1     104.784 124.520 147.103  0.00  0.00    +0.000 C 
BRANCH  34  38
ATOM     35  O   UNL     1     102.313 123.873 145.820  0.00  0.00    +0.000 OA
ATOM     36  O   UNL     1     102.313 125.421 148.222  0.00  0.00    +0.000 OA
ATOM     37  O   UNL     1     101.490 124.690 146.994  0.00  0.00    +0.000 OA
ATOM     38  C   UNL     1     103.959 124.563 147.075  0.00  0.00    +0.000 A 
ATOM     39  C   UNL     1     103.548 124.971 147.662  0.00  0.00    +0.000 A 
ATOM     40  C   UNL     1     103.548 124.197 146.461  0.00  0.00    +0.000 A 
ATOM     41  C   UNL     1     102.725 124.239 146.434  0.00  0.00    +0.000 A 
ATOM     42  C   UNL     1     102.724 125.013 147.635  0.00  0.00    +0.000 A 
ATOM     43  C   UNL     1     102.312 124.647 147.021  0.00  0.00    +0.000 A 
ENDBRANCH  34  38
ENDBRANCH  32  34
ENDBRANCH   4  32
TORSDOF 6
ENDMDL
MODEL 2
REMARK VINA RESULT:     -10.6      7.934     10.615
REMARK  Name = 44257961
REMARK  6 active torsions:
REMARK  status: ('A' for Active; 'I' for Inactive)
REMARK    1  A    between atoms: O_2  and  C_16
REMARK    2  A    between atoms: O_2  and  C_28
REMARK    3  A    between atoms: C_18  and  C_21
REMARK    4  A    between atoms: C_20  and  C_22
REMARK    5  A    between atoms: C_28  and  C_30
REMARK    6  A    between atoms: C_32  and  C_35
REMARK                            x       y       z     vdW  Elec       q    Type
REMARK                         _______ _______ _______ _____ _____    ______ ____
ROOT
ATOM      1  O   UNL     1     113.983 125.962 137.296  0.00  0.00    +0.000 OA
ATOM      2  O   UNL     1     111.897 124.653 137.047  0.00  0.00    +0.000 OA
ATOM      3  O   UNL     1     113.276 124.162 136.286  0.00  0.00    +0.000 OA
ATOM      4  C   UNL     1     112.598 125.772 137.594  0.00  0.00    +0.000 C 
ATOM      5  C   UNL     1     112.593 125.089 137.130  0.00  0.00    +0.000 C 
ATOM      6  C   UNL     1     113.293 126.208 137.677  0.00  0.00    +0.000 C 
ATOM      7  C   UNL     1     113.281 124.844 136.749  0.00  0.00    +0.000 C 
ATOM      8  C   UNL     1     113.976 125.280 136.833  0.00  0.00    +0.000 C 
ENDROOT
BRANCH   6  13
ATOM      9  O   UNL     1     113.828 126.139 139.237  0.00  0.00    +0.000 OA
ATOM     10  O   UNL     1     112.771 127.641 137.047  0.00  0.00    +0.000 OA
ATOM     11  O   UNL     1     113.314 128.971 139.544  0.00  0.00    +0.000 OA
ATOM     12  O   UNL     1     114.113 126.768 140.503  0.00  0.00    +0.000 OA
ATOM     13  C   UNL     1     113.299 126.890 138.141  0.00  0.00    +0.000 A 
ATOM     14  C   UNL     1     113.567 126.855 138.922  0.00  0.00    +0.000 A 
ATOM     15  C   UNL     1     113.038 127.606 137.826  0.00  0.00    +0.000 A 
ATOM     16  C   UNL     1     113.573 127.538 139.385  0.00  0.00    +0.000 A 
ATOM     17  C   UNL     1     113.045 128.288 138.291  0.00  0.00    +0.000 A 
ATOM     18  C   UNL     1     113.312 128.254 139.070  0.00  0.00    +0.000 A 
ATOM     19  C   UNL     1     113.854 127.489 140.196  0.00  0.00    +0.000 A 
ATOM     20  C   UNL     1     113.864 128.196 140.685  0.00  0.00    +0.000 A 
ATOM     21  C   UNL     1     113.592 128.941 140.356  0.00  0.00    +0.000 A 
BRANCH  21  24
ATOM     22  O   UNL     1     114.858 131.375 141.162  0.00  0.00    +0.000 OA
ATOM     23  O   UNL     1     113.614 131.676 142.205  0.00  0.00    +0.000 OA
ATOM     24  C   UNL     1     113.597 129.625 140.819  0.00  0.00    +0.000 A 
ATOM     25  C   UNL     1     114.224 130.158 140.759  0.00  0.00    +0.000 A 
ATOM     26  C   UNL     1     112.976 129.776 141.340  0.00  0.00    +0.000 A 
ATOM     27  C   UNL     1     114.231 130.842 141.221  0.00  0.00    +0.000 A 
ATOM     28  C   UNL     1     112.982 130.459 141.802  0.00  0.00    +0.000 A 
ATOM     29  C   UNL     1     113.609 130.992 141.743  0.00  0.00    +0.000 A 
ENDBRANCH  21  24
ENDBRANCH   6  13
BRANCH   8  31
ATOM     30  O   UNL     1     115.176 125.595 136.123  0.00  0.00    +0.000 OA
ATOM     31  C   UNL     1     114.666 125.035 136.452  0.00  0.00    +0.000 C 
ENDBRANCH   8  31
BRANCH   4  32
ATOM     32  O   UNL     1     111.909 126.017 137.975  0.00  0.00    +0.000 OA
BRANCH  32  34
ATOM     33  O   UNL     1     111.559 124.654 138.223  0.00  0.00    +0.000 OA
ATOM     34  C   UNL     1     111.381 125.458 138.274  0.00  0.00    +0.000 C 
BRANCH  34  38
ATOM     35  O   UNL     1     108.785 126.631 138.049  0.00  0.00    +0.000 OA
ATOM     36  O   UNL     1     109.740 125.752 140.595  0.00  0.00    +0.000 OA
ATOM     37  O   UNL     1     108.556 126.436 139.672  0.00  0.00    +0.000 OA
ATOM     38  C   UNL     1     110.674 125.703 138.623  0.00  0.00    +0.000 A 
ATOM     39  C   UNL     1     110.561 125.605 139.434  0.00  0.00    +0.000 A 
ATOM     40  C   UNL     1     110.082 126.045 138.162  0.00  0.00    +0.000 A 
ATOM     41  C   UNL     1     109.377 126.289 138.511  0.00  0.00    +0.000 A 
ATOM     42  C   UNL     1     109.854 125.850 139.784  0.00  0.00    +0.000 A 
ATOM     43  C   UNL     1     109.262 126.192 139.322  0.00  0.00    +0.000 A 
ENDBRANCH  34  38
ENDBRANCH  32  34
ENDBRANCH   4  32
TORSDOF 6
ENDMDL
MODEL 3
REMARK VINA RESULT:     -10.2      3.261      6.251
REMARK  Name = 44257961
REMARK  6 active torsions:
REMARK  status: ('A' for Active; 'I' for Inactive)
REMARK    1  A    between atoms: O_2  and  C_16
REMARK    2  A    between atoms: O_2  and  C_28
REMARK    3  A    between atoms: C_18  and  C_21
REMARK    4  A    between atoms: C_20  and  C_22
REMARK    5  A    between atoms: C_28  and  C_30
REMARK    6  A    between atoms: C_32  and  C_35
REMARK                            x       y       z     vdW  Elec       q    Type
REMARK                         _______ _______ _______ _____ _____    ______ ____
ROOT
ATOM      1  O   UNL     1     105.333 126.876 143.286  0.00  0.00    +0.000 OA
ATOM      2  O   UNL     1     107.700 127.100 142.598  0.00  0.00    +0.000 OA
ATOM      3  O   UNL     1     107.151 125.671 143.213  0.00  0.00    +0.000 OA
ATOM      4  C   UNL     1     106.397 127.665 142.748  0.00  0.00    +0.000 C 
ATOM      5  C   UNL     1     106.911 127.025 142.827  0.00  0.00    +0.000 C 
ATOM      6  C   UNL     1     105.608 127.591 142.978  0.00  0.00    +0.000 C 
ATOM      7  C   UNL     1     106.637 126.311 143.134  0.00  0.00    +0.000 C 
ATOM      8  C   UNL     1     105.848 126.236 143.364  0.00  0.00    +0.000 C 
ENDROOT
BRANCH   6  13
ATOM      9  O   UNL     1     104.826 127.850 141.548  0.00  0.00    +0.000 OA
ATOM     10  O   UNL     1     105.359 128.611 144.250  0.00  0.00    +0.000 OA
ATOM     11  O   UNL     1     103.528 130.179 142.673  0.00  0.00    +0.000 OA
ATOM     12  O   UNL     1     103.916 128.608 140.725  0.00  0.00    +0.000 OA
ATOM     13  C   UNL     1     105.093 128.230 142.900  0.00  0.00    +0.000 A 
ATOM     14  C   UNL     1     104.702 128.360 142.184  0.00  0.00    +0.000 A 
ATOM     15  C   UNL     1     104.968 128.740 143.536  0.00  0.00    +0.000 A 
ATOM     16  C   UNL     1     104.187 128.999 142.106  0.00  0.00    +0.000 A 
ATOM     17  C   UNL     1     104.453 129.380 143.457  0.00  0.00    +0.000 A 
ATOM     18  C   UNL     1     104.062 129.509 142.743  0.00  0.00    +0.000 A 
ATOM     19  C   UNL     1     103.785 129.124 141.356  0.00  0.00    +0.000 A 
ATOM     20  C   UNL     1     103.248 129.788 141.268  0.00  0.00    +0.000 A 
ATOM     21  C   UNL     1     103.118 130.319 141.931  0.00  0.00    +0.000 A 
BRANCH  21  24
ATOM     22  O   UNL     1     102.670 133.076 141.325  0.00  0.00    +0.000 OA
ATOM     23  O   UNL     1     101.059 132.881 141.627  0.00  0.00    +0.000 OA
ATOM     24  C   UNL     1     102.603 130.959 141.855  0.00  0.00    +0.000 A 
ATOM     25  C   UNL     1     102.894 131.697 141.628  0.00  0.00    +0.000 A 
ATOM     26  C   UNL     1     101.798 130.862 142.006  0.00  0.00    +0.000 A 
ATOM     27  C   UNL     1     102.379 132.338 141.552  0.00  0.00    +0.000 A 
ATOM     28  C   UNL     1     101.284 131.502 141.930  0.00  0.00    +0.000 A 
ATOM     29  C   UNL     1     101.574 132.240 141.703  0.00  0.00    +0.000 A 
ENDBRANCH  21  24
ENDBRANCH   6  13
BRANCH   8  31
ATOM     30  O   UNL     1     105.171 125.511 144.392  0.00  0.00    +0.000 OA
ATOM     31  C   UNL     1     105.573 125.522 143.671  0.00  0.00    +0.000 C 
ENDBRANCH   8  31
BRANCH   4  32
ATOM     32  O   UNL     1     106.671 128.380 142.441  0.00  0.00    +0.000 OA
BRANCH  32  34
ATOM     33  O   UNL     1     107.921 128.198 143.110  0.00  0.00    +0.000 OA
ATOM     34  C   UNL     1     107.450 128.615 142.577  0.00  0.00    +0.000 C 
BRANCH  34  38
ATOM     35  O   UNL     1     108.555 131.250 142.629  0.00  0.00    +0.000 OA
ATOM     36  O   UNL     1     108.197 129.900 140.136  0.00  0.00    +0.000 OA
ATOM     37  O   UNL     1     108.684 131.229 140.984  0.00  0.00    +0.000 OA
ATOM     38  C   UNL     1     107.759 129.269 142.178  0.00  0.00    +0.000 A 
ATOM     39  C   UNL     1     107.823 129.258 141.356  0.00  0.00    +0.000 A 
ATOM     40  C   UNL     1     108.003 129.933 142.603  0.00  0.00    +0.000 A 
ATOM     41  C   UNL     1     108.311 130.586 142.205  0.00  0.00    +0.000 A 
ATOM     42  C   UNL     1     108.132 129.912 140.958  0.00  0.00    +0.000 A 
ATOM     43  C   UNL     1     108.376 130.576 141.382  0.00  0.00    +0.000 A 
ENDBRANCH  34  38
ENDBRANCH  32  34
ENDBRANCH   4  32
TORSDOF 6
ENDMDL
MODEL 4
REMARK VINA RESULT:     -10.1      7.161     10.024
REMARK  Name = 44257961
REMARK  6 active torsions:
REMARK  status: ('A' for Active; 'I' for Inactive)
REMARK    1  A    between atoms: O_2  and  C_16
REMARK    2  A    between atoms: O_2  and  C_28
REMARK    3  A    between atoms: C_18  and  C_21
REMARK    4  A    between atoms: C_20  and  C_22
REMARK    5  A    between atoms: C_28  and  C_30
REMARK    6  A    between atoms: C_32  and  C_35
REMARK                            x       y       z     vdW  Elec       q    Type
REMARK                         _______ _______ _______ _____ _____    ______ ____
ROOT
ATOM      1  O   UNL     1     110.920 126.281 136.690  0.00  0.00    +0.000 OA
ATOM      2  O   UNL     1     111.222 125.030 138.804  0.00  0.00    +0.000 OA
ATOM      3  O   UNL     1     111.331 124.245 137.358  0.00  0.00    +0.000 OA
ATOM      4  C   UNL     1     110.966 126.257 138.118  0.00  0.00    +0.000 C 
ATOM      5  C   UNL     1     111.121 125.447 138.099  0.00  0.00    +0.000 C 
ATOM      6  C   UNL     1     110.866 126.674 137.414  0.00  0.00    +0.000 C 
ATOM      7  C   UNL     1     111.176 125.054 137.377  0.00  0.00    +0.000 C 
ATOM      8  C   UNL     1     111.076 125.471 136.672  0.00  0.00    +0.000 C 
ENDROOT
BRANCH   6  13
ATOM      9  O   UNL     1     112.098 127.754 137.213  0.00  0.00    +0.000 OA
ATOM     10  O   UNL     1     109.325 127.216 137.650  0.00  0.00    +0.000 OA
ATOM     11  O   UNL     1     110.229 129.947 137.488  0.00  0.00    +0.000 OA
ATOM     12  O   UNL     1     112.590 129.107 137.125  0.00  0.00    +0.000 OA
ATOM     13  C   UNL     1     110.711 127.484 137.432  0.00  0.00    +0.000 A 
ATOM     14  C   UNL     1     111.327 128.024 137.331  0.00  0.00    +0.000 A 
ATOM     15  C   UNL     1     109.941 127.755 137.550  0.00  0.00    +0.000 A 
ATOM     16  C   UNL     1     111.172 128.834 137.349  0.00  0.00    +0.000 A 
ATOM     17  C   UNL     1     109.787 128.566 137.568  0.00  0.00    +0.000 A 
ATOM     18  C   UNL     1     110.402 129.105 137.467  0.00  0.00    +0.000 A 
ATOM     19  C   UNL     1     111.823 129.387 137.243  0.00  0.00    +0.000 A 
ATOM     20  C   UNL     1     111.668 130.231 137.260  0.00  0.00    +0.000 A 
ATOM     21  C   UNL     1     110.866 130.513 137.384  0.00  0.00    +0.000 A 
BRANCH  21  24
ATOM     22  O   UNL     1     110.188 132.871 138.851  0.00  0.00    +0.000 OA
ATOM     23  O   UNL     1     110.237 133.752 137.457  0.00  0.00    +0.000 OA
ATOM     24  C   UNL     1     110.709 131.323 137.402  0.00  0.00    +0.000 A 
ATOM     25  C   UNL     1     110.527 131.692 138.117  0.00  0.00    +0.000 A 
ATOM     26  C   UNL     1     110.733 131.764 136.706  0.00  0.00    +0.000 A 
ATOM     27  C   UNL     1     110.369 132.502 138.136  0.00  0.00    +0.000 A 
ATOM     28  C   UNL     1     110.576 132.574 136.724  0.00  0.00    +0.000 A 
ATOM     29  C   UNL     1     110.394 132.943 137.439  0.00  0.00    +0.000 A 
ENDBRANCH  21  24
ENDBRANCH   6  13
BRANCH   8  31
ATOM     30  O   UNL     1     110.630 125.290 135.326  0.00  0.00    +0.000 OA
ATOM     31  C   UNL     1     111.130 125.079 135.948  0.00  0.00    +0.000 C 
ENDBRANCH   8  31
BRANCH   4  32
ATOM     32  O   UNL     1     110.912 126.650 138.841  0.00  0.00    +0.000 OA
BRANCH  32  34
ATOM     33  O   UNL     1     112.020 125.899 139.341  0.00  0.00    +0.000 OA
ATOM     34  C   UNL     1     111.406 126.435 139.466  0.00  0.00    +0.000 C 
BRANCH  34  38
ATOM     35  O   UNL     1     112.313 128.052 141.641  0.00  0.00    +0.000 OA
ATOM     36  O   UNL     1     109.777 126.742 141.794  0.00  0.00    +0.000 OA
ATOM     37  O   UNL     1     110.924 127.718 142.468  0.00  0.00    +0.000 OA
ATOM     38  C   UNL     1     111.286 126.756 140.217  0.00  0.00    +0.000 A 
ATOM     39  C   UNL     1     110.591 126.589 140.630  0.00  0.00    +0.000 A 
ATOM     40  C   UNL     1     111.859 127.244 140.554  0.00  0.00    +0.000 A 
ATOM     41  C   UNL     1     111.739 127.564 141.304  0.00  0.00    +0.000 A 
ATOM     42  C   UNL     1     110.471 126.910 141.381  0.00  0.00    +0.000 A 
ATOM     43  C   UNL     1     111.045 127.398 141.718  0.00  0.00    +0.000 A 
ENDBRANCH  34  38
ENDBRANCH  32  34
ENDBRANCH   4  32
TORSDOF 6
ENDMDL
MODEL 5
REMARK VINA RESULT:     -10.1     10.194     12.371
REMARK  Name = 44257961
REMARK  6 active torsions:
REMARK  status: ('A' for Active; 'I' for Inactive)
REMARK    1  A    between atoms: O_2  and  C_16
REMARK    2  A    between atoms: O_2  and  C_28
REMARK    3  A    between atoms: C_18  and  C_21
REMARK    4  A    between atoms: C_20  and  C_22
REMARK    5  A    between atoms: C_28  and  C_30
REMARK    6  A    between atoms: C_32  and  C_35
REMARK                            x       y       z     vdW  Elec       q    Type
REMARK                         _______ _______ _______ _____ _____    ______ ____
ROOT
ATOM      1  O   UNL     1     108.880 130.280 136.157  0.00  0.00    +0.000 OA
ATOM      2  O   UNL     1     110.426 132.149 136.651  0.00  0.00    +0.000 OA
ATOM      3  O   UNL     1     108.885 132.462 136.153  0.00  0.00    +0.000 OA
ATOM      4  C   UNL     1     110.167 130.746 136.571  0.00  0.00    +0.000 C 
ATOM      5  C   UNL     1     109.911 131.526 136.486  0.00  0.00    +0.000 C 
ATOM      6  C   UNL     1     109.651 130.123 136.406  0.00  0.00    +0.000 C 
ATOM      7  C   UNL     1     109.141 131.683 136.238  0.00  0.00    +0.000 C 
ATOM      8  C   UNL     1     108.625 131.060 136.073  0.00  0.00    +0.000 C 
ENDROOT
BRANCH   6  13
ATOM      9  O   UNL     1     110.508 129.401 135.195  0.00  0.00    +0.000 OA
ATOM     10  O   UNL     1     109.305 129.285 137.785  0.00  0.00    +0.000 OA
ATOM     11  O   UNL     1     110.677 126.969 136.757  0.00  0.00    +0.000 OA
ATOM     12  O   UNL     1     111.204 128.264 134.645  0.00  0.00    +0.000 OA
ATOM     13  C   UNL     1     109.906 129.343 136.491  0.00  0.00    +0.000 A 
ATOM     14  C   UNL     1     110.335 128.982 135.884  0.00  0.00    +0.000 A 
ATOM     15  C   UNL     1     109.733 128.924 137.180  0.00  0.00    +0.000 A 
ATOM     16  C   UNL     1     110.590 128.202 135.969  0.00  0.00    +0.000 A 
ATOM     17  C   UNL     1     109.988 128.144 137.263  0.00  0.00    +0.000 A 
ATOM     18  C   UNL     1     110.416 127.783 136.658  0.00  0.00    +0.000 A 
ATOM     19  C   UNL     1     111.035 127.837 135.331  0.00  0.00    +0.000 A 
ATOM     20  C   UNL     1     111.304 127.025 135.412  0.00  0.00    +0.000 A 
ATOM     21  C   UNL     1     111.123 126.588 136.129  0.00  0.00    +0.000 A 
BRANCH  21  24
ATOM     22  O   UNL     1     113.042 124.702 137.094  0.00  0.00    +0.000 OA
ATOM     23  O   UNL     1     112.140 123.467 136.475  0.00  0.00    +0.000 OA
ATOM     24  C   UNL     1     111.377 125.808 136.216  0.00  0.00    +0.000 A 
ATOM     25  C   UNL     1     112.082 125.645 136.612  0.00  0.00    +0.000 A 
ATOM     26  C   UNL     1     110.927 125.191 135.907  0.00  0.00    +0.000 A 
ATOM     27  C   UNL     1     112.337 124.865 136.698  0.00  0.00    +0.000 A 
ATOM     28  C   UNL     1     111.180 124.410 135.993  0.00  0.00    +0.000 A 
ATOM     29  C   UNL     1     111.886 124.248 136.389  0.00  0.00    +0.000 A 
ENDBRANCH  21  24
ENDBRANCH   6  13
BRANCH   8  31
ATOM     30  O   UNL     1     107.291 130.613 135.825  0.00  0.00    +0.000 OA
ATOM     31  C   UNL     1     107.855 131.216 135.824  0.00  0.00    +0.000 C 
ENDBRANCH   8  31
BRANCH   4  32
ATOM     32  O   UNL     1     110.937 130.589 136.820  0.00  0.00    +0.000 OA
BRANCH  32  34
ATOM     33  O   UNL     1     110.857 131.659 137.763  0.00  0.00    +0.000 OA
ATOM     34  C   UNL     1     111.297 131.077 137.379  0.00  0.00    +0.000 C 
BRANCH  34  38
ATOM     35  O   UNL     1     113.357 130.264 139.186  0.00  0.00    +0.000 OA
ATOM     36  O   UNL     1     114.042 131.324 136.622  0.00  0.00    +0.000 OA
ATOM     37  O   UNL     1     114.500 130.700 138.079  0.00  0.00    +0.000 OA
ATOM     38  C   UNL     1     112.098 130.982 137.554  0.00  0.00    +0.000 A 
ATOM     39  C   UNL     1     112.670 131.200 137.000  0.00  0.00    +0.000 A 
ATOM     40  C   UNL     1     112.327 130.670 138.283  0.00  0.00    +0.000 A 
ATOM     41  C   UNL     1     113.128 130.576 138.458  0.00  0.00    +0.000 A 
ATOM     42  C   UNL     1     113.471 131.106 137.176  0.00  0.00    +0.000 A 
ATOM     43  C   UNL     1     113.700 130.794 137.904  0.00  0.00    +0.000 A 
ENDBRANCH  34  38
ENDBRANCH  32  34
ENDBRANCH   4  32
TORSDOF 6
ENDMDL
MODEL 6
REMARK VINA RESULT:     -10.0      9.452     11.177
REMARK  Name = 44257961
REMARK  6 active torsions:
REMARK  status: ('A' for Active; 'I' for Inactive)
REMARK    1  A    between atoms: O_2  and  C_16
REMARK    2  A    between atoms: O_2  and  C_28
REMARK    3  A    between atoms: C_18  and  C_21
REMARK    4  A    between atoms: C_20  and  C_22
REMARK    5  A    between atoms: C_28  and  C_30
REMARK    6  A    between atoms: C_32  and  C_35
REMARK                            x       y       z     vdW  Elec       q    Type
REMARK                         _______ _______ _______ _____ _____    ______ ____
ROOT
ATOM      1  O   UNL     1     112.595 125.176 137.251  0.00  0.00    +0.000 OA
ATOM      2  O   UNL     1     110.621 125.448 135.783  0.00  0.00    +0.000 OA
ATOM      3  O   UNL     1     111.370 123.983 135.895  0.00  0.00    +0.000 OA
ATOM      4  C   UNL     1     111.562 126.000 136.705  0.00  0.00    +0.000 C 
ATOM      5  C   UNL     1     111.279 125.358 136.272  0.00  0.00    +0.000 C 
ATOM      6  C   UNL     1     112.220 125.910 137.195  0.00  0.00    +0.000 C 
ATOM      7  C   UNL     1     111.653 124.625 136.328  0.00  0.00    +0.000 C 
ATOM      8  C   UNL     1     112.311 124.535 136.817  0.00  0.00    +0.000 C 
ENDROOT
BRANCH   6  13
ATOM      9  O   UNL     1     111.825 126.067 138.789  0.00  0.00    +0.000 OA
ATOM     10  O   UNL     1     113.183 127.036 136.469  0.00  0.00    +0.000 OA
ATOM     11  O   UNL     1     113.372 128.508 138.938  0.00  0.00    +0.000 OA
ATOM     12  O   UNL     1     111.895 126.774 140.044  0.00  0.00    +0.000 OA
ATOM     13  C   UNL     1     112.504 126.552 137.628  0.00  0.00    +0.000 A 
ATOM     14  C   UNL     1     112.306 126.630 138.426  0.00  0.00    +0.000 A 
ATOM     15  C   UNL     1     112.985 127.115 137.265  0.00  0.00    +0.000 A 
ATOM     16  C   UNL     1     112.590 127.272 138.859  0.00  0.00    +0.000 A 
ATOM     17  C   UNL     1     113.268 127.757 137.700  0.00  0.00    +0.000 A 
ATOM     18  C   UNL     1     113.071 127.835 138.496  0.00  0.00    +0.000 A 
ATOM     19  C   UNL     1     112.377 127.343 139.689  0.00  0.00    +0.000 A 
ATOM     20  C   UNL     1     112.669 128.009 140.146  0.00  0.00    +0.000 A 
ATOM     21  C   UNL     1     113.170 128.595 139.768  0.00  0.00    +0.000 A 
BRANCH  21  24
ATOM     22  O   UNL     1     112.688 131.003 141.232  0.00  0.00    +0.000 OA
ATOM     23  O   UNL     1     114.309 131.167 141.496  0.00  0.00    +0.000 OA
ATOM     24  C   UNL     1     113.455 129.238 140.200  0.00  0.00    +0.000 A 
ATOM     25  C   UNL     1     112.929 129.799 140.500  0.00  0.00    +0.000 A 
ATOM     26  C   UNL     1     114.265 129.320 140.332  0.00  0.00    +0.000 A 
ATOM     27  C   UNL     1     113.214 130.442 140.932  0.00  0.00    +0.000 A 
ATOM     28  C   UNL     1     114.549 129.963 140.764  0.00  0.00    +0.000 A 
ATOM     29  C   UNL     1     114.024 130.524 141.064  0.00  0.00    +0.000 A 
ENDBRANCH  21  24
ENDBRANCH   6  13
BRANCH   8  31
ATOM     30  O   UNL     1     113.500 123.765 137.008  0.00  0.00    +0.000 OA
ATOM     31  C   UNL     1     112.686 123.802 136.874  0.00  0.00    +0.000 C 
ENDBRANCH   8  31
BRANCH   4  32
ATOM     32  O   UNL     1     111.188 126.733 136.649  0.00  0.00    +0.000 OA
BRANCH  32  34
ATOM     33  O   UNL     1     109.909 126.102 136.740  0.00  0.00    +0.000 OA
ATOM     34  C   UNL     1     110.366 126.772 136.592  0.00  0.00    +0.000 C 
BRANCH  34  38
ATOM     35  O   UNL     1     109.645 128.704 134.613  0.00  0.00    +0.000 OA
ATOM     36  O   UNL     1     108.894 129.105 137.341  0.00  0.00    +0.000 OA
ATOM     37  O   UNL     1     108.904 129.615 135.771  0.00  0.00    +0.000 OA
ATOM     38  C   UNL     1     110.000 127.484 136.387  0.00  0.00    +0.000 A 
ATOM     39  C   UNL     1     109.630 127.939 136.966  0.00  0.00    +0.000 A 
ATOM     40  C   UNL     1     110.005 127.739 135.602  0.00  0.00    +0.000 A 
ATOM     41  C   UNL     1     109.640 128.449 135.397  0.00  0.00    +0.000 A 
ATOM     42  C   UNL     1     109.264 128.650 136.761  0.00  0.00    +0.000 A 
ATOM     43  C   UNL     1     109.269 128.905 135.976  0.00  0.00    +0.000 A 
ENDBRANCH  34  38
ENDBRANCH  32  34
ENDBRANCH   4  32
TORSDOF 6
ENDMDL
MODEL 7
REMARK VINA RESULT:      -9.9      9.510     11.197
REMARK  Name = 44257961
REMARK  6 active torsions:
REMARK  status: ('A' for Active; 'I' for Inactive)
REMARK    1  A    between atoms: O_2  and  C_16
REMARK    2  A    between atoms: O_2  and  C_28
REMARK    3  A    between atoms: C_18  and  C_21
REMARK    4  A    between atoms: C_20  and  C_22
REMARK    5  A    between atoms: C_28  and  C_30
REMARK    6  A    between atoms: C_32  and  C_35
REMARK                            x       y       z     vdW  Elec       q    Type
REMARK                         _______ _______ _______ _____ _____    ______ ____
ROOT
ATOM      1  O   UNL     1     109.538 129.817 136.626  0.00  0.00    +0.000 OA
ATOM      2  O   UNL     1     108.782 127.530 136.060  0.00  0.00    +0.000 OA
ATOM      3  O   UNL     1     107.869 128.832 135.623  0.00  0.00    +0.000 OA
ATOM      4  C   UNL     1     109.743 128.403 136.656  0.00  0.00    +0.000 C 
ATOM      5  C   UNL     1     109.034 128.292 136.249  0.00  0.00    +0.000 C 
ATOM      6  C   UNL     1     109.995 129.165 136.845  0.00  0.00    +0.000 C 
ATOM      7  C   UNL     1     108.577 128.943 136.030  0.00  0.00    +0.000 C 
ATOM      8  C   UNL     1     108.829 129.705 136.219  0.00  0.00    +0.000 C 
ENDROOT
BRANCH   6  13
ATOM      9  O   UNL     1     109.980 129.372 138.482  0.00  0.00    +0.000 OA
ATOM     10  O   UNL     1     111.426 129.182 136.024  0.00  0.00    +0.000 OA
ATOM     11  O   UNL     1     112.864 129.617 138.482  0.00  0.00    +0.000 OA
ATOM     12  O   UNL     1     110.663 129.589 139.733  0.00  0.00    +0.000 OA
ATOM     13  C   UNL     1     110.703 129.277 137.252  0.00  0.00    +0.000 A 
ATOM     14  C   UNL     1     110.696 129.381 138.071  0.00  0.00    +0.000 A 
ATOM     15  C   UNL     1     111.419 129.286 136.842  0.00  0.00    +0.000 A 
ATOM     16  C   UNL     1     111.404 129.493 138.479  0.00  0.00    +0.000 A 
ATOM     17  C   UNL     1     112.127 129.398 137.250  0.00  0.00    +0.000 A 
ATOM     18  C   UNL     1     112.120 129.501 138.068  0.00  0.00    +0.000 A 
ATOM     19  C   UNL     1     111.384 129.599 139.332  0.00  0.00    +0.000 A 
ATOM     20  C   UNL     1     112.118 129.717 139.762  0.00  0.00    +0.000 A 
ATOM     21  C   UNL     1     112.863 129.725 139.334  0.00  0.00    +0.000 A 
BRANCH  21  24
ATOM     22  O   UNL     1     114.975 131.447 140.200  0.00  0.00    +0.000 OA
ATOM     23  O   UNL     1     115.702 130.174 140.956  0.00  0.00    +0.000 OA
ATOM     24  C   UNL     1     113.573 129.837 139.740  0.00  0.00    +0.000 A 
ATOM     25  C   UNL     1     113.919 130.586 139.767  0.00  0.00    +0.000 A 
ATOM     26  C   UNL     1     113.937 129.201 140.118  0.00  0.00    +0.000 A 
ATOM     27  C   UNL     1     114.629 130.698 140.173  0.00  0.00    +0.000 A 
ATOM     28  C   UNL     1     114.647 129.313 140.523  0.00  0.00    +0.000 A 
ATOM     29  C   UNL     1     114.993 130.062 140.551  0.00  0.00    +0.000 A 
ENDBRANCH  21  24
ENDBRANCH   6  13
BRANCH   8  31
ATOM     30  O   UNL     1     108.724 131.101 135.932  0.00  0.00    +0.000 OA
ATOM     31  C   UNL     1     108.373 130.357 136.001  0.00  0.00    +0.000 C 
ENDBRANCH   8  31
BRANCH   4  32
ATOM     32  O   UNL     1     110.200 127.752 136.875  0.00  0.00    +0.000 OA
BRANCH  32  34
ATOM     33  O   UNL     1     109.022 127.039 137.259  0.00  0.00    +0.000 OA
ATOM     34  C   UNL     1     109.833 127.050 137.107  0.00  0.00    +0.000 C 
BRANCH  34  38
ATOM     35  O   UNL     1     111.195 124.833 135.926  0.00  0.00    +0.000 OA
ATOM     36  O   UNL     1     111.135 125.124 138.768  0.00  0.00    +0.000 OA
ATOM     37  O   UNL     1     111.609 124.288 137.427  0.00  0.00    +0.000 OA
ATOM     38  C   UNL     1     110.277 126.359 137.187  0.00  0.00    +0.000 A 
ATOM     39  C   UNL     1     110.484 126.087 137.938  0.00  0.00    +0.000 A 
ATOM     40  C   UNL     1     110.515 125.941 136.516  0.00  0.00    +0.000 A 
ATOM     41  C   UNL     1     110.958 125.251 136.596  0.00  0.00    +0.000 A 
ATOM     42  C   UNL     1     110.928 125.396 138.018  0.00  0.00    +0.000 A 
ATOM     43  C   UNL     1     111.166 124.978 137.347  0.00  0.00    +0.000 A 
ENDBRANCH  34  38
ENDBRANCH  32  34
ENDBRANCH   4  32
TORSDOF 6
ENDMDL
MODEL 8
REMARK VINA RESULT:      -9.8      7.879     10.684
REMARK  Name = 44257961
REMARK  6 active torsions:
REMARK  status: ('A' for Active; 'I' for Inactive)
REMARK    1  A    between atoms: O_2  and  C_16
REMARK    2  A    between atoms: O_2  and  C_28
REMARK    3  A    between atoms: C_18  and  C_21
REMARK    4  A    between atoms: C_20  and  C_22
REMARK    5  A    between atoms: C_28  and  C_30
REMARK    6  A    between atoms: C_32  and  C_35
REMARK                            x       y       z     vdW  Elec       q    Type
REMARK                         _______ _______ _______ _____ _____    ______ ____
ROOT
ATOM      1  O   UNL     1     111.578 127.642 140.556  0.00  0.00    +0.000 OA
ATOM      2  O   UNL     1     110.521 125.495 139.926  0.00  0.00    +0.000 OA
ATOM      3  O   UNL     1     110.264 126.132 141.425  0.00  0.00    +0.000 OA
ATOM      4  C   UNL     1     111.354 126.608 139.595  0.00  0.00    +0.000 C 
ATOM      5  C   UNL     1     110.873 126.211 140.136  0.00  0.00    +0.000 C 
ATOM      6  C   UNL     1     111.707 127.323 139.806  0.00  0.00    +0.000 C 
ATOM      7  C   UNL     1     110.745 126.529 140.886  0.00  0.00    +0.000 C 
ATOM      8  C   UNL     1     111.097 127.245 141.096  0.00  0.00    +0.000 C 
ENDROOT
BRANCH   6  13
ATOM      9  O   UNL     1     111.073 128.520 138.863  0.00  0.00    +0.000 OA
ATOM     10  O   UNL     1     113.301 126.923 139.669  0.00  0.00    +0.000 OA
ATOM     11  O   UNL     1     113.659 128.925 137.628  0.00  0.00    +0.000 OA
ATOM     12  O   UNL     1     111.211 129.532 137.845  0.00  0.00    +0.000 OA
ATOM     13  C   UNL     1     112.188 127.721 139.266  0.00  0.00    +0.000 A 
ATOM     14  C   UNL     1     111.870 128.320 138.794  0.00  0.00    +0.000 A 
ATOM     15  C   UNL     1     112.985 127.521 139.198  0.00  0.00    +0.000 A 
ATOM     16  C   UNL     1     112.351 128.717 138.255  0.00  0.00    +0.000 A 
ATOM     17  C   UNL     1     113.465 127.919 138.658  0.00  0.00    +0.000 A 
ATOM     18  C   UNL     1     113.149 128.517 138.187  0.00  0.00    +0.000 A 
ATOM     19  C   UNL     1     112.010 129.339 137.769  0.00  0.00    +0.000 A 
ATOM     20  C   UNL     1     112.505 129.757 137.206  0.00  0.00    +0.000 A 
ATOM     21  C   UNL     1     113.335 129.548 137.135  0.00  0.00    +0.000 A 
BRANCH  21  24
ATOM     22  O   UNL     1     114.679 129.636 134.613  0.00  0.00    +0.000 OA
ATOM     23  O   UNL     1     115.267 131.134 134.978  0.00  0.00    +0.000 OA
ATOM     24  C   UNL     1     113.818 129.945 136.596  0.00  0.00    +0.000 A 
ATOM     25  C   UNL     1     114.007 129.592 135.874  0.00  0.00    +0.000 A 
ATOM     26  C   UNL     1     114.112 130.693 136.778  0.00  0.00    +0.000 A 
ATOM     27  C   UNL     1     114.490 129.988 135.335  0.00  0.00    +0.000 A 
ATOM     28  C   UNL     1     114.595 131.090 136.239  0.00  0.00    +0.000 A 
ATOM     29  C   UNL     1     114.784 130.737 135.517  0.00  0.00    +0.000 A 
ENDBRANCH  21  24
ENDBRANCH   6  13
BRANCH   8  31
ATOM     30  O   UNL     1     111.353 128.260 142.069  0.00  0.00    +0.000 OA
ATOM     31  C   UNL     1     110.969 127.564 141.846  0.00  0.00    +0.000 C 
ENDBRANCH   8  31
BRANCH   4  32
ATOM     32  O   UNL     1     111.483 126.290 138.846  0.00  0.00    +0.000 OA
BRANCH  32  34
ATOM     33  O   UNL     1     110.145 125.788 138.820  0.00  0.00    +0.000 OA
ATOM     34  C   UNL     1     110.898 125.831 138.487  0.00  0.00    +0.000 C 
BRANCH  34  38
ATOM     35  O   UNL     1     111.969 123.526 137.180  0.00  0.00    +0.000 OA
ATOM     36  O   UNL     1     110.838 125.648 135.635  0.00  0.00    +0.000 OA
ATOM     37  O   UNL     1     111.572 124.173 135.715  0.00  0.00    +0.000 OA
ATOM     38  C   UNL     1     111.067 125.416 137.793  0.00  0.00    +0.000 A 
ATOM     39  C   UNL     1     110.868 125.740 137.061  0.00  0.00    +0.000 A 
ATOM     40  C   UNL     1     111.434 124.678 137.833  0.00  0.00    +0.000 A 
ATOM     41  C   UNL     1     111.602 124.264 137.140  0.00  0.00    +0.000 A 
ATOM     42  C   UNL     1     111.037 125.325 136.367  0.00  0.00    +0.000 A 
ATOM     43  C   UNL     1     111.404 124.587 136.407  0.00  0.00    +0.000 A 
ENDBRANCH  34  38
ENDBRANCH  32  34
ENDBRANCH   4  32
TORSDOF 6
ENDMDL
MODEL 9
REMARK VINA RESULT:      -9.8      8.476     10.371
REMARK  Name = 44257961
REMARK  6 active torsions:
REMARK  status: ('A' for Active; 'I' for Inactive)
REMARK    1  A    between atoms: O_2  and  C_16
REMARK    2  A    between atoms: O_2  and  C_28
REMARK    3  A    between atoms: C_18  and  C_21
REMARK    4  A    between atoms: C_20  and  C_22
REMARK    5  A    between atoms: C_28  and  C_30
REMARK    6  A    between atoms: C_32  and  C_35
REMARK                            x       y       z     vdW  Elec       q    Type
REMARK                         _______ _______ _______ _____ _____    ______ ____
ROOT
ATOM      1  O   UNL     1     113.610 130.580 139.766  0.00  0.00    +0.000 OA
ATOM      2  O   UNL     1     113.962 128.245 140.510  0.00  0.00    +0.000 OA
ATOM      3  O   UNL     1     115.100 129.394 140.832  0.00  0.00    +0.000 OA
ATOM      4  C   UNL     1     113.157 129.226 139.853  0.00  0.00    +0.000 C 
ATOM      5  C   UNL     1     113.844 129.024 140.262  0.00  0.00    +0.000 C 
ATOM      6  C   UNL     1     113.040 130.004 139.605  0.00  0.00    +0.000 C 
ATOM      7  C   UNL     1     114.414 129.598 140.423  0.00  0.00    +0.000 C 
ATOM      8  C   UNL     1     114.297 130.376 140.175  0.00  0.00    +0.000 C 
ENDROOT
BRANCH   6  13
ATOM      9  O   UNL     1     113.058 130.097 137.958  0.00  0.00    +0.000 OA
ATOM     10  O   UNL     1     111.648 130.320 140.434  0.00  0.00    +0.000 OA
ATOM     11  O   UNL     1     110.258 130.830 137.962  0.00  0.00    +0.000 OA
ATOM     12  O   UNL     1     112.399 130.344 136.700  0.00  0.00    +0.000 OA
ATOM     13  C   UNL     1     112.353 130.208 139.197  0.00  0.00    +0.000 A 
ATOM     14  C   UNL     1     112.363 130.255 138.372  0.00  0.00    +0.000 A 
ATOM     15  C   UNL     1     111.657 130.366 139.611  0.00  0.00    +0.000 A 
ATOM     16  C   UNL     1     111.676 130.459 137.963  0.00  0.00    +0.000 A 
ATOM     17  C   UNL     1     110.971 130.570 139.200  0.00  0.00    +0.000 A 
ATOM     18  C   UNL     1     110.980 130.616 138.377  0.00  0.00    +0.000 A 
ATOM     19  C   UNL     1     111.698 130.504 137.105  0.00  0.00    +0.000 A 
ATOM     20  C   UNL     1     110.987 130.715 136.673  0.00  0.00    +0.000 A 
ATOM     21  C   UNL     1     110.262 130.880 137.104  0.00  0.00    +0.000 A 
BRANCH  21  24
ATOM     22  O   UNL     1     107.759 130.133 135.943  0.00  0.00    +0.000 OA
ATOM     23  O   UNL     1     107.510 131.696 135.476  0.00  0.00    +0.000 OA
ATOM     24  C   UNL     1     109.574 131.084 136.697  0.00  0.00    +0.000 A 
ATOM     25  C   UNL     1     109.011 130.507 136.524  0.00  0.00    +0.000 A 
ATOM     26  C   UNL     1     109.449 131.865 136.464  0.00  0.00    +0.000 A 
ATOM     27  C   UNL     1     108.322 130.710 136.117  0.00  0.00    +0.000 A 
ATOM     28  C   UNL     1     108.761 132.069 136.057  0.00  0.00    +0.000 A 
ATOM     29  C   UNL     1     108.198 131.492 135.883  0.00  0.00    +0.000 A 
ENDBRANCH  21  24
ENDBRANCH   6  13
BRANCH   8  31
ATOM     30  O   UNL     1     114.667 131.612 140.788  0.00  0.00    +0.000 OA
ATOM     31  C   UNL     1     114.866 130.951 140.336  0.00  0.00    +0.000 C 
ENDBRANCH   8  31
BRANCH   4  32
ATOM     32  O   UNL     1     112.588 128.652 139.693  0.00  0.00    +0.000 OA
BRANCH  32  34
ATOM     33  O   UNL     1     113.611 127.724 139.328  0.00  0.00    +0.000 OA
ATOM     34  C   UNL     1     112.820 127.886 139.494  0.00  0.00    +0.000 C 
BRANCH  34  38
ATOM     35  O   UNL     1     111.008 126.116 140.818  0.00  0.00    +0.000 OA
ATOM     36  O   UNL     1     111.272 126.025 137.974  0.00  0.00    +0.000 OA
ATOM     37  O   UNL     1     110.580 125.465 139.363  0.00  0.00    +0.000 OA
ATOM     38  C   UNL     1     112.259 127.280 139.462  0.00  0.00    +0.000 A 
ATOM     39  C   UNL     1     112.046 126.955 138.734  0.00  0.00    +0.000 A 
ATOM     40  C   UNL     1     111.913 127.001 140.156  0.00  0.00    +0.000 A 
ATOM     41  C   UNL     1     111.354 126.396 140.123  0.00  0.00    +0.000 A 
ATOM     42  C   UNL     1     111.486 126.350 138.702  0.00  0.00    +0.000 A 
ATOM     43  C   UNL     1     111.139 126.070 139.396  0.00  0.00    +0.000 A 
ENDBRANCH  34  38
ENDBRANCH  32  34
ENDBRANCH   4  32
TORSDOF 6
ENDMDL
MODEL 10
REMARK VINA RESULT:      -9.8      9.496     11.590
REMARK  Name = 44257961
REMARK  6 active torsions:
REMARK  status: ('A' for Active; 'I' for Inactive)
REMARK    1  A    between atoms: O_2  and  C_16
REMARK    2  A    between atoms: O_2  and  C_28
REMARK    3  A    between atoms: C_18  and  C_21
REMARK    4  A    between atoms: C_20  and  C_22
REMARK    5  A    between atoms: C_28  and  C_30
REMARK    6  A    between atoms: C_32  and  C_35
REMARK                            x       y       z     vdW  Elec       q    Type
REMARK                         _______ _______ _______ _____ _____    ______ ____
ROOT
ATOM      1  O   UNL     1     109.682 127.429 136.570  0.00  0.00    +0.000 OA
ATOM      2  O   UNL     1     110.581 125.372 135.526  0.00  0.00    +0.000 OA
ATOM      3  O   UNL     1     109.157 126.012 134.996  0.00  0.00    +0.000 OA
ATOM      4  C   UNL     1     110.695 126.423 136.488  0.00  0.00    +0.000 C 
ATOM      5  C   UNL     1     110.281 126.058 135.874  0.00  0.00    +0.000 C 
ATOM      6  C   UNL     1     110.395 127.108 136.836  0.00  0.00    +0.000 C 
ATOM      7  C   UNL     1     109.569 126.377 135.609  0.00  0.00    +0.000 C 
ATOM      8  C   UNL     1     109.270 127.063 135.957  0.00  0.00    +0.000 C 
ENDROOT
BRANCH   6  13
ATOM      9  O   UNL     1     111.380 128.393 136.515  0.00  0.00    +0.000 OA
ATOM     10  O   UNL     1     110.236 126.557 138.383  0.00  0.00    +0.000 OA
ATOM     11  O   UNL     1     112.058 128.581 139.323  0.00  0.00    +0.000 OA
ATOM     12  O   UNL     1     112.296 129.420 136.946  0.00  0.00    +0.000 OA
ATOM     13  C   UNL     1     110.808 127.474 137.449  0.00  0.00    +0.000 A 
ATOM     14  C   UNL     1     111.300 128.117 137.289  0.00  0.00    +0.000 A 
ATOM     15  C   UNL     1     110.728 127.198 138.223  0.00  0.00    +0.000 A 
ATOM     16  C   UNL     1     111.713 128.483 137.902  0.00  0.00    +0.000 A 
ATOM     17  C   UNL     1     111.141 127.565 138.836  0.00  0.00    +0.000 A 
ATOM     18  C   UNL     1     111.633 128.207 138.676  0.00  0.00    +0.000 A 
ATOM     19  C   UNL     1     112.223 129.152 137.723  0.00  0.00    +0.000 A 
ATOM     20  C   UNL     1     112.655 129.537 138.357  0.00  0.00    +0.000 A 
ATOM     21  C   UNL     1     112.572 129.250 139.162  0.00  0.00    +0.000 A 
BRANCH  21  24
ATOM     22  O   UNL     1     112.608 131.006 141.418  0.00  0.00    +0.000 OA
ATOM     23  O   UNL     1     114.218 130.709 141.623  0.00  0.00    +0.000 OA
ATOM     24  C   UNL     1     112.984 129.615 139.777  0.00  0.00    +0.000 A 
ATOM     25  C   UNL     1     112.590 130.128 140.290  0.00  0.00    +0.000 A 
ATOM     26  C   UNL     1     113.788 129.467 139.880  0.00  0.00    +0.000 A 
ATOM     27  C   UNL     1     113.001 130.493 140.905  0.00  0.00    +0.000 A 
ATOM     28  C   UNL     1     114.200 129.831 140.495  0.00  0.00    +0.000 A 
ATOM     29  C   UNL     1     113.806 130.344 141.008  0.00  0.00    +0.000 A 
ENDBRANCH  21  24
ENDBRANCH   6  13
BRANCH   8  31
ATOM     30  O   UNL     1     108.227 128.031 136.081  0.00  0.00    +0.000 OA
ATOM     31  C   UNL     1     108.557 127.383 135.691  0.00  0.00    +0.000 C 
ENDBRANCH   8  31
BRANCH   4  32
ATOM     32  O   UNL     1     111.407 126.103 136.754  0.00  0.00    +0.000 OA
BRANCH  32  34
ATOM     33  O   UNL     1     111.815 125.871 135.404  0.00  0.00    +0.000 OA
ATOM     34  C   UNL     1     111.940 125.778 136.214  0.00  0.00    +0.000 C 
BRANCH  34  38
ATOM     35  O   UNL     1     114.741 125.657 136.765  0.00  0.00    +0.000 OA
ATOM     36  O   UNL     1     113.083 123.388 137.286  0.00  0.00    +0.000 OA
ATOM     37  O   UNL     1     114.570 124.104 137.296  0.00  0.00    +0.000 OA
ATOM     38  C   UNL     1     112.598 125.359 136.485  0.00  0.00    +0.000 A 
ATOM     39  C   UNL     1     112.511 124.583 136.750  0.00  0.00    +0.000 A 
ATOM     40  C   UNL     1     113.341 125.717 136.490  0.00  0.00    +0.000 A 
ATOM     41  C   UNL     1     113.998 125.299 136.760  0.00  0.00    +0.000 A 
ATOM     42  C   UNL     1     113.170 124.165 137.021  0.00  0.00    +0.000 A 
ATOM     43  C   UNL     1     113.913 124.523 137.026  0.00  0.00    +0.000 A 
ENDBRANCH  34  38
ENDBRANCH  32  34
ENDBRANCH   4  32
TORSDOF 6
ENDMDL
