MODEL 1
REMARK VINA RESULT:     -11.3      0.000      0.000
REMARK  Name = 11498684
REMARK  8 active torsions:
REMARK  status: ('A' for Active; 'I' for Inactive)
REMARK    1  A    between atoms: O_1  and  C_21
REMARK    2  A    between atoms: O_1  and  C_26
REMARK    3  A    between atoms: O_4  and  C_29
REMARK    4  A    between atoms: O_4  and  C_32
REMARK    5  A    between atoms: O_6  and  C_25
REMARK    6  A    between atoms: O_6  and  C_39
REMARK    7  A    between atoms: C_24  and  C_29
REMARK    8  A    between atoms: C_40  and  C_43
REMARK                            x       y       z     vdW  Elec       q    Type
REMARK                         _______ _______ _______ _____ _____    ______ ____
ROOT
ATOM      1  O   UNL     1     111.097 128.569 138.075  0.00  0.00    +0.000 OA
ATOM      2  O   UNL     1     108.933 129.756 138.261  0.00  0.00    +0.000 OA
ATOM      3  O   UNL     1     108.997 128.262 137.563  0.00  0.00    +0.000 OA
ATOM      4  C   UNL     1     110.344 129.712 138.486  0.00  0.00    +0.000 C 
ATOM      5  C   UNL     1     109.655 129.360 138.199  0.00  0.00    +0.000 C 
ATOM      6  C   UNL     1     109.686 128.614 137.850  0.00  0.00    +0.000 C 
ATOM      7  C   UNL     1     110.408 128.218 137.788  0.00  0.00    +0.000 C 
ATOM      8  C   UNL     1     111.065 129.316 138.424  0.00  0.00    +0.000 C 
ENDROOT
BRANCH   4   9
ATOM      9  O   UNL     1     110.312 130.458 138.835  0.00  0.00    +0.000 OA
BRANCH   9  14
ATOM     10  O   UNL     1     110.290 131.063 137.540  0.00  0.00    +0.000 OA
ATOM     11  O   UNL     1     110.216 131.951 139.532  0.00  0.00    +0.000 OA
ATOM     12  O   UNL     1     110.147 133.300 138.586  0.00  0.00    +0.000 OA
ATOM     13  O   UNL     1     110.173 133.158 136.942  0.00  0.00    +0.000 OA
ATOM     14  C   UNL     1     110.277 131.133 138.362  0.00  0.00    +0.000 C 
ATOM     15  C   UNL     1     110.229 131.880 138.710  0.00  0.00    +0.000 C 
ATOM     16  C   UNL     1     110.194 132.555 138.237  0.00  0.00    +0.000 C 
ATOM     17  C   UNL     1     110.208 132.483 137.415  0.00  0.00    +0.000 C 
ATOM     18  C   UNL     1     110.256 131.738 137.067  0.00  0.00    +0.000 C 
ATOM     19  C   UNL     1     110.269 131.666 136.245  0.00  0.00    +0.000 C 
ENDBRANCH   9  14
ENDBRANCH   4   9
BRANCH   8  20
ATOM     20  O   UNL     1     111.754 129.667 138.711  0.00  0.00    +0.000 OA
BRANCH  20  25
ATOM     21  O   UNL     1     113.658 128.726 139.213  0.00  0.00    +0.000 OA
ATOM     22  O   UNL     1     111.331 128.805 140.052  0.00  0.00    +0.000 OA
ATOM     23  O   UNL     1     111.660 127.908 141.134  0.00  0.00    +0.000 OA
ATOM     24  O   UNL     1     114.395 126.915 141.371  0.00  0.00    +0.000 OA
ATOM     25  C   UNL     1     112.318 129.209 139.102  0.00  0.00    +0.000 A 
ATOM     26  C   UNL     1     113.094 129.183 138.822  0.00  0.00    +0.000 A 
ATOM     27  C   UNL     1     112.107 128.779 139.772  0.00  0.00    +0.000 A 
ATOM     28  C   UNL     1     112.671 128.321 140.164  0.00  0.00    +0.000 A 
ATOM     29  C   UNL     1     113.447 128.294 139.885  0.00  0.00    +0.000 A 
ATOM     30  C   UNL     1     112.438 127.876 140.862  0.00  0.00    +0.000 A 
ATOM     31  C   UNL     1     114.043 127.822 140.284  0.00  0.00    +0.000 A 
ATOM     32  C   UNL     1     113.021 127.398 141.274  0.00  0.00    +0.000 A 
ATOM     33  C   UNL     1     113.829 127.371 140.982  0.00  0.00    +0.000 A 
BRANCH  26  36
ATOM     34  O   UNL     1     113.566 129.307 136.006  0.00  0.00    +0.000 OA
ATOM     35  O   UNL     1     113.942 130.908 136.139  0.00  0.00    +0.000 OA
ATOM     36  C   UNL     1     113.306 129.614 138.152  0.00  0.00    +0.000 A 
ATOM     37  C   UNL     1     113.330 129.245 137.414  0.00  0.00    +0.000 A 
ATOM     38  C   UNL     1     113.494 130.415 138.218  0.00  0.00    +0.000 A 
ATOM     39  C   UNL     1     113.542 129.676 136.744  0.00  0.00    +0.000 A 
ATOM     40  C   UNL     1     113.706 130.846 137.547  0.00  0.00    +0.000 A 
ATOM     41  C   UNL     1     113.730 130.476 136.810  0.00  0.00    +0.000 A 
ENDBRANCH  26  36
ENDBRANCH  20  25
ENDBRANCH   8  20
BRANCH   7  42
ATOM     42  C   UNL     1     110.440 127.470 137.439  0.00  0.00    +0.000 C 
BRANCH  42  43
ATOM     43  O   UNL     1     110.796 126.844 137.840  0.00  0.00    +0.000 OA
BRANCH  43  48
ATOM     44  O   UNL     1     110.894 126.109 136.618  0.00  0.00    +0.000 OA
ATOM     45  O   UNL     1     111.293 125.513 138.680  0.00  0.00    +0.000 OA
ATOM     46  O   UNL     1     111.640 124.113 137.878  0.00  0.00    +0.000 OA
ATOM     47  O   UNL     1     111.489 124.044 136.236  0.00  0.00    +0.000 OA
ATOM     48  C   UNL     1     110.969 126.143 137.439  0.00  0.00    +0.000 C 
ATOM     49  C   UNL     1     111.218 125.478 137.859  0.00  0.00    +0.000 C 
ATOM     50  C   UNL     1     111.391 124.779 137.458  0.00  0.00    +0.000 C 
ATOM     51  C   UNL     1     111.316 124.744 136.638  0.00  0.00    +0.000 C 
ATOM     52  C   UNL     1     111.067 125.409 136.218  0.00  0.00    +0.000 C 
ATOM     53  C   UNL     1     110.992 125.375 135.397  0.00  0.00    +0.000 C 
ENDBRANCH  43  48
ENDBRANCH  42  43
ENDBRANCH   7  42
TORSDOF 8
ENDMDL
MODEL 2
REMARK VINA RESULT:     -11.1      1.816      4.876
REMARK  Name = 11498684
REMARK  8 active torsions:
REMARK  status: ('A' for Active; 'I' for Inactive)
REMARK    1  A    between atoms: O_1  and  C_21
REMARK    2  A    between atoms: O_1  and  C_26
REMARK    3  A    between atoms: O_4  and  C_29
REMARK    4  A    between atoms: O_4  and  C_32
REMARK    5  A    between atoms: O_6  and  C_25
REMARK    6  A    between atoms: O_6  and  C_39
REMARK    7  A    between atoms: C_24  and  C_29
REMARK    8  A    between atoms: C_40  and  C_43
REMARK                            x       y       z     vdW  Elec       q    Type
REMARK                         _______ _______ _______ _____ _____    ______ ____
ROOT
ATOM      1  O   UNL     1     111.409 128.045 139.220  0.00  0.00    +0.000 OA
ATOM      2  O   UNL     1     111.103 125.597 139.411  0.00  0.00    +0.000 OA
ATOM      3  O   UNL     1     110.075 126.620 140.197  0.00  0.00    +0.000 OA
ATOM      4  C   UNL     1     111.821 126.717 138.890  0.00  0.00    +0.000 C 
ATOM      5  C   UNL     1     111.205 126.413 139.347  0.00  0.00    +0.000 C 
ATOM      6  C   UNL     1     110.691 126.924 139.740  0.00  0.00    +0.000 C 
ATOM      7  C   UNL     1     110.793 127.740 139.676  0.00  0.00    +0.000 C 
ATOM      8  C   UNL     1     111.923 127.533 138.827  0.00  0.00    +0.000 C 
ENDROOT
BRANCH   4   9
ATOM      9  O   UNL     1     112.335 126.206 138.497  0.00  0.00    +0.000 OA
BRANCH   9  14
ATOM     10  O   UNL     1     111.369 126.021 137.460  0.00  0.00    +0.000 OA
ATOM     11  O   UNL     1     113.281 125.034 137.823  0.00  0.00    +0.000 OA
ATOM     12  O   UNL     1     112.788 124.265 136.449  0.00  0.00    +0.000 OA
ATOM     13  O   UNL     1     111.349 124.666 135.750  0.00  0.00    +0.000 OA
ATOM     14  C   UNL     1     112.088 125.821 137.810  0.00  0.00    +0.000 C 
ATOM     15  C   UNL     1     112.562 125.235 137.473  0.00  0.00    +0.000 C 
ATOM     16  C   UNL     1     112.315 124.850 136.786  0.00  0.00    +0.000 C 
ATOM     17  C   UNL     1     111.595 125.051 136.437  0.00  0.00    +0.000 C 
ATOM     18  C   UNL     1     111.122 125.636 136.773  0.00  0.00    +0.000 C 
ATOM     19  C   UNL     1     110.402 125.838 136.424  0.00  0.00    +0.000 C 
ENDBRANCH   9  14
ENDBRANCH   4   9
BRANCH   8  20
ATOM     20  O   UNL     1     112.539 127.838 138.370  0.00  0.00    +0.000 OA
BRANCH  20  25
ATOM     21  O   UNL     1     113.419 129.835 138.375  0.00  0.00    +0.000 OA
ATOM     22  O   UNL     1     113.221 127.874 139.872  0.00  0.00    +0.000 OA
ATOM     23  O   UNL     1     113.975 128.547 140.902  0.00  0.00    +0.000 OA
ATOM     24  O   UNL     1     114.947 131.256 140.407  0.00  0.00    +0.000 OA
ATOM     25  C   UNL     1     112.946 128.510 138.622  0.00  0.00    +0.000 A 
ATOM     26  C   UNL     1     113.012 129.163 138.123  0.00  0.00    +0.000 A 
ATOM     27  C   UNL     1     113.287 128.527 139.372  0.00  0.00    +0.000 A 
ATOM     28  C   UNL     1     113.695 129.199 139.624  0.00  0.00    +0.000 A 
ATOM     29  C   UNL     1     113.761 129.853 139.126  0.00  0.00    +0.000 A 
ATOM     30  C   UNL     1     114.046 129.206 140.409  0.00  0.00    +0.000 A 
ATOM     31  C   UNL     1     114.183 130.558 139.377  0.00  0.00    +0.000 A 
ATOM     32  C   UNL     1     114.472 129.902 140.678  0.00  0.00    +0.000 A 
ATOM     33  C   UNL     1     114.540 130.583 140.157  0.00  0.00    +0.000 A 
BRANCH  26  36
ATOM     34  O   UNL     1     110.848 129.809 136.371  0.00  0.00    +0.000 OA
ATOM     35  O   UNL     1     111.647 129.092 135.119  0.00  0.00    +0.000 OA
ATOM     36  C   UNL     1     112.671 129.146 137.372  0.00  0.00    +0.000 A 
ATOM     37  C   UNL     1     111.930 129.486 137.247  0.00  0.00    +0.000 A 
ATOM     38  C   UNL     1     113.071 128.787 136.746  0.00  0.00    +0.000 A 
ATOM     39  C   UNL     1     111.589 129.468 136.497  0.00  0.00    +0.000 A 
ATOM     40  C   UNL     1     112.730 128.769 135.994  0.00  0.00    +0.000 A 
ATOM     41  C   UNL     1     111.989 129.110 135.870  0.00  0.00    +0.000 A 
ENDBRANCH  26  36
ENDBRANCH  20  25
ENDBRANCH   8  20
BRANCH   7  42
ATOM     42  C   UNL     1     110.279 128.252 140.070  0.00  0.00    +0.000 C 
BRANCH  42  43
ATOM     43  O   UNL     1     109.995 128.925 139.687  0.00  0.00    +0.000 OA
BRANCH  43  48
ATOM     44  O   UNL     1     109.873 129.687 140.889  0.00  0.00    +0.000 OA
ATOM     45  O   UNL     1     108.753 129.782 139.018  0.00  0.00    +0.000 OA
ATOM     46  O   UNL     1     108.010 130.972 139.886  0.00  0.00    +0.000 OA
ATOM     47  O   UNL     1     108.509 131.306 141.423  0.00  0.00    +0.000 OA
ATOM     48  C   UNL     1     109.623 129.521 140.121  0.00  0.00    +0.000 C 
ATOM     49  C   UNL     1     109.002 129.949 139.787  0.00  0.00    +0.000 C 
ATOM     50  C   UNL     1     108.631 130.544 140.220  0.00  0.00    +0.000 C 
ATOM     51  C   UNL     1     108.880 130.711 140.988  0.00  0.00    +0.000 C 
ATOM     52  C   UNL     1     109.501 130.282 141.323  0.00  0.00    +0.000 C 
ATOM     53  C   UNL     1     109.751 130.449 142.092  0.00  0.00    +0.000 C 
ENDBRANCH  43  48
ENDBRANCH  42  43
ENDBRANCH   7  42
TORSDOF 8
ENDMDL
MODEL 3
REMARK VINA RESULT:     -11.0      1.706      5.495
REMARK  Name = 11498684
REMARK  8 active torsions:
REMARK  status: ('A' for Active; 'I' for Inactive)
REMARK    1  A    between atoms: O_1  and  C_21
REMARK    2  A    between atoms: O_1  and  C_26
REMARK    3  A    between atoms: O_4  and  C_29
REMARK    4  A    between atoms: O_4  and  C_32
REMARK    5  A    between atoms: O_6  and  C_25
REMARK    6  A    between atoms: O_6  and  C_39
REMARK    7  A    between atoms: C_24  and  C_29
REMARK    8  A    between atoms: C_40  and  C_43
REMARK                            x       y       z     vdW  Elec       q    Type
REMARK                         _______ _______ _______ _____ _____    ______ ____
ROOT
ATOM      1  O   UNL     1     112.538 128.128 138.845  0.00  0.00    +0.000 OA
ATOM      2  O   UNL     1     112.388 125.731 139.445  0.00  0.00    +0.000 OA
ATOM      3  O   UNL     1     113.175 126.784 140.442  0.00  0.00    +0.000 OA
ATOM      4  C   UNL     1     112.095 126.802 138.545  0.00  0.00    +0.000 C 
ATOM      5  C   UNL     1     112.438 126.530 139.245  0.00  0.00    +0.000 C 
ATOM      6  C   UNL     1     112.831 127.056 139.743  0.00  0.00    +0.000 C 
ATOM      7  C   UNL     1     112.881 127.855 139.543  0.00  0.00    +0.000 C 
ATOM      8  C   UNL     1     112.144 127.601 138.345  0.00  0.00    +0.000 C 
ENDROOT
BRANCH   4   9
ATOM      9  O   UNL     1     111.701 126.276 138.047  0.00  0.00    +0.000 OA
BRANCH   9  14
ATOM     10  O   UNL     1     112.947 125.862 137.482  0.00  0.00    +0.000 OA
ATOM     11  O   UNL     1     110.935 125.048 137.255  0.00  0.00    +0.000 OA
ATOM     12  O   UNL     1     111.798 124.021 136.295  0.00  0.00    +0.000 OA
ATOM     13  O   UNL     1     113.427 124.222 136.126  0.00  0.00    +0.000 OA
ATOM     14  C   UNL     1     112.133 125.763 137.567  0.00  0.00    +0.000 C 
ATOM     15  C   UNL     1     111.750 125.148 137.170  0.00  0.00    +0.000 C 
ATOM     16  C   UNL     1     112.181 124.634 136.690  0.00  0.00    +0.000 C 
ATOM     17  C   UNL     1     112.996 124.735 136.606  0.00  0.00    +0.000 C 
ATOM     18  C   UNL     1     113.379 125.349 137.002  0.00  0.00    +0.000 C 
ATOM     19  C   UNL     1     114.193 125.450 136.918  0.00  0.00    +0.000 C 
ENDBRANCH   9  14
ENDBRANCH   4   9
BRANCH   8  20
ATOM     20  O   UNL     1     111.801 127.874 137.647  0.00  0.00    +0.000 OA
BRANCH  20  25
ATOM     21  O   UNL     1     111.188 129.905 137.136  0.00  0.00    +0.000 OA
ATOM     22  O   UNL     1     110.503 128.067 138.646  0.00  0.00    +0.000 OA
ATOM     23  O   UNL     1     109.414 128.860 139.164  0.00  0.00    +0.000 OA
ATOM     24  O   UNL     1     109.011 131.563 138.135  0.00  0.00    +0.000 OA
ATOM     25  C   UNL     1     111.380 128.583 137.643  0.00  0.00    +0.000 A 
ATOM     26  C   UNL     1     111.609 129.196 137.140  0.00  0.00    +0.000 A 
ATOM     27  C   UNL     1     110.731 128.680 138.142  0.00  0.00    +0.000 A 
ATOM     28  C   UNL     1     110.310 129.389 138.139  0.00  0.00    +0.000 A 
ATOM     29  C   UNL     1     110.538 130.002 137.636  0.00  0.00    +0.000 A 
ATOM     30  C   UNL     1     109.635 129.478 138.664  0.00  0.00    +0.000 A 
ATOM     31  C   UNL     1     110.107 130.745 137.623  0.00  0.00    +0.000 A 
ATOM     32  C   UNL     1     109.192 130.214 138.665  0.00  0.00    +0.000 A 
ATOM     33  C   UNL     1     109.431 130.852 138.141  0.00  0.00    +0.000 A 
BRANCH  26  36
ATOM     34  O   UNL     1     114.366 129.657 136.547  0.00  0.00    +0.000 OA
ATOM     35  O   UNL     1     114.206 128.810 135.141  0.00  0.00    +0.000 OA
ATOM     36  C   UNL     1     112.258 129.099 136.640  0.00  0.00    +0.000 A 
ATOM     37  C   UNL     1     112.988 129.427 136.843  0.00  0.00    +0.000 A 
ATOM     38  C   UNL     1     112.177 128.676 135.937  0.00  0.00    +0.000 A 
ATOM     39  C   UNL     1     113.636 129.330 136.344  0.00  0.00    +0.000 A 
ATOM     40  C   UNL     1     112.827 128.579 135.437  0.00  0.00    +0.000 A 
ATOM     41  C   UNL     1     113.556 128.906 135.641  0.00  0.00    +0.000 A 
ENDBRANCH  26  36
ENDBRANCH  20  25
ENDBRANCH   8  20
BRANCH   7  42
ATOM     42  C   UNL     1     113.275 128.382 140.042  0.00  0.00    +0.000 C 
BRANCH  42  43
ATOM     43  O   UNL     1     112.888 129.056 140.317  0.00  0.00    +0.000 OA
BRANCH  43  48
ATOM     44  O   UNL     1     114.104 129.800 140.409  0.00  0.00    +0.000 OA
ATOM     45  O   UNL     1     112.195 130.050 141.437  0.00  0.00    +0.000 OA
ATOM     46  O   UNL     1     113.065 131.291 142.089  0.00  0.00    +0.000 OA
ATOM     47  O   UNL     1     114.627 131.539 141.621  0.00  0.00    +0.000 OA
ATOM     48  C   UNL     1     113.323 129.677 140.643  0.00  0.00    +0.000 C 
ATOM     49  C   UNL     1     112.976 130.174 141.204  0.00  0.00    +0.000 C 
ATOM     50  C   UNL     1     113.411 130.794 141.529  0.00  0.00    +0.000 C 
ATOM     51  C   UNL     1     114.192 130.918 141.295  0.00  0.00    +0.000 C 
ATOM     52  C   UNL     1     114.538 130.421 140.735  0.00  0.00    +0.000 C 
ATOM     53  C   UNL     1     115.320 130.545 140.501  0.00  0.00    +0.000 C 
ENDBRANCH  43  48
ENDBRANCH  42  43
ENDBRANCH   7  42
TORSDOF 8
ENDMDL
MODEL 4
REMARK VINA RESULT:     -10.9      1.359      3.728
REMARK  Name = 11498684
REMARK  8 active torsions:
REMARK  status: ('A' for Active; 'I' for Inactive)
REMARK    1  A    between atoms: O_1  and  C_21
REMARK    2  A    between atoms: O_1  and  C_26
REMARK    3  A    between atoms: O_4  and  C_29
REMARK    4  A    between atoms: O_4  and  C_32
REMARK    5  A    between atoms: O_6  and  C_25
REMARK    6  A    between atoms: O_6  and  C_39
REMARK    7  A    between atoms: C_24  and  C_29
REMARK    8  A    between atoms: C_40  and  C_43
REMARK                            x       y       z     vdW  Elec       q    Type
REMARK                         _______ _______ _______ _____ _____    ______ ____
ROOT
ATOM      1  O   UNL     1     111.292 128.435 138.066  0.00  0.00    +0.000 OA
ATOM      2  O   UNL     1     109.103 129.551 138.364  0.00  0.00    +0.000 OA
ATOM      3  O   UNL     1     110.123 129.379 139.649  0.00  0.00    +0.000 OA
ATOM      4  C   UNL     1     110.052 128.893 137.522  0.00  0.00    +0.000 C 
ATOM      5  C   UNL     1     109.833 129.179 138.264  0.00  0.00    +0.000 C 
ATOM      6  C   UNL     1     110.342 129.093 138.907  0.00  0.00    +0.000 C 
ATOM      7  C   UNL     1     111.072 128.721 138.808  0.00  0.00    +0.000 C 
ATOM      8  C   UNL     1     110.781 128.521 137.423  0.00  0.00    +0.000 C 
ENDROOT
BRANCH   4   9
ATOM      9  O   UNL     1     109.542 128.979 136.880  0.00  0.00    +0.000 OA
BRANCH   9  14
ATOM     10  O   UNL     1     109.981 130.327 136.703  0.00  0.00    +0.000 OA
ATOM     11  O   UNL     1     108.377 129.208 135.734  0.00  0.00    +0.000 OA
ATOM     12  O   UNL     1     108.233 130.672 134.986  0.00  0.00    +0.000 OA
ATOM     13  O   UNL     1     109.254 131.905 135.382  0.00  0.00    +0.000 OA
ATOM     14  C   UNL     1     109.470 129.710 136.505  0.00  0.00    +0.000 C 
ATOM     15  C   UNL     1     108.887 129.825 135.932  0.00  0.00    +0.000 C 
ATOM     16  C   UNL     1     108.815 130.557 135.558  0.00  0.00    +0.000 C 
ATOM     17  C   UNL     1     109.326 131.174 135.757  0.00  0.00    +0.000 C 
ATOM     18  C   UNL     1     109.909 131.059 136.329  0.00  0.00    +0.000 C 
ATOM     19  C   UNL     1     110.420 131.676 136.528  0.00  0.00    +0.000 C 
ENDBRANCH   9  14
ENDBRANCH   4   9
BRANCH   8  20
ATOM     20  O   UNL     1     111.001 128.234 136.681  0.00  0.00    +0.000 OA
BRANCH  20  25
ATOM     21  O   UNL     1     112.510 126.742 136.171  0.00  0.00    +0.000 OA
ATOM     22  O   UNL     1     110.320 126.873 137.318  0.00  0.00    +0.000 OA
ATOM     23  O   UNL     1     110.343 125.456 137.587  0.00  0.00    +0.000 OA
ATOM     24  O   UNL     1     112.626 123.876 136.679  0.00  0.00    +0.000 OA
ATOM     25  C   UNL     1     111.391 127.510 136.617  0.00  0.00    +0.000 A 
ATOM     26  C   UNL     1     112.121 127.466 136.235  0.00  0.00    +0.000 A 
ATOM     27  C   UNL     1     111.050 126.830 136.935  0.00  0.00    +0.000 A 
ATOM     28  C   UNL     1     111.439 126.105 136.871  0.00  0.00    +0.000 A 
ATOM     29  C   UNL     1     112.169 126.060 136.489  0.00  0.00    +0.000 A 
ATOM     30  C   UNL     1     111.074 125.402 137.207  0.00  0.00    +0.000 A 
ATOM     31  C   UNL     1     112.583 125.311 136.416  0.00  0.00    +0.000 A 
ATOM     32  C   UNL     1     111.474 124.645 137.143  0.00  0.00    +0.000 A 
ATOM     33  C   UNL     1     112.234 124.600 136.745  0.00  0.00    +0.000 A 
BRANCH  26  36
ATOM     34  O   UNL     1     113.979 129.628 136.432  0.00  0.00    +0.000 OA
ATOM     35  O   UNL     1     113.484 130.188 134.962  0.00  0.00    +0.000 OA
ATOM     36  C   UNL     1     112.461 128.146 135.917  0.00  0.00    +0.000 A 
ATOM     37  C   UNL     1     113.050 128.547 136.334  0.00  0.00    +0.000 A 
ATOM     38  C   UNL     1     112.213 128.426 135.182  0.00  0.00    +0.000 A 
ATOM     39  C   UNL     1     113.390 129.227 136.016  0.00  0.00    +0.000 A 
ATOM     40  C   UNL     1     112.554 129.107 134.863  0.00  0.00    +0.000 A 
ATOM     41  C   UNL     1     113.143 129.507 135.280  0.00  0.00    +0.000 A 
ENDBRANCH  26  36
ENDBRANCH  20  25
ENDBRANCH   8  20
BRANCH   7  42
ATOM     42  C   UNL     1     111.582 128.635 139.451  0.00  0.00    +0.000 C 
BRANCH  42  43
ATOM     43  O   UNL     1     112.334 128.974 139.428  0.00  0.00    +0.000 OA
BRANCH  43  48
ATOM     44  O   UNL     1     112.959 127.807 139.965  0.00  0.00    +0.000 OA
ATOM     45  O   UNL     1     113.577 129.900 139.995  0.00  0.00    +0.000 OA
ATOM     46  O   UNL     1     114.823 129.196 140.815  0.00  0.00    +0.000 OA
ATOM     47  O   UNL     1     114.827 127.566 141.069  0.00  0.00    +0.000 OA
ATOM     48  C   UNL     1     112.958 128.622 139.839  0.00  0.00    +0.000 C 
ATOM     49  C   UNL     1     113.579 129.085 140.122  0.00  0.00    +0.000 C 
ATOM     50  C   UNL     1     114.202 128.733 140.532  0.00  0.00    +0.000 C 
ATOM     51  C   UNL     1     114.204 127.918 140.658  0.00  0.00    +0.000 C 
ATOM     52  C   UNL     1     113.582 127.456 140.375  0.00  0.00    +0.000 C 
ATOM     53  C   UNL     1     113.584 126.640 140.502  0.00  0.00    +0.000 C 
ENDBRANCH  43  48
ENDBRANCH  42  43
ENDBRANCH   7  42
TORSDOF 8
ENDMDL
MODEL 5
REMARK VINA RESULT:     -10.8      1.581      5.255
REMARK  Name = 11498684
REMARK  8 active torsions:
REMARK  status: ('A' for Active; 'I' for Inactive)
REMARK    1  A    between atoms: O_1  and  C_21
REMARK    2  A    between atoms: O_1  and  C_26
REMARK    3  A    between atoms: O_4  and  C_29
REMARK    4  A    between atoms: O_4  and  C_32
REMARK    5  A    between atoms: O_6  and  C_25
REMARK    6  A    between atoms: O_6  and  C_39
REMARK    7  A    between atoms: C_24  and  C_29
REMARK    8  A    between atoms: C_40  and  C_43
REMARK                            x       y       z     vdW  Elec       q    Type
REMARK                         _______ _______ _______ _____ _____    ______ ____
ROOT
ATOM      1  O   UNL     1     111.921 128.878 138.199  0.00  0.00    +0.000 OA
ATOM      2  O   UNL     1     112.463 127.672 136.107  0.00  0.00    +0.000 OA
ATOM      3  O   UNL     1     111.435 128.962 136.073  0.00  0.00    +0.000 OA
ATOM      4  C   UNL     1     112.616 127.830 137.518  0.00  0.00    +0.000 C 
ATOM      5  C   UNL     1     112.282 128.074 136.804  0.00  0.00    +0.000 C 
ATOM      6  C   UNL     1     111.769 128.719 136.787  0.00  0.00    +0.000 C 
ATOM      7  C   UNL     1     111.588 129.121 137.484  0.00  0.00    +0.000 C 
ATOM      8  C   UNL     1     112.435 128.232 138.216  0.00  0.00    +0.000 C 
ENDROOT
BRANCH   4   9
ATOM      9  O   UNL     1     113.129 127.185 137.536  0.00  0.00    +0.000 OA
BRANCH   9  14
ATOM     10  O   UNL     1     112.015 126.291 137.534  0.00  0.00    +0.000 OA
ATOM     11  O   UNL     1     114.157 125.905 137.378  0.00  0.00    +0.000 OA
ATOM     12  O   UNL     1     113.557 124.370 137.297  0.00  0.00    +0.000 OA
ATOM     13  O   UNL     1     111.928 124.116 137.374  0.00  0.00    +0.000 OA
ATOM     14  C   UNL     1     112.829 126.418 137.495  0.00  0.00    +0.000 C 
ATOM     15  C   UNL     1     113.343 125.777 137.416  0.00  0.00    +0.000 C 
ATOM     16  C   UNL     1     113.043 125.010 137.376  0.00  0.00    +0.000 C 
ATOM     17  C   UNL     1     112.229 124.883 137.415  0.00  0.00    +0.000 C 
ATOM     18  C   UNL     1     111.715 125.523 137.493  0.00  0.00    +0.000 C 
ATOM     19  C   UNL     1     110.900 125.397 137.532  0.00  0.00    +0.000 C 
ENDBRANCH   9  14
ENDBRANCH   4   9
BRANCH   8  20
ATOM     20  O   UNL     1     112.768 127.990 138.930  0.00  0.00    +0.000 OA
BRANCH  20  25
ATOM     21  O   UNL     1     113.013 129.072 140.810  0.00  0.00    +0.000 OA
ATOM     22  O   UNL     1     113.800 129.191 138.466  0.00  0.00    +0.000 OA
ATOM     23  O   UNL     1     114.585 130.365 138.759  0.00  0.00    +0.000 OA
ATOM     24  O   UNL     1     114.575 131.438 141.475  0.00  0.00    +0.000 OA
ATOM     25  C   UNL     1     113.022 128.551 139.480  0.00  0.00    +0.000 A 
ATOM     26  C   UNL     1     112.760 128.510 140.261  0.00  0.00    +0.000 A 
ATOM     27  C   UNL     1     113.537 129.151 139.247  0.00  0.00    +0.000 A 
ATOM     28  C   UNL     1     113.791 129.712 139.796  0.00  0.00    +0.000 A 
ATOM     29  C   UNL     1     113.529 129.673 140.578  0.00  0.00    +0.000 A 
ATOM     30  C   UNL     1     114.328 130.333 139.543  0.00  0.00    +0.000 A 
ATOM     31  C   UNL     1     113.786 130.251 141.159  0.00  0.00    +0.000 A 
ATOM     32  C   UNL     1     114.596 130.921 140.110  0.00  0.00    +0.000 A 
ATOM     33  C   UNL     1     114.323 130.879 140.923  0.00  0.00    +0.000 A 
BRANCH  26  36
ATOM     34  O   UNL     1     110.103 127.588 140.770  0.00  0.00    +0.000 OA
ATOM     35  O   UNL     1     110.698 126.107 141.190  0.00  0.00    +0.000 OA
ATOM     36  C   UNL     1     112.244 127.910 140.493  0.00  0.00    +0.000 A 
ATOM     37  C   UNL     1     111.431 128.049 140.516  0.00  0.00    +0.000 A 
ATOM     38  C   UNL     1     112.542 127.170 140.703  0.00  0.00    +0.000 A 
ATOM     39  C   UNL     1     110.916 127.449 140.748  0.00  0.00    +0.000 A 
ATOM     40  C   UNL     1     112.026 126.569 140.936  0.00  0.00    +0.000 A 
ATOM     41  C   UNL     1     111.213 126.709 140.958  0.00  0.00    +0.000 A 
ENDBRANCH  26  36
ENDBRANCH  20  25
ENDBRANCH   8  20
BRANCH   7  42
ATOM     42  C   UNL     1     111.074 129.766 137.468  0.00  0.00    +0.000 C 
BRANCH  42  43
ATOM     43  O   UNL     1     110.479 129.834 138.035  0.00  0.00    +0.000 OA
BRANCH  43  48
ATOM     44  O   UNL     1     110.403 131.253 137.886  0.00  0.00    +0.000 OA
ATOM     45  O   UNL     1     108.933 129.811 138.610  0.00  0.00    +0.000 OA
ATOM     46  O   UNL     1     108.083 131.219 138.749  0.00  0.00    +0.000 OA
ATOM     47  O   UNL     1     108.780 132.650 138.312  0.00  0.00    +0.000 OA
ATOM     48  C   UNL     1     110.054 130.539 138.105  0.00  0.00    +0.000 C 
ATOM     49  C   UNL     1     109.281 130.527 138.392  0.00  0.00    +0.000 C 
ATOM     50  C   UNL     1     108.857 131.231 138.461  0.00  0.00    +0.000 C 
ATOM     51  C   UNL     1     109.204 131.945 138.243  0.00  0.00    +0.000 C 
ATOM     52  C   UNL     1     109.978 131.957 137.955  0.00  0.00    +0.000 C 
ATOM     53  C   UNL     1     110.326 132.673 137.737  0.00  0.00    +0.000 C 
ENDBRANCH  43  48
ENDBRANCH  42  43
ENDBRANCH   7  42
TORSDOF 8
ENDMDL
MODEL 6
REMARK VINA RESULT:     -10.8      1.720      3.685
REMARK  Name = 11498684
REMARK  8 active torsions:
REMARK  status: ('A' for Active; 'I' for Inactive)
REMARK    1  A    between atoms: O_1  and  C_21
REMARK    2  A    between atoms: O_1  and  C_26
REMARK    3  A    between atoms: O_4  and  C_29
REMARK    4  A    between atoms: O_4  and  C_32
REMARK    5  A    between atoms: O_6  and  C_25
REMARK    6  A    between atoms: O_6  and  C_39
REMARK    7  A    between atoms: C_24  and  C_29
REMARK    8  A    between atoms: C_40  and  C_43
REMARK                            x       y       z     vdW  Elec       q    Type
REMARK                         _______ _______ _______ _____ _____    ______ ____
ROOT
ATOM      1  O   UNL     1     112.783 128.085 138.692  0.00  0.00    +0.000 OA
ATOM      2  O   UNL     1     113.090 128.252 141.142  0.00  0.00    +0.000 OA
ATOM      3  O   UNL     1     113.358 126.817 140.373  0.00  0.00    +0.000 OA
ATOM      4  C   UNL     1     112.751 128.859 139.894  0.00  0.00    +0.000 C 
ATOM      5  C   UNL     1     112.988 128.197 140.326  0.00  0.00    +0.000 C 
ATOM      6  C   UNL     1     113.121 127.480 139.942  0.00  0.00    +0.000 C 
ATOM      7  C   UNL     1     113.019 127.424 139.125  0.00  0.00    +0.000 C 
ATOM      8  C   UNL     1     112.649 128.803 139.077  0.00  0.00    +0.000 C 
ENDROOT
BRANCH   4   9
ATOM      9  O   UNL     1     112.617 129.576 140.278  0.00  0.00    +0.000 OA
BRANCH   9  14
ATOM     10  O   UNL     1     114.012 129.889 140.257  0.00  0.00    +0.000 OA
ATOM     11  O   UNL     1     112.378 130.724 141.439  0.00  0.00    +0.000 OA
ATOM     12  O   UNL     1     113.652 131.610 141.998  0.00  0.00    +0.000 OA
ATOM     13  O   UNL     1     115.166 131.349 141.396  0.00  0.00    +0.000 OA
ATOM     14  C   UNL     1     113.255 130.019 140.558  0.00  0.00    +0.000 C 
ATOM     15  C   UNL     1     113.135 130.594 141.139  0.00  0.00    +0.000 C 
ATOM     16  C   UNL     1     113.772 131.037 141.418  0.00  0.00    +0.000 C 
ATOM     17  C   UNL     1     114.529 130.906 141.117  0.00  0.00    +0.000 C 
ATOM     18  C   UNL     1     114.649 130.332 140.537  0.00  0.00    +0.000 C 
ATOM     19  C   UNL     1     115.406 130.201 140.235  0.00  0.00    +0.000 C 
ENDBRANCH   9  14
ENDBRANCH   4   9
BRANCH   8  20
ATOM     20  O   UNL     1     112.412 129.464 138.645  0.00  0.00    +0.000 OA
BRANCH  20  25
ATOM     21  O   UNL     1     111.442 129.546 136.691  0.00  0.00    +0.000 OA
ATOM     22  O   UNL     1     110.925 128.851 139.010  0.00  0.00    +0.000 OA
ATOM     23  O   UNL     1     109.591 128.458 138.625  0.00  0.00    +0.000 OA
ATOM     24  O   UNL     1     108.766 128.773 135.842  0.00  0.00    +0.000 OA
ATOM     25  C   UNL     1     111.841 129.389 138.054  0.00  0.00    +0.000 A 
ATOM     26  C   UNL     1     112.014 129.621 137.282  0.00  0.00    +0.000 A 
ATOM     27  C   UNL     1     111.098 129.083 138.237  0.00  0.00    +0.000 A 
ATOM     28  C   UNL     1     110.526 129.008 137.647  0.00  0.00    +0.000 A 
ATOM     29  C   UNL     1     110.698 129.239 136.874  0.00  0.00    +0.000 A 
ATOM     30  C   UNL     1     109.754 128.687 137.849  0.00  0.00    +0.000 A 
ATOM     31  C   UNL     1     110.111 129.166 136.251  0.00  0.00    +0.000 A 
ATOM     32  C   UNL     1     109.155 128.606 137.240  0.00  0.00    +0.000 A 
ATOM     33  C   UNL     1     109.335 128.847 136.434  0.00  0.00    +0.000 A 
BRANCH  26  36
ATOM     34  O   UNL     1     114.622 129.286 136.163  0.00  0.00    +0.000 OA
ATOM     35  O   UNL     1     114.989 130.848 136.550  0.00  0.00    +0.000 OA
ATOM     36  C   UNL     1     112.757 129.927 137.099  0.00  0.00    +0.000 A 
ATOM     37  C   UNL     1     113.318 129.454 136.722  0.00  0.00    +0.000 A 
ATOM     38  C   UNL     1     112.940 130.708 137.293  0.00  0.00    +0.000 A 
ATOM     39  C   UNL     1     114.061 129.760 136.539  0.00  0.00    +0.000 A 
ATOM     40  C   UNL     1     113.685 131.015 137.110  0.00  0.00    +0.000 A 
ATOM     41  C   UNL     1     114.244 130.541 136.733  0.00  0.00    +0.000 A 
ENDBRANCH  26  36
ENDBRANCH  20  25
ENDBRANCH   8  20
BRANCH   7  42
ATOM     42  C   UNL     1     113.153 126.706 138.740  0.00  0.00    +0.000 C 
BRANCH  42  43
ATOM     43  O   UNL     1     112.561 126.373 138.271  0.00  0.00    +0.000 OA
BRANCH  43  48
ATOM     44  O   UNL     1     113.510 125.490 137.670  0.00  0.00    +0.000 OA
ATOM     45  O   UNL     1     111.328 125.498 137.611  0.00  0.00    +0.000 OA
ATOM     46  O   UNL     1     111.660 124.177 136.680  0.00  0.00    +0.000 OA
ATOM     47  O   UNL     1     113.226 123.731 136.409  0.00  0.00    +0.000 OA
ATOM     48  C   UNL     1     112.727 125.712 137.805  0.00  0.00    +0.000 C 
ATOM     49  C   UNL     1     112.111 125.275 137.475  0.00  0.00    +0.000 C 
ATOM     50  C   UNL     1     112.277 124.615 137.010  0.00  0.00    +0.000 C 
ATOM     51  C   UNL     1     113.059 124.392 136.875  0.00  0.00    +0.000 C 
ATOM     52  C   UNL     1     113.675 124.829 137.205  0.00  0.00    +0.000 C 
ATOM     53  C   UNL     1     114.459 124.606 137.069  0.00  0.00    +0.000 C 
ENDBRANCH  43  48
ENDBRANCH  42  43
ENDBRANCH   7  42
TORSDOF 8
ENDMDL
MODEL 7
REMARK VINA RESULT:     -10.8      1.941      4.722
REMARK  Name = 11498684
REMARK  8 active torsions:
REMARK  status: ('A' for Active; 'I' for Inactive)
REMARK    1  A    between atoms: O_1  and  C_21
REMARK    2  A    between atoms: O_1  and  C_26
REMARK    3  A    between atoms: O_4  and  C_29
REMARK    4  A    between atoms: O_4  and  C_32
REMARK    5  A    between atoms: O_6  and  C_25
REMARK    6  A    between atoms: O_6  and  C_39
REMARK    7  A    between atoms: C_24  and  C_29
REMARK    8  A    between atoms: C_40  and  C_43
REMARK                            x       y       z     vdW  Elec       q    Type
REMARK                         _______ _______ _______ _____ _____    ______ ____
ROOT
ATOM      1  O   UNL     1     111.558 127.644 138.076  0.00  0.00    +0.000 OA
ATOM      2  O   UNL     1     109.098 127.379 138.137  0.00  0.00    +0.000 OA
ATOM      3  O   UNL     1     109.780 128.522 137.162  0.00  0.00    +0.000 OA
ATOM      4  C   UNL     1     110.396 126.984 138.584  0.00  0.00    +0.000 C 
ATOM      5  C   UNL     1     109.918 127.467 138.117  0.00  0.00    +0.000 C 
ATOM      6  C   UNL     1     110.258 128.038 137.630  0.00  0.00    +0.000 C 
ATOM      7  C   UNL     1     111.078 128.127 137.609  0.00  0.00    +0.000 C 
ATOM      8  C   UNL     1     111.216 127.072 138.563  0.00  0.00    +0.000 C 
ENDROOT
BRANCH   4   9
ATOM      9  O   UNL     1     110.055 126.412 139.071  0.00  0.00    +0.000 OA
BRANCH   9  14
ATOM     10  O   UNL     1     109.751 127.418 140.039  0.00  0.00    +0.000 OA
ATOM     11  O   UNL     1     109.442 125.258 140.078  0.00  0.00    +0.000 OA
ATOM     12  O   UNL     1     108.831 125.687 141.549  0.00  0.00    +0.000 OA
ATOM     13  O   UNL     1     108.834 127.270 142.014  0.00  0.00    +0.000 OA
ATOM     14  C   UNL     1     109.750 126.627 139.807  0.00  0.00    +0.000 C 
ATOM     15  C   UNL     1     109.443 126.049 140.311  0.00  0.00    +0.000 C 
ATOM     16  C   UNL     1     109.137 126.264 141.046  0.00  0.00    +0.000 C 
ATOM     17  C   UNL     1     109.139 127.056 141.278  0.00  0.00    +0.000 C 
ATOM     18  C   UNL     1     109.445 127.633 140.775  0.00  0.00    +0.000 C 
ATOM     19  C   UNL     1     109.447 128.425 141.007  0.00  0.00    +0.000 C 
ENDBRANCH   9  14
ENDBRANCH   4   9
BRANCH   8  20
ATOM     20  O   UNL     1     111.695 126.589 139.030  0.00  0.00    +0.000 OA
BRANCH  20  25
ATOM     21  O   UNL     1     113.825 126.165 138.817  0.00  0.00    +0.000 OA
ATOM     22  O   UNL     1     111.696 125.686 137.649  0.00  0.00    +0.000 OA
ATOM     23  O   UNL     1     112.389 124.929 136.635  0.00  0.00    +0.000 OA
ATOM     24  O   UNL     1     115.291 124.653 136.805  0.00  0.00    +0.000 OA
ATOM     25  C   UNL     1     112.405 126.297 138.729  0.00  0.00    +0.000 A 
ATOM     26  C   UNL     1     113.115 126.457 139.118  0.00  0.00    +0.000 A 
ATOM     27  C   UNL     1     112.406 125.846 138.039  0.00  0.00    +0.000 A 
ATOM     28  C   UNL     1     113.116 125.554 137.737  0.00  0.00    +0.000 A 
ATOM     29  C   UNL     1     113.826 125.713 138.126  0.00  0.00    +0.000 A 
ATOM     30  C   UNL     1     113.104 125.084 137.017  0.00  0.00    +0.000 A 
ATOM     31  C   UNL     1     114.572 125.414 137.822  0.00  0.00    +0.000 A 
ATOM     32  C   UNL     1     113.840 124.777 136.698  0.00  0.00    +0.000 A 
ATOM     33  C   UNL     1     114.579 124.944 137.104  0.00  0.00    +0.000 A 
BRANCH  26  36
ATOM     34  O   UNL     1     113.499 128.964 140.436  0.00  0.00    +0.000 OA
ATOM     35  O   UNL     1     113.114 128.264 141.880  0.00  0.00    +0.000 OA
ATOM     36  C   UNL     1     113.115 126.909 139.808  0.00  0.00    +0.000 A 
ATOM     37  C   UNL     1     113.307 127.711 139.777  0.00  0.00    +0.000 A 
ATOM     38  C   UNL     1     112.922 126.559 140.530  0.00  0.00    +0.000 A 
ATOM     39  C   UNL     1     113.307 128.162 140.467  0.00  0.00    +0.000 A 
ATOM     40  C   UNL     1     112.922 127.010 141.221  0.00  0.00    +0.000 A 
ATOM     41  C   UNL     1     113.114 127.812 141.189  0.00  0.00    +0.000 A 
ENDBRANCH  26  36
ENDBRANCH  20  25
ENDBRANCH   8  20
BRANCH   7  42
ATOM     42  C   UNL     1     111.420 128.699 137.122  0.00  0.00    +0.000 C 
BRANCH  42  43
ATOM     43  O   UNL     1     111.885 129.296 137.450  0.00  0.00    +0.000 OA
BRANCH  43  48
ATOM     44  O   UNL     1     112.946 129.145 136.505  0.00  0.00    +0.000 OA
ATOM     45  O   UNL     1     112.246 130.899 137.600  0.00  0.00    +0.000 OA
ATOM     46  O   UNL     1     113.488 131.549 136.729  0.00  0.00    +0.000 OA
ATOM     47  O   UNL     1     114.368 130.597 135.709  0.00  0.00    +0.000 OA
ATOM     48  C   UNL     1     112.506 129.621 137.015  0.00  0.00    +0.000 C 
ATOM     49  C   UNL     1     112.687 130.423 137.089  0.00  0.00    +0.000 C 
ATOM     50  C   UNL     1     113.307 130.748 136.655  0.00  0.00    +0.000 C 
ATOM     51  C   UNL     1     113.747 130.272 136.145  0.00  0.00    +0.000 C 
ATOM     52  C   UNL     1     113.567 129.470 136.070  0.00  0.00    +0.000 C 
ATOM     53  C   UNL     1     114.007 128.994 135.560  0.00  0.00    +0.000 C 
ENDBRANCH  43  48
ENDBRANCH  42  43
ENDBRANCH   7  42
TORSDOF 8
ENDMDL
MODEL 8
REMARK VINA RESULT:     -10.8      1.918      5.621
REMARK  Name = 11498684
REMARK  8 active torsions:
REMARK  status: ('A' for Active; 'I' for Inactive)
REMARK    1  A    between atoms: O_1  and  C_21
REMARK    2  A    between atoms: O_1  and  C_26
REMARK    3  A    between atoms: O_4  and  C_29
REMARK    4  A    between atoms: O_4  and  C_32
REMARK    5  A    between atoms: O_6  and  C_25
REMARK    6  A    between atoms: O_6  and  C_39
REMARK    7  A    between atoms: C_24  and  C_29
REMARK    8  A    between atoms: C_40  and  C_43
REMARK                            x       y       z     vdW  Elec       q    Type
REMARK                         _______ _______ _______ _____ _____    ______ ____
ROOT
ATOM      1  O   UNL     1     111.283 127.914 138.255  0.00  0.00    +0.000 OA
ATOM      2  O   UNL     1     111.358 125.535 138.932  0.00  0.00    +0.000 OA
ATOM      3  O   UNL     1     111.056 126.704 140.057  0.00  0.00    +0.000 OA
ATOM      4  C   UNL     1     111.459 126.536 137.918  0.00  0.00    +0.000 C 
ATOM      5  C   UNL     1     111.333 126.328 138.706  0.00  0.00    +0.000 C 
ATOM      6  C   UNL     1     111.182 126.912 139.268  0.00  0.00    +0.000 C 
ATOM      7  C   UNL     1     111.157 127.705 139.043  0.00  0.00    +0.000 C 
ATOM      8  C   UNL     1     111.435 127.329 137.692  0.00  0.00    +0.000 C 
ENDROOT
BRANCH   4   9
ATOM      9  O   UNL     1     111.611 125.953 137.356  0.00  0.00    +0.000 OA
BRANCH   9  14
ATOM     10  O   UNL     1     112.976 125.894 137.774  0.00  0.00    +0.000 OA
ATOM     11  O   UNL     1     111.857 124.652 136.371  0.00  0.00    +0.000 OA
ATOM     12  O   UNL     1     113.346 123.943 136.297  0.00  0.00    +0.000 OA
ATOM     13  O   UNL     1     114.587 124.535 137.209  0.00  0.00    +0.000 OA
ATOM     14  C   UNL     1     112.355 125.598 137.319  0.00  0.00    +0.000 C 
ATOM     15  C   UNL     1     112.478 124.947 136.826  0.00  0.00    +0.000 C 
ATOM     16  C   UNL     1     113.222 124.593 136.789  0.00  0.00    +0.000 C 
ATOM     17  C   UNL     1     113.843 124.890 137.245  0.00  0.00    +0.000 C 
ATOM     18  C   UNL     1     113.720 125.540 137.737  0.00  0.00    +0.000 C 
ATOM     19  C   UNL     1     114.340 125.836 138.193  0.00  0.00    +0.000 C 
ENDBRANCH   9  14
ENDBRANCH   4   9
BRANCH   8  20
ATOM     20  O   UNL     1     111.561 127.539 136.904  0.00  0.00    +0.000 OA
BRANCH  20  25
ATOM     21  O   UNL     1     111.018 129.374 135.855  0.00  0.00    +0.000 OA
ATOM     22  O   UNL     1     109.914 127.430 136.917  0.00  0.00    +0.000 OA
ATOM     23  O   UNL     1     108.611 127.951 136.584  0.00  0.00    +0.000 OA
ATOM     24  O   UNL     1     108.421 130.488 135.151  0.00  0.00    +0.000 OA
ATOM     25  C   UNL     1     111.105 128.132 136.557  0.00  0.00    +0.000 A 
ATOM     26  C   UNL     1     111.474 128.781 136.203  0.00  0.00    +0.000 A 
ATOM     27  C   UNL     1     110.283 128.078 136.563  0.00  0.00    +0.000 A 
ATOM     28  C   UNL     1     109.827 128.671 136.215  0.00  0.00    +0.000 A 
ATOM     29  C   UNL     1     110.195 129.320 135.861  0.00  0.00    +0.000 A 
ATOM     30  C   UNL     1     108.970 128.603 136.228  0.00  0.00    +0.000 A 
ATOM     31  C   UNL     1     109.731 129.944 135.496  0.00  0.00    +0.000 A 
ATOM     32  C   UNL     1     108.490 129.218 135.868  0.00  0.00    +0.000 A 
ATOM     33  C   UNL     1     108.874 129.893 135.499  0.00  0.00    +0.000 A 
BRANCH  26  36
ATOM     34  O   UNL     1     113.894 129.821 137.311  0.00  0.00    +0.000 OA
ATOM     35  O   UNL     1     114.767 128.999 136.178  0.00  0.00    +0.000 OA
ATOM     36  C   UNL     1     112.296 128.835 136.197  0.00  0.00    +0.000 A 
ATOM     37  C   UNL     1     112.684 129.301 136.757  0.00  0.00    +0.000 A 
ATOM     38  C   UNL     1     112.733 128.424 135.630  0.00  0.00    +0.000 A 
ATOM     39  C   UNL     1     113.506 129.356 136.751  0.00  0.00    +0.000 A 
ATOM     40  C   UNL     1     113.556 128.479 135.623  0.00  0.00    +0.000 A 
ATOM     41  C   UNL     1     113.943 128.945 136.184  0.00  0.00    +0.000 A 
ENDBRANCH  26  36
ENDBRANCH  20  25
ENDBRANCH   8  20
BRANCH   7  42
ATOM     42  C   UNL     1     111.006 128.290 139.605  0.00  0.00    +0.000 C 
BRANCH  42  43
ATOM     43  O   UNL     1     111.522 128.929 139.684  0.00  0.00    +0.000 OA
BRANCH  43  48
ATOM     44  O   UNL     1     110.507 129.875 140.027  0.00  0.00    +0.000 OA
ATOM     45  O   UNL     1     112.595 129.732 140.646  0.00  0.00    +0.000 OA
ATOM     46  O   UNL     1     112.117 131.080 141.469  0.00  0.00    +0.000 OA
ATOM     47  O   UNL     1     110.565 131.624 141.331  0.00  0.00    +0.000 OA
ATOM     48  C   UNL     1     111.282 129.603 140.096  0.00  0.00    +0.000 C 
ATOM     49  C   UNL     1     111.819 130.005 140.577  0.00  0.00    +0.000 C 
ATOM     50  C   UNL     1     111.580 130.678 140.988  0.00  0.00    +0.000 C 
ATOM     51  C   UNL     1     110.805 130.950 140.919  0.00  0.00    +0.000 C 
ATOM     52  C   UNL     1     110.268 130.549 140.438  0.00  0.00    +0.000 C 
ATOM     53  C   UNL     1     109.492 130.821 140.369  0.00  0.00    +0.000 C 
ENDBRANCH  43  48
ENDBRANCH  42  43
ENDBRANCH   7  42
TORSDOF 8
ENDMDL
MODEL 9
REMARK VINA RESULT:     -10.8      1.822      3.172
REMARK  Name = 11498684
REMARK  8 active torsions:
REMARK  status: ('A' for Active; 'I' for Inactive)
REMARK    1  A    between atoms: O_1  and  C_21
REMARK    2  A    between atoms: O_1  and  C_26
REMARK    3  A    between atoms: O_4  and  C_29
REMARK    4  A    between atoms: O_4  and  C_32
REMARK    5  A    between atoms: O_6  and  C_25
REMARK    6  A    between atoms: O_6  and  C_39
REMARK    7  A    between atoms: C_24  and  C_29
REMARK    8  A    between atoms: C_40  and  C_43
REMARK                            x       y       z     vdW  Elec       q    Type
REMARK                         _______ _______ _______ _____ _____    ______ ____
ROOT
ATOM      1  O   UNL     1     111.989 128.653 137.027  0.00  0.00    +0.000 OA
ATOM      2  O   UNL     1     111.290 129.663 134.879  0.00  0.00    +0.000 OA
ATOM      3  O   UNL     1     112.129 128.243 134.888  0.00  0.00    +0.000 OA
ATOM      4  C   UNL     1     111.336 129.700 136.307  0.00  0.00    +0.000 C 
ATOM      5  C   UNL     1     111.523 129.326 135.595  0.00  0.00    +0.000 C 
ATOM      6  C   UNL     1     111.943 128.617 135.599  0.00  0.00    +0.000 C 
ATOM      7  C   UNL     1     112.176 128.280 136.315  0.00  0.00    +0.000 C 
ATOM      8  C   UNL     1     111.569 129.363 137.023  0.00  0.00    +0.000 C 
ENDROOT
BRANCH   4   9
ATOM      9  O   UNL     1     110.917 130.410 136.302  0.00  0.00    +0.000 OA
BRANCH   9  14
ATOM     10  O   UNL     1     109.696 129.688 136.130  0.00  0.00    +0.000 OA
ATOM     11  O   UNL     1     110.083 131.833 136.248  0.00  0.00    +0.000 OA
ATOM     12  O   UNL     1     108.445 131.822 136.049  0.00  0.00    +0.000 OA
ATOM     13  O   UNL     1     107.641 130.388 135.904  0.00  0.00    +0.000 OA
ATOM     14  C   UNL     1     110.098 130.405 136.203  0.00  0.00    +0.000 C 
ATOM     15  C   UNL     1     109.681 131.116 136.175  0.00  0.00    +0.000 C 
ATOM     16  C   UNL     1     108.862 131.111 136.076  0.00  0.00    +0.000 C 
ATOM     17  C   UNL     1     108.460 130.393 136.003  0.00  0.00    +0.000 C 
ATOM     18  C   UNL     1     108.877 129.683 136.031  0.00  0.00    +0.000 C 
ATOM     19  C   UNL     1     108.475 128.965 135.958  0.00  0.00    +0.000 C 
ENDBRANCH   9  14
ENDBRANCH   4   9
BRANCH   8  20
ATOM     20  O   UNL     1     111.383 129.736 137.734  0.00  0.00    +0.000 OA
BRANCH  20  25
ATOM     21  O   UNL     1     112.338 129.532 139.686  0.00  0.00    +0.000 OA
ATOM     22  O   UNL     1     112.851 130.429 137.437  0.00  0.00    +0.000 OA
ATOM     23  O   UNL     1     114.166 130.837 137.868  0.00  0.00    +0.000 OA
ATOM     24  O   UNL     1     114.977 130.327 140.627  0.00  0.00    +0.000 OA
ATOM     25  C   UNL     1     111.946 129.784 138.336  0.00  0.00    +0.000 A 
ATOM     26  C   UNL     1     111.775 129.484 139.085  0.00  0.00    +0.000 A 
ATOM     27  C   UNL     1     112.679 130.130 138.187  0.00  0.00    +0.000 A 
ATOM     28  C   UNL     1     113.242 130.177 138.788  0.00  0.00    +0.000 A 
ATOM     29  C   UNL     1     113.072 129.878 139.538  0.00  0.00    +0.000 A 
ATOM     30  C   UNL     1     114.004 130.540 138.621  0.00  0.00    +0.000 A 
ATOM     31  C   UNL     1     113.650 129.922 140.172  0.00  0.00    +0.000 A 
ATOM     32  C   UNL     1     114.595 130.593 139.243  0.00  0.00    +0.000 A 
ATOM     33  C   UNL     1     114.416 130.281 140.024  0.00  0.00    +0.000 A 
BRANCH  26  36
ATOM     34  O   UNL     1     108.992 129.741 139.683  0.00  0.00    +0.000 OA
ATOM     35  O   UNL     1     108.839 128.098 139.680  0.00  0.00    +0.000 OA
ATOM     36  C   UNL     1     111.041 129.138 139.234  0.00  0.00    +0.000 A 
ATOM     37  C   UNL     1     110.383 129.613 139.384  0.00  0.00    +0.000 A 
ATOM     38  C   UNL     1     110.965 128.317 139.232  0.00  0.00    +0.000 A 
ATOM     39  C   UNL     1     109.650 129.267 139.533  0.00  0.00    +0.000 A 
ATOM     40  C   UNL     1     110.231 127.970 139.381  0.00  0.00    +0.000 A 
ATOM     41  C   UNL     1     109.574 128.445 139.531  0.00  0.00    +0.000 A 
ENDBRANCH  26  36
ENDBRANCH  20  25
ENDBRANCH   8  20
BRANCH   7  42
ATOM     42  C   UNL     1     112.596 127.569 136.320  0.00  0.00    +0.000 C 
BRANCH  42  43
ATOM     43  O   UNL     1     112.279 126.906 136.696  0.00  0.00    +0.000 OA
BRANCH  43  48
ATOM     44  O   UNL     1     113.526 126.217 136.580  0.00  0.00    +0.000 OA
ATOM     45  O   UNL     1     111.530 125.486 137.078  0.00  0.00    +0.000 OA
ATOM     46  O   UNL     1     112.403 124.088 137.154  0.00  0.00    +0.000 OA
ATOM     47  O   UNL     1     114.024 124.109 136.846  0.00  0.00    +0.000 OA
ATOM     48  C   UNL     1     112.715 126.206 136.733  0.00  0.00    +0.000 C 
ATOM     49  C   UNL     1     112.341 125.496 136.925  0.00  0.00    +0.000 C 
ATOM     50  C   UNL     1     112.777 124.798 136.962  0.00  0.00    +0.000 C 
ATOM     51  C   UNL     1     113.587 124.808 136.809  0.00  0.00    +0.000 C 
ATOM     52  C   UNL     1     113.961 125.518 136.617  0.00  0.00    +0.000 C 
ATOM     53  C   UNL     1     114.772 125.528 136.463  0.00  0.00    +0.000 C 
ENDBRANCH  43  48
ENDBRANCH  42  43
ENDBRANCH   7  42
TORSDOF 8
ENDMDL
MODEL 10
REMARK VINA RESULT:     -10.8      1.466      4.986
REMARK  Name = 11498684
REMARK  8 active torsions:
REMARK  status: ('A' for Active; 'I' for Inactive)
REMARK    1  A    between atoms: O_1  and  C_21
REMARK    2  A    between atoms: O_1  and  C_26
REMARK    3  A    between atoms: O_4  and  C_29
REMARK    4  A    between atoms: O_4  and  C_32
REMARK    5  A    between atoms: O_6  and  C_25
REMARK    6  A    between atoms: O_6  and  C_39
REMARK    7  A    between atoms: C_24  and  C_29
REMARK    8  A    between atoms: C_40  and  C_43
REMARK                            x       y       z     vdW  Elec       q    Type
REMARK                         _______ _______ _______ _____ _____    ______ ____
ROOT
ATOM      1  O   UNL     1     111.514 129.538 137.817  0.00  0.00    +0.000 OA
ATOM      2  O   UNL     1     111.428 129.817 140.274  0.00  0.00    +0.000 OA
ATOM      3  O   UNL     1     110.385 130.658 139.312  0.00  0.00    +0.000 OA
ATOM      4  C   UNL     1     112.007 129.210 139.118  0.00  0.00    +0.000 C 
ATOM      5  C   UNL     1     111.457 129.724 139.455  0.00  0.00    +0.000 C 
ATOM      6  C   UNL     1     110.935 130.144 138.974  0.00  0.00    +0.000 C 
ATOM      7  C   UNL     1     110.964 130.051 138.155  0.00  0.00    +0.000 C 
ATOM      8  C   UNL     1     112.036 129.117 138.299  0.00  0.00    +0.000 C 
ENDROOT
BRANCH   4   9
ATOM      9  O   UNL     1     112.528 128.789 139.599  0.00  0.00    +0.000 OA
BRANCH   9  14
ATOM     10  O   UNL     1     111.529 127.794 139.826  0.00  0.00    +0.000 OA
ATOM     11  O   UNL     1     113.493 128.079 140.734  0.00  0.00    +0.000 OA
ATOM     12  O   UNL     1     112.975 126.729 141.528  0.00  0.00    +0.000 OA
ATOM     13  O   UNL     1     111.493 126.088 141.187  0.00  0.00    +0.000 OA
ATOM     14  C   UNL     1     112.269 128.114 139.996  0.00  0.00    +0.000 C 
ATOM     15  C   UNL     1     112.752 127.759 140.564  0.00  0.00    +0.000 C 
ATOM     16  C   UNL     1     112.493 127.083 140.961  0.00  0.00    +0.000 C 
ATOM     17  C   UNL     1     111.752 126.764 140.790  0.00  0.00    +0.000 C 
ATOM     18  C   UNL     1     111.270 127.118 140.223  0.00  0.00    +0.000 C 
ATOM     19  C   UNL     1     110.529 126.799 140.052  0.00  0.00    +0.000 C 
ENDBRANCH   9  14
ENDBRANCH   4   9
BRANCH   8  20
ATOM     20  O   UNL     1     112.586 128.603 137.960  0.00  0.00    +0.000 OA
BRANCH  20  25
ATOM     21  O   UNL     1     113.458 128.596 135.960  0.00  0.00    +0.000 OA
ATOM     22  O   UNL     1     113.424 130.024 137.981  0.00  0.00    +0.000 OA
ATOM     23  O   UNL     1     114.281 130.995 137.345  0.00  0.00    +0.000 OA
ATOM     24  O   UNL     1     115.189 130.511 134.612  0.00  0.00    +0.000 OA
ATOM     25  C   UNL     1     113.016 128.838 137.297  0.00  0.00    +0.000 A 
ATOM     26  C   UNL     1     113.027 128.362 136.623  0.00  0.00    +0.000 A 
ATOM     27  C   UNL     1     113.435 129.548 137.307  0.00  0.00    +0.000 A 
ATOM     28  C   UNL     1     113.865 129.783 136.644  0.00  0.00    +0.000 A 
ATOM     29  C   UNL     1     113.877 129.307 135.970  0.00  0.00    +0.000 A 
ATOM     30  C   UNL     1     114.298 130.525 136.666  0.00  0.00    +0.000 A 
ATOM     31  C   UNL     1     114.321 129.541 135.273  0.00  0.00    +0.000 A 
ATOM     32  C   UNL     1     114.748 130.776 135.979  0.00  0.00    +0.000 A 
ATOM     33  C   UNL     1     114.760 130.279 135.277  0.00  0.00    +0.000 A 
BRANCH  26  36
ATOM     34  O   UNL     1     110.680 126.882 135.938  0.00  0.00    +0.000 OA
ATOM     35  O   UNL     1     111.351 125.519 136.582  0.00  0.00    +0.000 OA
ATOM     36  C   UNL     1     112.608 127.652 136.613  0.00  0.00    +0.000 A 
ATOM     37  C   UNL     1     111.854 127.622 136.280  0.00  0.00    +0.000 A 
ATOM     38  C   UNL     1     112.944 126.970 136.935  0.00  0.00    +0.000 A 
ATOM     39  C   UNL     1     111.435 126.912 136.270  0.00  0.00    +0.000 A 
ATOM     40  C   UNL     1     112.525 126.259 136.925  0.00  0.00    +0.000 A 
ATOM     41  C   UNL     1     111.771 126.230 136.592  0.00  0.00    +0.000 A 
ENDBRANCH  26  36
ENDBRANCH  20  25
ENDBRANCH   8  20
BRANCH   7  42
ATOM     42  C   UNL     1     110.442 130.472 137.673  0.00  0.00    +0.000 C 
BRANCH  42  43
ATOM     43  O   UNL     1     109.995 130.075 137.105  0.00  0.00    +0.000 OA
BRANCH  43  48
ATOM     44  O   UNL     1     109.654 131.257 136.378  0.00  0.00    +0.000 OA
ATOM     45  O   UNL     1     108.563 129.387 136.660  0.00  0.00    +0.000 OA
ATOM     46  O   UNL     1     107.505 130.226 135.711  0.00  0.00    +0.000 OA
ATOM     47  O   UNL     1     107.880 131.751 135.206  0.00  0.00    +0.000 OA
ATOM     48  C   UNL     1     109.466 130.494 136.630  0.00  0.00    +0.000 C 
ATOM     49  C   UNL     1     108.750 130.150 136.407  0.00  0.00    +0.000 C 
ATOM     50  C   UNL     1     108.221 130.569 135.933  0.00  0.00    +0.000 C 
ATOM     51  C   UNL     1     108.409 131.331 135.681  0.00  0.00    +0.000 C 
ATOM     52  C   UNL     1     109.125 131.675 135.903  0.00  0.00    +0.000 C 
ATOM     53  C   UNL     1     109.313 132.439 135.651  0.00  0.00    +0.000 C 
ENDBRANCH  43  48
ENDBRANCH  42  43
ENDBRANCH   7  42
TORSDOF 8
ENDMDL
