MODEL 1
REMARK VINA RESULT:      -9.6      0.000      0.000
REMARK  Name = 5465153
REMARK  7 active torsions:
REMARK  status: ('A' for Active; 'I' for Inactive)
REMARK    1  A    between atoms: O_1  and  C_16
REMARK    2  A    between atoms: O_1  and  C_20
REMARK    3  A    between atoms: O_5  and  C_22
REMARK    4  A    between atoms: O_5  and  C_27
REMARK    5  A    between atoms: C_17  and  C_25
REMARK    6  A    between atoms: C_23  and  C_26
REMARK    7  A    between atoms: C_28  and  C_31
REMARK                            x       y       z     vdW  Elec       q    Type
REMARK                         _______ _______ _______ _____ _____    ______ ____
ROOT
ATOM      1  O   UNL     1     111.420 126.284 138.968  0.00  0.00    +0.000 OA
ENDROOT
BRANCH   1   6
ATOM      2  O   UNL     1     113.575 126.229 138.631  0.00  0.00    +0.000 OA
ATOM      3  O   UNL     1     111.528 125.084 137.840  0.00  0.00    +0.000 OA
ATOM      4  O   UNL     1     112.303 124.245 136.958  0.00  0.00    +0.000 OA
ATOM      5  O   UNL     1     115.204 124.572 136.875  0.00  0.00    +0.000 OA
ATOM      6  C   UNL     1     112.157 126.066 138.667  0.00  0.00    +0.000 A 
ATOM      7  C   UNL     1     112.839 126.448 138.931  0.00  0.00    +0.000 A 
ATOM      8  C   UNL     1     112.211 125.466 138.104  0.00  0.00    +0.000 A 
ATOM      9  C   UNL     1     112.947 125.248 137.803  0.00  0.00    +0.000 A 
ATOM     10  C   UNL     1     113.630 125.629 138.066  0.00  0.00    +0.000 A 
ATOM     11  C   UNL     1     112.991 124.622 137.216  0.00  0.00    +0.000 A 
ATOM     12  C   UNL     1     114.403 125.412 137.762  0.00  0.00    +0.000 A 
ATOM     13  C   UNL     1     113.756 124.390 136.900  0.00  0.00    +0.000 A 
ATOM     14  C   UNL     1     114.466 124.788 137.174  0.00  0.00    +0.000 A 
BRANCH   7  16
ATOM     15  O   UNL     1     112.622 128.846 141.188  0.00  0.00    +0.000 OA
ATOM     16  C   UNL     1     112.785 127.047 139.495  0.00  0.00    +0.000 A 
ATOM     17  C   UNL     1     112.743 126.856 140.296  0.00  0.00    +0.000 A 
ATOM     18  C   UNL     1     112.772 127.837 139.258  0.00  0.00    +0.000 A 
ATOM     19  C   UNL     1     112.689 127.456 140.861  0.00  0.00    +0.000 A 
ATOM     20  C   UNL     1     112.718 128.436 139.821  0.00  0.00    +0.000 A 
ATOM     21  C   UNL     1     112.676 128.246 140.623  0.00  0.00    +0.000 A 
ENDBRANCH   7  16
ENDBRANCH   1   6
BRANCH   1  28
ATOM     22  O   UNL     1     110.988 126.924 137.766  0.00  0.00    +0.000 OA
ATOM     23  O   UNL     1     108.644 126.323 138.288  0.00  0.00    +0.000 OA
ATOM     24  O   UNL     1     108.994 127.163 136.912  0.00  0.00    +0.000 OA
ATOM     25  C   UNL     1     110.032 126.303 138.628  0.00  0.00    +0.000 C 
ATOM     26  C   UNL     1     109.426 126.524 138.114  0.00  0.00    +0.000 C 
ATOM     27  C   UNL     1     109.600 126.944 137.426  0.00  0.00    +0.000 C 
ATOM     28  C   UNL     1     110.813 126.503 138.454  0.00  0.00    +0.000 C 
ATOM     29  C   UNL     1     110.381 127.144 137.252  0.00  0.00    +0.000 C 
BRANCH  29  31
ATOM     30  O   UNL     1     110.908 128.309 136.615  0.00  0.00    +0.000 OA
ATOM     31  C   UNL     1     110.556 127.564 136.564  0.00  0.00    +0.000 C 
ENDBRANCH  29  31
BRANCH  25  32
ATOM     32  O   UNL     1     109.857 125.883 139.316  0.00  0.00    +0.000 OA
BRANCH  32  38
ATOM     33  O   UNL     1     109.317 127.069 139.996  0.00  0.00    +0.000 OA
ATOM     34  O   UNL     1     108.925 125.967 141.781  0.00  0.00    +0.000 OA
ATOM     35  O   UNL     1     109.453 125.140 140.898  0.00  0.00    +0.000 OA
ATOM     36  C   UNL     1     109.016 126.517 141.173  0.00  0.00    +0.000 C 
ATOM     37  C   UNL     1     109.338 125.929 140.690  0.00  0.00    +0.000 C 
ATOM     38  C   UNL     1     109.524 126.271 139.963  0.00  0.00    +0.000 C 
ATOM     39  C   UNL     1     109.004 127.221 140.744  0.00  0.00    +0.000 C 
BRANCH  36  41
ATOM     40  O   UNL     1     108.109 126.526 142.277  0.00  0.00    +0.000 OA
ATOM     41  C   UNL     1     108.682 126.905 141.820  0.00  0.00    +0.000 C 
ENDBRANCH  36  41
ENDBRANCH  32  38
ENDBRANCH  25  32
ENDBRANCH   1  28
TORSDOF 7
ENDMDL
MODEL 2
REMARK VINA RESULT:      -9.5      2.076      3.958
REMARK  Name = 5465153
REMARK  7 active torsions:
REMARK  status: ('A' for Active; 'I' for Inactive)
REMARK    1  A    between atoms: O_1  and  C_16
REMARK    2  A    between atoms: O_1  and  C_20
REMARK    3  A    between atoms: O_5  and  C_22
REMARK    4  A    between atoms: O_5  and  C_27
REMARK    5  A    between atoms: C_17  and  C_25
REMARK    6  A    between atoms: C_23  and  C_26
REMARK    7  A    between atoms: C_28  and  C_31
REMARK                            x       y       z     vdW  Elec       q    Type
REMARK                         _______ _______ _______ _____ _____    ______ ____
ROOT
ATOM      1  O   UNL     1     110.995 127.746 136.910  0.00  0.00    +0.000 OA
ENDROOT
BRANCH   1   6
ATOM      2  O   UNL     1     112.634 126.464 136.252  0.00  0.00    +0.000 OA
ATOM      3  O   UNL     1     110.567 126.311 137.604  0.00  0.00    +0.000 OA
ATOM      4  O   UNL     1     110.806 124.913 137.865  0.00  0.00    +0.000 OA
ATOM      5  O   UNL     1     113.182 123.645 136.736  0.00  0.00    +0.000 OA
ATOM      6  C   UNL     1     111.470 127.079 136.806  0.00  0.00    +0.000 A 
ATOM      7  C   UNL     1     112.159 127.131 136.355  0.00  0.00    +0.000 A 
ATOM      8  C   UNL     1     111.256 126.363 137.153  0.00  0.00    +0.000 A 
ATOM      9  C   UNL     1     111.731 125.696 137.049  0.00  0.00    +0.000 A 
ATOM     10  C   UNL     1     112.420 125.746 136.599  0.00  0.00    +0.000 A 
ATOM     11  C   UNL     1     111.497 124.955 137.416  0.00  0.00    +0.000 A 
ATOM     12  C   UNL     1     112.923 125.060 136.483  0.00  0.00    +0.000 A 
ATOM     13  C   UNL     1     111.988 124.257 137.311  0.00  0.00    +0.000 A 
ATOM     14  C   UNL     1     112.705 124.310 136.842  0.00  0.00    +0.000 A 
BRANCH   7  16
ATOM     15  O   UNL     1     113.017 129.999 134.967  0.00  0.00    +0.000 OA
ATOM     16  C   UNL     1     112.374 127.847 136.009  0.00  0.00    +0.000 A 
ATOM     17  C   UNL     1     112.018 128.087 135.304  0.00  0.00    +0.000 A 
ATOM     18  C   UNL     1     112.944 128.325 136.366  0.00  0.00    +0.000 A 
ATOM     19  C   UNL     1     112.232 128.805 134.956  0.00  0.00    +0.000 A 
ATOM     20  C   UNL     1     113.158 129.042 136.019  0.00  0.00    +0.000 A 
ATOM     21  C   UNL     1     112.802 129.281 135.315  0.00  0.00    +0.000 A 
ENDBRANCH   7  16
ENDBRANCH   1   6
BRANCH   1  28
ATOM     22  O   UNL     1     111.376 127.974 138.268  0.00  0.00    +0.000 OA
ATOM     23  O   UNL     1     109.110 128.842 138.757  0.00  0.00    +0.000 OA
ATOM     24  O   UNL     1     110.245 128.781 139.952  0.00  0.00    +0.000 OA
ATOM     25  C   UNL     1     110.052 128.294 137.833  0.00  0.00    +0.000 C 
ATOM     26  C   UNL     1     109.865 128.553 138.594  0.00  0.00    +0.000 C 
ATOM     27  C   UNL     1     110.432 128.522 139.192  0.00  0.00    +0.000 C 
ATOM     28  C   UNL     1     110.807 128.005 137.670  0.00  0.00    +0.000 C 
ATOM     29  C   UNL     1     111.188 128.233 139.029  0.00  0.00    +0.000 C 
BRANCH  29  31
ATOM     30  O   UNL     1     112.458 128.629 139.549  0.00  0.00    +0.000 OA
ATOM     31  C   UNL     1     111.756 128.202 139.626  0.00  0.00    +0.000 C 
ENDBRANCH  29  31
BRANCH  25  32
ATOM     32  O   UNL     1     109.485 128.325 137.236  0.00  0.00    +0.000 OA
BRANCH  32  38
ATOM     33  O   UNL     1     109.654 129.772 137.042  0.00  0.00    +0.000 OA
ATOM     34  O   UNL     1     108.142 129.830 135.537  0.00  0.00    +0.000 OA
ATOM     35  O   UNL     1     108.253 128.583 135.957  0.00  0.00    +0.000 OA
ATOM     36  C   UNL     1     108.738 129.965 136.090  0.00  0.00    +0.000 C 
ATOM     37  C   UNL     1     108.736 129.163 136.288  0.00  0.00    +0.000 C 
ATOM     38  C   UNL     1     109.303 129.045 136.877  0.00  0.00    +0.000 C 
ATOM     39  C   UNL     1     109.306 130.341 136.556  0.00  0.00    +0.000 C 
BRANCH  36  41
ATOM     40  O   UNL     1     107.771 130.871 135.557  0.00  0.00    +0.000 OA
ATOM     41  C   UNL     1     108.556 130.685 135.731  0.00  0.00    +0.000 C 
ENDBRANCH  36  41
ENDBRANCH  32  38
ENDBRANCH  25  32
ENDBRANCH   1  28
TORSDOF 7
ENDMDL
MODEL 3
REMARK VINA RESULT:      -9.5      2.421      4.208
REMARK  Name = 5465153
REMARK  7 active torsions:
REMARK  status: ('A' for Active; 'I' for Inactive)
REMARK    1  A    between atoms: O_1  and  C_16
REMARK    2  A    between atoms: O_1  and  C_20
REMARK    3  A    between atoms: O_5  and  C_22
REMARK    4  A    between atoms: O_5  and  C_27
REMARK    5  A    between atoms: C_17  and  C_25
REMARK    6  A    between atoms: C_23  and  C_26
REMARK    7  A    between atoms: C_28  and  C_31
REMARK                            x       y       z     vdW  Elec       q    Type
REMARK                         _______ _______ _______ _____ _____    ______ ____
ROOT
ATOM      1  O   UNL     1     112.105 127.568 137.664  0.00  0.00    +0.000 OA
ENDROOT
BRANCH   1   6
ATOM      2  O   UNL     1     113.279 126.301 138.998  0.00  0.00    +0.000 OA
ATOM      3  O   UNL     1     112.701 128.691 138.716  0.00  0.00    +0.000 OA
ATOM      4  O   UNL     1     113.491 129.048 139.870  0.00  0.00    +0.000 OA
ATOM      5  O   UNL     1     114.892 126.946 141.335  0.00  0.00    +0.000 OA
ATOM      6  C   UNL     1     112.596 127.333 138.284  0.00  0.00    +0.000 A 
ATOM      7  C   UNL     1     112.788 126.536 138.378  0.00  0.00    +0.000 A 
ATOM      8  C   UNL     1     112.894 127.894 138.810  0.00  0.00    +0.000 A 
ATOM      9  C   UNL     1     113.385 127.659 139.430  0.00  0.00    +0.000 A 
ATOM     10  C   UNL     1     113.578 126.862 139.524  0.00  0.00    +0.000 A 
ATOM     11  C   UNL     1     113.689 128.253 139.971  0.00  0.00    +0.000 A 
ATOM     12  C   UNL     1     114.088 126.604 140.166  0.00  0.00    +0.000 A 
ATOM     13  C   UNL     1     114.201 128.014 140.619  0.00  0.00    +0.000 A 
ATOM     14  C   UNL     1     114.401 127.184 140.716  0.00  0.00    +0.000 A 
BRANCH   7  16
ATOM     15  O   UNL     1     111.596 124.290 136.275  0.00  0.00    +0.000 OA
ATOM     16  C   UNL     1     112.491 125.975 137.852  0.00  0.00    +0.000 A 
ATOM     17  C   UNL     1     111.727 125.680 137.953  0.00  0.00    +0.000 A 
ATOM     18  C   UNL     1     112.956 125.707 137.226  0.00  0.00    +0.000 A 
ATOM     19  C   UNL     1     111.428 125.118 137.427  0.00  0.00    +0.000 A 
ATOM     20  C   UNL     1     112.658 125.146 136.700  0.00  0.00    +0.000 A 
ATOM     21  C   UNL     1     111.894 124.852 136.801  0.00  0.00    +0.000 A 
ENDBRANCH   7  16
ENDBRANCH   1   6
BRANCH   1  28
ATOM     22  O   UNL     1     113.143 128.137 136.864  0.00  0.00    +0.000 OA
ATOM     23  O   UNL     1     111.570 129.871 136.058  0.00  0.00    +0.000 OA
ATOM     24  O   UNL     1     113.131 129.862 135.526  0.00  0.00    +0.000 OA
ATOM     25  C   UNL     1     111.837 128.720 136.861  0.00  0.00    +0.000 C 
ATOM     26  C   UNL     1     112.094 129.293 136.327  0.00  0.00    +0.000 C 
ATOM     27  C   UNL     1     112.874 129.289 136.060  0.00  0.00    +0.000 C 
ATOM     28  C   UNL     1     112.361 128.142 137.130  0.00  0.00    +0.000 C 
ATOM     29  C   UNL     1     113.398 128.711 136.329  0.00  0.00    +0.000 C 
BRANCH  29  31
ATOM     30  O   UNL     1     114.463 128.063 135.630  0.00  0.00    +0.000 OA
ATOM     31  C   UNL     1     114.179 128.706 136.063  0.00  0.00    +0.000 C 
ENDBRANCH  29  31
BRANCH  25  32
ATOM     32  O   UNL     1     111.057 128.724 137.127  0.00  0.00    +0.000 OA
BRANCH  32  38
ATOM     33  O   UNL     1     110.549 128.121 135.887  0.00  0.00    +0.000 OA
ATOM     34  O   UNL     1     108.542 128.114 136.615  0.00  0.00    +0.000 OA
ATOM     35  O   UNL     1     109.315 128.630 137.552  0.00  0.00    +0.000 OA
ATOM     36  C   UNL     1     109.253 128.052 136.202  0.00  0.00    +0.000 C 
ATOM     37  C   UNL     1     109.655 128.384 136.842  0.00  0.00    +0.000 C 
ATOM     38  C   UNL     1     110.455 128.427 136.647  0.00  0.00    +0.000 C 
ATOM     39  C   UNL     1     109.806 127.889 135.612  0.00  0.00    +0.000 C 
BRANCH  36  41
ATOM     40  O   UNL     1     107.926 128.145 135.681  0.00  0.00    +0.000 OA
ATOM     41  C   UNL     1     108.652 127.755 135.721  0.00  0.00    +0.000 C 
ENDBRANCH  36  41
ENDBRANCH  32  38
ENDBRANCH  25  32
ENDBRANCH   1  28
TORSDOF 7
ENDMDL
MODEL 4
REMARK VINA RESULT:      -9.3      2.574      5.256
REMARK  Name = 5465153
REMARK  7 active torsions:
REMARK  status: ('A' for Active; 'I' for Inactive)
REMARK    1  A    between atoms: O_1  and  C_16
REMARK    2  A    between atoms: O_1  and  C_20
REMARK    3  A    between atoms: O_5  and  C_22
REMARK    4  A    between atoms: O_5  and  C_27
REMARK    5  A    between atoms: C_17  and  C_25
REMARK    6  A    between atoms: C_23  and  C_26
REMARK    7  A    between atoms: C_28  and  C_31
REMARK                            x       y       z     vdW  Elec       q    Type
REMARK                         _______ _______ _______ _____ _____    ______ ____
ROOT
ATOM      1  O   UNL     1     112.341 129.478 138.154  0.00  0.00    +0.000 OA
ENDROOT
BRANCH   1   6
ATOM      2  O   UNL     1     111.464 129.943 136.211  0.00  0.00    +0.000 OA
ATOM      3  O   UNL     1     110.765 129.066 138.417  0.00  0.00    +0.000 OA
ATOM      4  O   UNL     1     109.401 128.934 137.965  0.00  0.00    +0.000 OA
ATOM      5  O   UNL     1     108.732 129.705 135.229  0.00  0.00    +0.000 OA
ATOM      6  C   UNL     1     111.786 129.564 137.550  0.00  0.00    +0.000 A 
ATOM      7  C   UNL     1     112.019 129.857 136.815  0.00  0.00    +0.000 A 
ATOM      8  C   UNL     1     110.998 129.358 137.682  0.00  0.00    +0.000 A 
ATOM      9  C   UNL     1     110.443 129.444 137.078  0.00  0.00    +0.000 A 
ATOM     10  C   UNL     1     110.675 129.736 136.342  0.00  0.00    +0.000 A 
ATOM     11  C   UNL     1     109.626 129.226 137.227  0.00  0.00    +0.000 A 
ATOM     12  C   UNL     1     110.107 129.831 135.704  0.00  0.00    +0.000 A 
ATOM     13  C   UNL     1     109.043 129.313 136.601  0.00  0.00    +0.000 A 
ATOM     14  C   UNL     1     109.285 129.618 135.835  0.00  0.00    +0.000 A 
BRANCH   7  16
ATOM     15  O   UNL     1     115.171 130.683 136.289  0.00  0.00    +0.000 OA
ATOM     16  C   UNL     1     112.806 130.063 136.683  0.00  0.00    +0.000 A 
ATOM     17  C   UNL     1     113.089 130.794 136.940  0.00  0.00    +0.000 A 
ATOM     18  C   UNL     1     113.312 129.538 136.296  0.00  0.00    +0.000 A 
ATOM     19  C   UNL     1     113.878 131.001 136.808  0.00  0.00    +0.000 A 
ATOM     20  C   UNL     1     114.099 129.745 136.164  0.00  0.00    +0.000 A 
ATOM     21  C   UNL     1     114.382 130.476 136.421  0.00  0.00    +0.000 A 
ENDBRANCH   7  16
ENDBRANCH   1   6
BRANCH   1  28
ATOM     22  O   UNL     1     112.435 128.056 138.053  0.00  0.00    +0.000 OA
ATOM     23  O   UNL     1     112.824 127.907 140.492  0.00  0.00    +0.000 OA
ATOM     24  O   UNL     1     112.789 126.535 139.577  0.00  0.00    +0.000 OA
ATOM     25  C   UNL     1     112.582 128.693 139.324  0.00  0.00    +0.000 C 
ATOM     26  C   UNL     1     112.694 127.957 139.679  0.00  0.00    +0.000 C 
ATOM     27  C   UNL     1     112.677 127.271 139.222  0.00  0.00    +0.000 C 
ATOM     28  C   UNL     1     112.453 128.743 138.511  0.00  0.00    +0.000 C 
ATOM     29  C   UNL     1     112.547 127.321 138.409  0.00  0.00    +0.000 C 
BRANCH  29  31
ATOM     30  O   UNL     1     113.084 126.527 137.349  0.00  0.00    +0.000 OA
ATOM     31  C   UNL     1     112.530 126.635 137.951  0.00  0.00    +0.000 C 
ENDBRANCH  29  31
BRANCH  25  32
ATOM     32  O   UNL     1     112.600 129.379 139.781  0.00  0.00    +0.000 OA
BRANCH  32  38
ATOM     33  O   UNL     1     114.067 129.381 139.861  0.00  0.00    +0.000 OA
ATOM     34  O   UNL     1     114.082 131.156 141.046  0.00  0.00    +0.000 OA
ATOM     35  O   UNL     1     112.825 130.854 140.778  0.00  0.00    +0.000 OA
ATOM     36  C   UNL     1     114.235 130.479 140.602  0.00  0.00    +0.000 C 
ATOM     37  C   UNL     1     113.425 130.370 140.487  0.00  0.00    +0.000 C 
ATOM     38  C   UNL     1     113.322 129.692 140.028  0.00  0.00    +0.000 C 
ATOM     39  C   UNL     1     114.632 129.868 140.215  0.00  0.00    +0.000 C 
BRANCH  36  41
ATOM     40  O   UNL     1     115.043 131.607 140.945  0.00  0.00    +0.000 OA
ATOM     41  C   UNL     1     114.958 130.791 140.849  0.00  0.00    +0.000 C 
ENDBRANCH  36  41
ENDBRANCH  32  38
ENDBRANCH  25  32
ENDBRANCH   1  28
TORSDOF 7
ENDMDL
MODEL 5
REMARK VINA RESULT:      -9.3      2.036      4.550
REMARK  Name = 5465153
REMARK  7 active torsions:
REMARK  status: ('A' for Active; 'I' for Inactive)
REMARK    1  A    between atoms: O_1  and  C_16
REMARK    2  A    between atoms: O_1  and  C_20
REMARK    3  A    between atoms: O_5  and  C_22
REMARK    4  A    between atoms: O_5  and  C_27
REMARK    5  A    between atoms: C_17  and  C_25
REMARK    6  A    between atoms: C_23  and  C_26
REMARK    7  A    between atoms: C_28  and  C_31
REMARK                            x       y       z     vdW  Elec       q    Type
REMARK                         _______ _______ _______ _____ _____    ______ ____
ROOT
ATOM      1  O   UNL     1     112.113 128.735 138.101  0.00  0.00    +0.000 OA
ENDROOT
BRANCH   1   6
ATOM      2  O   UNL     1     113.878 129.999 138.330  0.00  0.00    +0.000 OA
ATOM      3  O   UNL     1     112.192 128.865 139.744  0.00  0.00    +0.000 OA
ATOM      4  O   UNL     1     112.820 129.364 140.944  0.00  0.00    +0.000 OA
ATOM      5  O   UNL     1     115.197 131.043 140.708  0.00  0.00    +0.000 OA
ATOM      6  C   UNL     1     112.715 129.178 138.452  0.00  0.00    +0.000 A 
ATOM      7  C   UNL     1     113.276 129.556 137.980  0.00  0.00    +0.000 A 
ATOM      8  C   UNL     1     112.754 129.243 139.273  0.00  0.00    +0.000 A 
ATOM      9  C   UNL     1     113.355 129.686 139.623  0.00  0.00    +0.000 A 
ATOM     10  C   UNL     1     113.917 130.064 139.153  0.00  0.00    +0.000 A 
ATOM     11  C   UNL     1     113.386 129.745 140.480  0.00  0.00    +0.000 A 
ATOM     12  C   UNL     1     114.549 130.528 139.505  0.00  0.00    +0.000 A 
ATOM     13  C   UNL     1     114.010 130.206 140.851  0.00  0.00    +0.000 A 
ATOM     14  C   UNL     1     114.595 130.599 140.360  0.00  0.00    +0.000 A 
BRANCH   7  16
ATOM     15  O   UNL     1     113.119 129.298 134.694  0.00  0.00    +0.000 OA
ATOM     16  C   UNL     1     113.237 129.492 137.159  0.00  0.00    +0.000 A 
ATOM     17  C   UNL     1     112.728 129.980 136.731  0.00  0.00    +0.000 A 
ATOM     18  C   UNL     1     113.706 128.939 136.765  0.00  0.00    +0.000 A 
ATOM     19  C   UNL     1     112.688 129.915 135.909  0.00  0.00    +0.000 A 
ATOM     20  C   UNL     1     113.667 128.874 135.944  0.00  0.00    +0.000 A 
ATOM     21  C   UNL     1     113.158 129.363 135.516  0.00  0.00    +0.000 A 
ENDBRANCH   7  16
ENDBRANCH   1   6
BRANCH   1  28
ATOM     22  O   UNL     1     112.662 127.464 138.453  0.00  0.00    +0.000 OA
ATOM     23  O   UNL     1     110.378 126.534 138.658  0.00  0.00    +0.000 OA
ATOM     24  O   UNL     1     111.688 125.573 138.942  0.00  0.00    +0.000 OA
ATOM     25  C   UNL     1     111.245 127.635 138.380  0.00  0.00    +0.000 C 
ATOM     26  C   UNL     1     111.139 126.844 138.590  0.00  0.00    +0.000 C 
ATOM     27  C   UNL     1     111.794 126.363 138.732  0.00  0.00    +0.000 C 
ATOM     28  C   UNL     1     112.007 127.945 138.311  0.00  0.00    +0.000 C 
ATOM     29  C   UNL     1     112.556 126.673 138.663  0.00  0.00    +0.000 C 
BRANCH  29  31
ATOM     30  O   UNL     1     113.727 126.008 138.188  0.00  0.00    +0.000 OA
ATOM     31  C   UNL     1     113.211 126.193 138.805  0.00  0.00    +0.000 C 
ENDBRANCH  29  31
BRANCH  25  32
ATOM     32  O   UNL     1     110.590 128.115 138.238  0.00  0.00    +0.000 OA
BRANCH  32  38
ATOM     33  O   UNL     1     110.363 127.544 136.903  0.00  0.00    +0.000 OA
ATOM     34  O   UNL     1     108.694 128.827 136.549  0.00  0.00    +0.000 OA
ATOM     35  O   UNL     1     109.170 129.098 137.749  0.00  0.00    +0.000 OA
ATOM     36  C   UNL     1     109.307 128.275 136.539  0.00  0.00    +0.000 C 
ATOM     37  C   UNL     1     109.533 128.513 137.297  0.00  0.00    +0.000 C 
ATOM     38  C   UNL     1     110.186 128.060 137.521  0.00  0.00    +0.000 C 
ATOM     39  C   UNL     1     109.820 127.677 136.296  0.00  0.00    +0.000 C 
BRANCH  36  41
ATOM     40  O   UNL     1     108.124 128.488 135.767  0.00  0.00    +0.000 OA
ATOM     41  C   UNL     1     108.902 128.220 135.822  0.00  0.00    +0.000 C 
ENDBRANCH  36  41
ENDBRANCH  32  38
ENDBRANCH  25  32
ENDBRANCH   1  28
TORSDOF 7
ENDMDL
MODEL 6
REMARK VINA RESULT:      -9.3      3.654      5.871
REMARK  Name = 5465153
REMARK  7 active torsions:
REMARK  status: ('A' for Active; 'I' for Inactive)
REMARK    1  A    between atoms: O_1  and  C_16
REMARK    2  A    between atoms: O_1  and  C_20
REMARK    3  A    between atoms: O_5  and  C_22
REMARK    4  A    between atoms: O_5  and  C_27
REMARK    5  A    between atoms: C_17  and  C_25
REMARK    6  A    between atoms: C_23  and  C_26
REMARK    7  A    between atoms: C_28  and  C_31
REMARK                            x       y       z     vdW  Elec       q    Type
REMARK                         _______ _______ _______ _____ _____    ______ ____
ROOT
ATOM      1  O   UNL     1     110.582 130.310 136.325  0.00  0.00    +0.000 OA
ENDROOT
BRANCH   1   6
ATOM      2  O   UNL     1     111.821 128.570 135.879  0.00  0.00    +0.000 OA
ATOM      3  O   UNL     1     112.086 130.986 136.345  0.00  0.00    +0.000 OA
ATOM      4  O   UNL     1     113.520 130.884 136.215  0.00  0.00    +0.000 OA
ATOM      5  O   UNL     1     114.707 128.287 135.601  0.00  0.00    +0.000 OA
ATOM      6  C   UNL     1     111.246 129.842 136.180  0.00  0.00    +0.000 A 
ATOM      7  C   UNL     1     111.157 129.037 136.024  0.00  0.00    +0.000 A 
ATOM      8  C   UNL     1     111.998 130.181 136.190  0.00  0.00    +0.000 A 
ATOM      9  C   UNL     1     112.662 129.713 136.045  0.00  0.00    +0.000 A 
ATOM     10  C   UNL     1     112.574 128.908 135.890  0.00  0.00    +0.000 A 
ATOM     11  C   UNL     1     113.440 130.078 136.059  0.00  0.00    +0.000 A 
ATOM     12  C   UNL     1     113.258 128.410 135.737  0.00  0.00    +0.000 A 
ATOM     13  C   UNL     1     114.136 129.595 135.908  0.00  0.00    +0.000 A 
ATOM     14  C   UNL     1     114.044 128.757 135.747  0.00  0.00    +0.000 A 
BRANCH   7  16
ATOM     15  O   UNL     1     108.147 127.684 135.981  0.00  0.00    +0.000 OA
ATOM     16  C   UNL     1     110.405 128.699 136.014  0.00  0.00    +0.000 A 
ATOM     17  C   UNL     1     109.946 128.736 135.329  0.00  0.00    +0.000 A 
ATOM     18  C   UNL     1     110.111 128.323 136.687  0.00  0.00    +0.000 A 
ATOM     19  C   UNL     1     109.193 128.397 135.318  0.00  0.00    +0.000 A 
ATOM     20  C   UNL     1     109.360 127.985 136.677  0.00  0.00    +0.000 A 
ATOM     21  C   UNL     1     108.900 128.022 135.992  0.00  0.00    +0.000 A 
ENDBRANCH   7  16
ENDBRANCH   1   6
BRANCH   1  28
ATOM     22  O   UNL     1     110.837 130.458 137.723  0.00  0.00    +0.000 OA
ATOM     23  O   UNL     1     109.792 132.701 137.676  0.00  0.00    +0.000 OA
ATOM     24  O   UNL     1     110.395 132.102 139.089  0.00  0.00    +0.000 OA
ATOM     25  C   UNL     1     110.186 131.506 137.000  0.00  0.00    +0.000 C 
ATOM     26  C   UNL     1     110.140 131.953 137.691  0.00  0.00    +0.000 C 
ATOM     27  C   UNL     1     110.442 131.654 138.398  0.00  0.00    +0.000 C 
ATOM     28  C   UNL     1     110.535 130.758 137.015  0.00  0.00    +0.000 C 
ATOM     29  C   UNL     1     110.790 130.906 138.413  0.00  0.00    +0.000 C 
BRANCH  29  31
ATOM     30  O   UNL     1     110.769 129.921 139.448  0.00  0.00    +0.000 OA
ATOM     31  C   UNL     1     111.092 130.606 139.120  0.00  0.00    +0.000 C 
ENDBRANCH  29  31
BRANCH  25  32
ATOM     32  O   UNL     1     109.885 131.805 136.293  0.00  0.00    +0.000 OA
BRANCH  32  38
ATOM     33  O   UNL     1     108.493 131.537 136.681  0.00  0.00    +0.000 OA
ATOM     34  O   UNL     1     107.757 132.155 134.775  0.00  0.00    +0.000 OA
ATOM     35  O   UNL     1     109.071 132.280 134.766  0.00  0.00    +0.000 OA
ATOM     36  C   UNL     1     107.887 131.890 135.545  0.00  0.00    +0.000 C 
ATOM     37  C   UNL     1     108.699 132.000 135.446  0.00  0.00    +0.000 C 
ATOM     38  C   UNL     1     109.073 131.782 136.149  0.00  0.00    +0.000 C 
ATOM     39  C   UNL     1     107.759 131.603 136.308  0.00  0.00    +0.000 C 
BRANCH  36  41
ATOM     40  O   UNL     1     106.769 132.202 134.711  0.00  0.00    +0.000 OA
ATOM     41  C   UNL     1     107.075 131.867 135.400  0.00  0.00    +0.000 C 
ENDBRANCH  36  41
ENDBRANCH  32  38
ENDBRANCH  25  32
ENDBRANCH   1  28
TORSDOF 7
ENDMDL
MODEL 7
REMARK VINA RESULT:      -9.2      2.278      4.020
REMARK  Name = 5465153
REMARK  7 active torsions:
REMARK  status: ('A' for Active; 'I' for Inactive)
REMARK    1  A    between atoms: O_1  and  C_16
REMARK    2  A    between atoms: O_1  and  C_20
REMARK    3  A    between atoms: O_5  and  C_22
REMARK    4  A    between atoms: O_5  and  C_27
REMARK    5  A    between atoms: C_17  and  C_25
REMARK    6  A    between atoms: C_23  and  C_26
REMARK    7  A    between atoms: C_28  and  C_31
REMARK                            x       y       z     vdW  Elec       q    Type
REMARK                         _______ _______ _______ _____ _____    ______ ____
ROOT
ATOM      1  O   UNL     1     112.446 127.787 137.804  0.00  0.00    +0.000 OA
ENDROOT
BRANCH   1   6
ATOM      2  O   UNL     1     112.549 126.292 136.217  0.00  0.00    +0.000 OA
ATOM      3  O   UNL     1     111.798 126.476 138.569  0.00  0.00    +0.000 OA
ATOM      4  O   UNL     1     111.388 125.092 138.576  0.00  0.00    +0.000 OA
ATOM      5  O   UNL     1     111.746 123.494 136.159  0.00  0.00    +0.000 OA
ATOM      6  C   UNL     1     112.372 127.070 137.403  0.00  0.00    +0.000 A 
ATOM      7  C   UNL     1     112.623 127.009 136.619  0.00  0.00    +0.000 A 
ATOM      8  C   UNL     1     112.049 126.415 137.785  0.00  0.00    +0.000 A 
ATOM      9  C   UNL     1     111.975 125.698 137.383  0.00  0.00    +0.000 A 
ATOM     10  C   UNL     1     112.225 125.636 136.600  0.00  0.00    +0.000 A 
ATOM     11  C   UNL     1     111.636 125.023 137.793  0.00  0.00    +0.000 A 
ATOM     12  C   UNL     1     112.155 124.895 136.170  0.00  0.00    +0.000 A 
ATOM     13  C   UNL     1     111.557 124.273 137.379  0.00  0.00    +0.000 A 
ATOM     14  C   UNL     1     111.818 124.209 136.563  0.00  0.00    +0.000 A 
BRANCH   7  16
ATOM     15  O   UNL     1     113.917 129.631 135.089  0.00  0.00    +0.000 OA
ATOM     16  C   UNL     1     112.946 127.664 136.237  0.00  0.00    +0.000 A 
ATOM     17  C   UNL     1     112.474 128.130 135.746  0.00  0.00    +0.000 A 
ATOM     18  C   UNL     1     113.742 127.854 136.344  0.00  0.00    +0.000 A 
ATOM     19  C   UNL     1     112.798 128.786 135.363  0.00  0.00    +0.000 A 
ATOM     20  C   UNL     1     114.066 128.509 135.962  0.00  0.00    +0.000 A 
ATOM     21  C   UNL     1     113.594 128.975 135.472  0.00  0.00    +0.000 A 
ENDBRANCH   7  16
ENDBRANCH   1   6
BRANCH   1  28
ATOM     22  O   UNL     1     111.060 128.131 137.739  0.00  0.00    +0.000 OA
ATOM     23  O   UNL     1     111.228 129.226 139.952  0.00  0.00    +0.000 OA
ATOM     24  O   UNL     1     109.788 129.205 139.149  0.00  0.00    +0.000 OA
ATOM     25  C   UNL     1     111.837 128.507 138.879  0.00  0.00    +0.000 C 
ATOM     26  C   UNL     1     111.172 128.861 139.214  0.00  0.00    +0.000 C 
ATOM     27  C   UNL     1     110.452 128.851 138.814  0.00  0.00    +0.000 C 
ATOM     28  C   UNL     1     111.781 128.142 138.141  0.00  0.00    +0.000 C 
ATOM     29  C   UNL     1     110.396 128.485 138.076  0.00  0.00    +0.000 C 
BRANCH  29  31
ATOM     30  O   UNL     1     109.607 128.849 136.941  0.00  0.00    +0.000 OA
ATOM     31  C   UNL     1     109.676 128.475 137.674  0.00  0.00    +0.000 C 
ENDBRANCH  29  31
BRANCH  25  32
ATOM     32  O   UNL     1     112.558 128.517 139.280  0.00  0.00    +0.000 OA
BRANCH  32  38
ATOM     33  O   UNL     1     112.863 129.892 138.859  0.00  0.00    +0.000 OA
ATOM     34  O   UNL     1     114.631 129.951 140.053  0.00  0.00    +0.000 OA
ATOM     35  O   UNL     1     114.072 128.766 140.210  0.00  0.00    +0.000 OA
ATOM     36  C   UNL     1     113.989 130.078 139.552  0.00  0.00    +0.000 C 
ATOM     37  C   UNL     1     113.714 129.316 139.711  0.00  0.00    +0.000 C 
ATOM     38  C   UNL     1     113.018 129.202 139.283  0.00  0.00    +0.000 C 
ATOM     39  C   UNL     1     113.463 130.434 139.025  0.00  0.00    +0.000 C 
BRANCH  36  41
ATOM     40  O   UNL     1     114.628 131.136 140.269  0.00  0.00    +0.000 OA
ATOM     41  C   UNL     1     114.449 130.763 139.555  0.00  0.00    +0.000 C 
ENDBRANCH  36  41
ENDBRANCH  32  38
ENDBRANCH  25  32
ENDBRANCH   1  28
TORSDOF 7
ENDMDL
MODEL 8
REMARK VINA RESULT:      -9.2      2.139      3.899
REMARK  Name = 5465153
REMARK  7 active torsions:
REMARK  status: ('A' for Active; 'I' for Inactive)
REMARK    1  A    between atoms: O_1  and  C_16
REMARK    2  A    between atoms: O_1  and  C_20
REMARK    3  A    between atoms: O_5  and  C_22
REMARK    4  A    between atoms: O_5  and  C_27
REMARK    5  A    between atoms: C_17  and  C_25
REMARK    6  A    between atoms: C_23  and  C_26
REMARK    7  A    between atoms: C_28  and  C_31
REMARK                            x       y       z     vdW  Elec       q    Type
REMARK                         _______ _______ _______ _____ _____    ______ ____
ROOT
ATOM      1  O   UNL     1     110.678 127.699 136.818  0.00  0.00    +0.000 OA
ENDROOT
BRANCH   1   6
ATOM      2  O   UNL     1     111.256 125.991 138.047  0.00  0.00    +0.000 OA
ATOM      3  O   UNL     1     110.882 126.538 135.662  0.00  0.00    +0.000 OA
ATOM      4  O   UNL     1     111.209 125.188 135.271  0.00  0.00    +0.000 OA
ATOM      5  O   UNL     1     111.928 123.249 137.332  0.00  0.00    +0.000 OA
ATOM      6  C   UNL     1     110.905 126.936 137.035  0.00  0.00    +0.000 A 
ATOM      7  C   UNL     1     111.030 126.754 137.830  0.00  0.00    +0.000 A 
ATOM      8  C   UNL     1     111.007 126.356 136.458  0.00  0.00    +0.000 A 
ATOM      9  C   UNL     1     111.233 125.593 136.675  0.00  0.00    +0.000 A 
ATOM     10  C   UNL     1     111.358 125.410 137.469  0.00  0.00    +0.000 A 
ATOM     11  C   UNL     1     111.336 124.998 136.063  0.00  0.00    +0.000 A 
ATOM     12  C   UNL     1     111.594 124.619 137.709  0.00  0.00    +0.000 A 
ATOM     13  C   UNL     1     111.572 124.201 136.284  0.00  0.00    +0.000 A 
ATOM     14  C   UNL     1     111.702 124.011 137.111  0.00  0.00    +0.000 A 
BRANCH   7  16
ATOM     15  O   UNL     1     110.623 129.074 140.141  0.00  0.00    +0.000 OA
ATOM     16  C   UNL     1     110.928 127.333 138.407  0.00  0.00    +0.000 A 
ATOM     17  C   UNL     1     110.171 127.522 138.673  0.00  0.00    +0.000 A 
ATOM     18  C   UNL     1     111.584 127.725 138.720  0.00  0.00    +0.000 A 
ATOM     19  C   UNL     1     110.068 128.103 139.251  0.00  0.00    +0.000 A 
ATOM     20  C   UNL     1     111.483 128.304 139.297  0.00  0.00    +0.000 A 
ATOM     21  C   UNL     1     110.725 128.493 139.563  0.00  0.00    +0.000 A 
ENDBRANCH   7  16
ENDBRANCH   1   6
BRANCH   1  28
ATOM     22  O   UNL     1     111.954 128.072 136.294  0.00  0.00    +0.000 OA
ATOM     23  O   UNL     1     110.843 129.509 134.612  0.00  0.00    +0.000 OA
ATOM     24  O   UNL     1     112.488 129.404 134.649  0.00  0.00    +0.000 OA
ATOM     25  C   UNL     1     110.760 128.604 135.715  0.00  0.00    +0.000 C 
ATOM     26  C   UNL     1     111.214 129.030 135.173  0.00  0.00    +0.000 C 
ATOM     27  C   UNL     1     112.036 128.978 135.191  0.00  0.00    +0.000 C 
ATOM     28  C   UNL     1     111.131 128.125 136.275  0.00  0.00    +0.000 C 
ATOM     29  C   UNL     1     112.406 128.499 135.751  0.00  0.00    +0.000 C 
BRANCH  29  31
ATOM     30  O   UNL     1     113.645 128.721 136.429  0.00  0.00    +0.000 OA
ATOM     31  C   UNL     1     113.229 128.446 135.770  0.00  0.00    +0.000 C 
ENDBRANCH  29  31
BRANCH  25  32
ATOM     32  O   UNL     1     109.938 128.656 135.697  0.00  0.00    +0.000 OA
BRANCH  32  38
ATOM     33  O   UNL     1     109.932 129.993 136.308  0.00  0.00    +0.000 OA
ATOM     34  O   UNL     1     107.801 130.101 136.247  0.00  0.00    +0.000 OA
ATOM     35  O   UNL     1     108.166 128.941 135.735  0.00  0.00    +0.000 OA
ATOM     36  C   UNL     1     108.614 130.205 136.337  0.00  0.00    +0.000 C 
ATOM     37  C   UNL     1     108.746 129.461 136.003  0.00  0.00    +0.000 C 
ATOM     38  C   UNL     1     109.561 129.331 135.986  0.00  0.00    +0.000 C 
ATOM     39  C   UNL     1     109.347 130.533 136.525  0.00  0.00    +0.000 C 
BRANCH  36  41
ATOM     40  O   UNL     1     107.561 131.166 136.251  0.00  0.00    +0.000 OA
ATOM     41  C   UNL     1     108.237 130.879 136.626  0.00  0.00    +0.000 C 
ENDBRANCH  36  41
ENDBRANCH  32  38
ENDBRANCH  25  32
ENDBRANCH   1  28
TORSDOF 7
ENDMDL
MODEL 9
REMARK VINA RESULT:      -9.2      2.217      3.328
REMARK  Name = 5465153
REMARK  7 active torsions:
REMARK  status: ('A' for Active; 'I' for Inactive)
REMARK    1  A    between atoms: O_1  and  C_16
REMARK    2  A    between atoms: O_1  and  C_20
REMARK    3  A    between atoms: O_5  and  C_22
REMARK    4  A    between atoms: O_5  and  C_27
REMARK    5  A    between atoms: C_17  and  C_25
REMARK    6  A    between atoms: C_23  and  C_26
REMARK    7  A    between atoms: C_28  and  C_31
REMARK                            x       y       z     vdW  Elec       q    Type
REMARK                         _______ _______ _______ _____ _____    ______ ____
ROOT
ATOM      1  O   UNL     1     111.562 127.573 137.298  0.00  0.00    +0.000 OA
ENDROOT
BRANCH   1   6
ATOM      2  O   UNL     1     112.179 129.472 136.418  0.00  0.00    +0.000 OA
ATOM      3  O   UNL     1     113.028 127.161 136.664  0.00  0.00    +0.000 OA
ATOM      4  O   UNL     1     114.233 127.496 135.944  0.00  0.00    +0.000 OA
ATOM      5  O   UNL     1     114.584 130.221 134.957  0.00  0.00    +0.000 OA
ATOM      6  C   UNL     1     112.012 128.137 136.899  0.00  0.00    +0.000 A 
ATOM      7  C   UNL     1     111.728 128.908 136.817  0.00  0.00    +0.000 A 
ATOM      8  C   UNL     1     112.745 127.931 136.583  0.00  0.00    +0.000 A 
ATOM      9  C   UNL     1     113.195 128.496 136.184  0.00  0.00    +0.000 A 
ATOM     10  C   UNL     1     112.913 129.266 136.101  0.00  0.00    +0.000 A 
ATOM     11  C   UNL     1     113.957 128.268 135.858  0.00  0.00    +0.000 A 
ATOM     12  C   UNL     1     113.372 129.864 135.688  0.00  0.00    +0.000 A 
ATOM     13  C   UNL     1     114.431 128.853 135.441  0.00  0.00    +0.000 A 
ATOM     14  C   UNL     1     114.136 129.655 135.356  0.00  0.00    +0.000 A 
BRANCH   7  16
ATOM     15  O   UNL     1     108.795 129.733 138.085  0.00  0.00    +0.000 OA
ATOM     16  C   UNL     1     110.996 129.114 137.134  0.00  0.00    +0.000 A 
ATOM     17  C   UNL     1     110.931 129.305 137.934  0.00  0.00    +0.000 A 
ATOM     18  C   UNL     1     110.326 129.130 136.651  0.00  0.00    +0.000 A 
ATOM     19  C   UNL     1     110.197 129.511 138.251  0.00  0.00    +0.000 A 
ATOM     20  C   UNL     1     109.594 129.336 136.968  0.00  0.00    +0.000 A 
ATOM     21  C   UNL     1     109.529 129.527 137.768  0.00  0.00    +0.000 A 
ENDBRANCH   7  16
ENDBRANCH   1   6
BRANCH   1  28
ATOM     22  O   UNL     1     111.164 126.863 136.123  0.00  0.00    +0.000 OA
ATOM     23  O   UNL     1     111.158 124.746 137.405  0.00  0.00    +0.000 OA
ATOM     24  O   UNL     1     110.763 124.742 135.804  0.00  0.00    +0.000 OA
ATOM     25  C   UNL     1     111.360 126.159 137.352  0.00  0.00    +0.000 C 
ATOM     26  C   UNL     1     111.160 125.451 136.978  0.00  0.00    +0.000 C 
ATOM     27  C   UNL     1     110.963 125.449 136.178  0.00  0.00    +0.000 C 
ATOM     28  C   UNL     1     111.362 126.865 136.925  0.00  0.00    +0.000 C 
ATOM     29  C   UNL     1     110.965 126.155 135.750  0.00  0.00    +0.000 C 
BRANCH  29  31
ATOM     30  O   UNL     1     110.106 126.572 134.687  0.00  0.00    +0.000 OA
ATOM     31  C   UNL     1     110.767 126.153 134.949  0.00  0.00    +0.000 C 
ENDBRANCH  29  31
BRANCH  25  32
ATOM     32  O   UNL     1     111.557 126.161 138.153  0.00  0.00    +0.000 OA
BRANCH  32  38
ATOM     33  O   UNL     1     110.154 126.063 138.579  0.00  0.00    +0.000 OA
ATOM     34  O   UNL     1     110.695 126.069 140.643  0.00  0.00    +0.000 OA
ATOM     35  O   UNL     1     111.803 126.152 139.931  0.00  0.00    +0.000 OA
ATOM     36  C   UNL     1     110.336 126.056 139.901  0.00  0.00    +0.000 C 
ATOM     37  C   UNL     1     111.077 126.110 139.542  0.00  0.00    +0.000 C 
ATOM     38  C   UNL     1     110.964 126.114 138.724  0.00  0.00    +0.000 C 
ATOM     39  C   UNL     1     109.766 126.027 139.306  0.00  0.00    +0.000 C 
BRANCH  36  41
ATOM     40  O   UNL     1     109.726 125.373 140.997  0.00  0.00    +0.000 OA
ATOM     41  C   UNL     1     109.743 126.009 140.472  0.00  0.00    +0.000 C 
ENDBRANCH  36  41
ENDBRANCH  32  38
ENDBRANCH  25  32
ENDBRANCH   1  28
TORSDOF 7
ENDMDL
MODEL 10
REMARK VINA RESULT:      -9.2      2.371      5.238
REMARK  Name = 5465153
REMARK  7 active torsions:
REMARK  status: ('A' for Active; 'I' for Inactive)
REMARK    1  A    between atoms: O_1  and  C_16
REMARK    2  A    between atoms: O_1  and  C_20
REMARK    3  A    between atoms: O_5  and  C_22
REMARK    4  A    between atoms: O_5  and  C_27
REMARK    5  A    between atoms: C_17  and  C_25
REMARK    6  A    between atoms: C_23  and  C_26
REMARK    7  A    between atoms: C_28  and  C_31
REMARK                            x       y       z     vdW  Elec       q    Type
REMARK                         _______ _______ _______ _____ _____    ______ ____
ROOT
ATOM      1  O   UNL     1     110.400 128.235 136.508  0.00  0.00    +0.000 OA
ENDROOT
BRANCH   1   6
ATOM      2  O   UNL     1     110.620 130.251 135.699  0.00  0.00    +0.000 OA
ATOM      3  O   UNL     1     108.826 128.729 136.469  0.00  0.00    +0.000 OA
ATOM      4  O   UNL     1     107.819 129.722 136.180  0.00  0.00    +0.000 OA
ATOM      5  O   UNL     1     108.644 132.303 135.091  0.00  0.00    +0.000 OA
ATOM      6  C   UNL     1     110.210 128.989 136.232  0.00  0.00    +0.000 A 
ATOM      7  C   UNL     1     110.809 129.497 135.975  0.00  0.00    +0.000 A 
ATOM      8  C   UNL     1     109.424 129.236 136.213  0.00  0.00    +0.000 A 
ATOM      9  C   UNL     1     109.235 129.990 135.937  0.00  0.00    +0.000 A 
ATOM     10  C   UNL     1     109.832 130.498 135.680  0.00  0.00    +0.000 A 
ATOM     11  C   UNL     1     108.411 130.235 135.922  0.00  0.00    +0.000 A 
ATOM     12  C   UNL     1     109.649 131.285 135.390  0.00  0.00    +0.000 A 
ATOM     13  C   UNL     1     108.208 131.020 135.635  0.00  0.00    +0.000 A 
ATOM     14  C   UNL     1     108.831 131.548 135.368  0.00  0.00    +0.000 A 
BRANCH   7  16
ATOM     15  O   UNL     1     113.957 128.510 136.052  0.00  0.00    +0.000 OA
ATOM     16  C   UNL     1     111.595 129.250 135.995  0.00  0.00    +0.000 A 
ATOM     17  C   UNL     1     111.897 128.786 135.383  0.00  0.00    +0.000 A 
ATOM     18  C   UNL     1     112.081 129.467 136.625  0.00  0.00    +0.000 A 
ATOM     19  C   UNL     1     112.685 128.539 135.402  0.00  0.00    +0.000 A 
ATOM     20  C   UNL     1     112.868 129.221 136.645  0.00  0.00    +0.000 A 
ATOM     21  C   UNL     1     113.169 128.757 136.033  0.00  0.00    +0.000 A 
ENDBRANCH   7  16
ENDBRANCH   1   6
BRANCH   1  28
ATOM     22  O   UNL     1     110.161 128.543 137.883  0.00  0.00    +0.000 OA
ATOM     23  O   UNL     1     109.447 126.208 138.282  0.00  0.00    +0.000 OA
ATOM     24  O   UNL     1     109.447 127.294 139.523  0.00  0.00    +0.000 OA
ATOM     25  C   UNL     1     109.923 127.221 137.395  0.00  0.00    +0.000 C 
ATOM     26  C   UNL     1     109.685 126.986 138.149  0.00  0.00    +0.000 C 
ATOM     27  C   UNL     1     109.685 127.529 138.770  0.00  0.00    +0.000 C 
ATOM     28  C   UNL     1     110.161 128.000 137.262  0.00  0.00    +0.000 C 
ATOM     29  C   UNL     1     109.923 128.308 138.636  0.00  0.00    +0.000 C 
BRANCH  29  31
ATOM     30  O   UNL     1     110.632 129.197 139.501  0.00  0.00    +0.000 OA
ATOM     31  C   UNL     1     109.923 128.851 139.257  0.00  0.00    +0.000 C 
ENDBRANCH  29  31
BRANCH  25  32
ATOM     32  O   UNL     1     109.923 126.678 136.774  0.00  0.00    +0.000 OA
BRANCH  32  38
ATOM     33  O   UNL     1     111.145 126.015 137.252  0.00  0.00    +0.000 OA
ATOM     34  O   UNL     1     111.149 124.657 135.605  0.00  0.00    +0.000 OA
ATOM     35  O   UNL     1     110.105 125.453 135.475  0.00  0.00    +0.000 OA
ATOM     36  C   UNL     1     111.280 125.103 136.286  0.00  0.00    +0.000 C 
ATOM     37  C   UNL     1     110.606 125.551 136.122  0.00  0.00    +0.000 C 
ATOM     38  C   UNL     1     110.523 126.115 136.720  0.00  0.00    +0.000 C 
ATOM     39  C   UNL     1     111.613 125.390 136.984  0.00  0.00    +0.000 C 
BRANCH  36  41
ATOM     40  O   UNL     1     111.693 123.736 136.254  0.00  0.00    +0.000 OA
ATOM     41  C   UNL     1     111.880 124.540 136.231  0.00  0.00    +0.000 C 
ENDBRANCH  36  41
ENDBRANCH  32  38
ENDBRANCH  25  32
ENDBRANCH   1  28
TORSDOF 7
ENDMDL
