MODEL 1
REMARK VINA RESULT:     -11.2      0.000      0.000
REMARK  Name = 44257722
REMARK  4 active torsions:
REMARK  status: ('A' for Active; 'I' for Inactive)
REMARK    1  A    between atoms: O_1  and  C_14
REMARK    2  A    between atoms: O_1  and  C_17
REMARK    3  A    between atoms: C_19  and  C_24
REMARK    4  A    between atoms: C_33  and  C_34
REMARK                            x       y       z     vdW  Elec       q    Type
REMARK                         _______ _______ _______ _____ _____    ______ ____
ROOT
ATOM      1  O   UNL     1     105.899 123.842 140.860  0.00  0.00    +0.000 OA
ATOM      2  O   UNL     1     104.892 126.494 140.516  0.00  0.00    +0.000 OA
ATOM      3  O   UNL     1     104.257 124.473 138.562  0.00  0.00    +0.000 OA
ATOM      4  O   UNL     1     105.604 122.802 139.904  0.00  0.00    +0.000 OA
ATOM      5  C   UNL     1     105.396 125.168 140.688  0.00  0.00    +0.000 A 
ATOM      6  C   UNL     1     105.461 124.389 140.424  0.00  0.00    +0.000 A 
ATOM      7  C   UNL     1     104.957 125.715 140.252  0.00  0.00    +0.000 A 
ATOM      8  C   UNL     1     105.088 124.157 139.726  0.00  0.00    +0.000 A 
ATOM      9  C   UNL     1     104.584 125.483 139.554  0.00  0.00    +0.000 A 
ATOM     10  C   UNL     1     104.650 124.703 139.291  0.00  0.00    +0.000 A 
ATOM     11  C   UNL     1     105.164 123.342 139.462  0.00  0.00    +0.000 A 
ATOM     12  C   UNL     1     104.778 123.094 138.736  0.00  0.00    +0.000 A 
ATOM     13  C   UNL     1     104.321 123.664 138.282  0.00  0.00    +0.000 A 
ENDROOT
BRANCH   5  20
ATOM     14  O   UNL     1     105.381 125.312 142.109  0.00  0.00    +0.000 OA
ATOM     15  O   UNL     1     107.661 126.272 142.035  0.00  0.00    +0.000 OA
ATOM     16  O   UNL     1     106.916 125.808 140.638  0.00  0.00    +0.000 OA
ATOM     17  C   UNL     1     106.514 125.865 142.783  0.00  0.00    +0.000 C 
ATOM     18  C   UNL     1     106.901 125.952 142.059  0.00  0.00    +0.000 C 
ATOM     19  C   UNL     1     106.529 125.720 141.361  0.00  0.00    +0.000 C 
ATOM     20  C   UNL     1     105.768 125.400 141.386  0.00  0.00    +0.000 C 
ATOM     21  C   UNL     1     105.754 125.545 142.807  0.00  0.00    +0.000 C 
BRANCH  17  22
ATOM     22  O   UNL     1     106.887 126.097 143.481  0.00  0.00    +0.000 OA
BRANCH  22  27
ATOM     23  O   UNL     1     106.086 127.235 143.804  0.00  0.00    +0.000 OA
ATOM     24  O   UNL     1     106.848 125.622 145.061  0.00  0.00    +0.000 OA
ATOM     25  O   UNL     1     106.027 126.523 146.173  0.00  0.00    +0.000 OA
ATOM     26  O   UNL     1     105.246 127.899 145.706  0.00  0.00    +0.000 OA
ATOM     27  C   UNL     1     106.476 126.548 144.037  0.00  0.00    +0.000 C 
ATOM     28  C   UNL     1     106.457 126.310 144.827  0.00  0.00    +0.000 C 
ATOM     29  C   UNL     1     106.047 126.761 145.383  0.00  0.00    +0.000 C 
ATOM     30  C   UNL     1     105.657 127.448 145.149  0.00  0.00    +0.000 C 
ATOM     31  C   UNL     1     105.676 127.686 144.359  0.00  0.00    +0.000 C 
ATOM     32  C   UNL     1     105.285 128.374 144.126  0.00  0.00    +0.000 C 
ENDBRANCH  22  27
ENDBRANCH  17  22
ENDBRANCH   5  20
BRANCH  13  34
ATOM     33  O   UNL     1     102.825 122.746 135.488  0.00  0.00    +0.000 OA
ATOM     34  C   UNL     1     103.947 123.435 137.584  0.00  0.00    +0.000 A 
ATOM     35  C   UNL     1     104.396 123.251 136.916  0.00  0.00    +0.000 A 
ATOM     36  C   UNL     1     103.124 123.388 137.552  0.00  0.00    +0.000 A 
ATOM     37  C   UNL     1     104.022 123.022 136.218  0.00  0.00    +0.000 A 
ATOM     38  C   UNL     1     102.750 123.159 136.854  0.00  0.00    +0.000 A 
ATOM     39  C   UNL     1     103.199 122.976 136.186  0.00  0.00    +0.000 A 
ENDBRANCH  13  34
TORSDOF 4
ENDMDL
MODEL 2
REMARK VINA RESULT:     -11.1      3.327      6.409
REMARK  Name = 44257722
REMARK  4 active torsions:
REMARK  status: ('A' for Active; 'I' for Inactive)
REMARK    1  A    between atoms: O_1  and  C_14
REMARK    2  A    between atoms: O_1  and  C_17
REMARK    3  A    between atoms: C_19  and  C_24
REMARK    4  A    between atoms: C_33  and  C_34
REMARK                            x       y       z     vdW  Elec       q    Type
REMARK                         _______ _______ _______ _____ _____    ______ ____
ROOT
ATOM      1  O   UNL     1     104.074 128.359 140.697  0.00  0.00    +0.000 OA
ATOM      2  O   UNL     1     105.068 128.628 143.363  0.00  0.00    +0.000 OA
ATOM      3  O   UNL     1     103.124 130.515 142.379  0.00  0.00    +0.000 OA
ATOM      4  O   UNL     1     103.100 129.282 140.167  0.00  0.00    +0.000 OA
ATOM      5  C   UNL     1     104.571 128.494 142.030  0.00  0.00    +0.000 A 
ATOM      6  C   UNL     1     104.084 128.759 141.419  0.00  0.00    +0.000 A 
ATOM      7  C   UNL     1     104.581 128.893 142.752  0.00  0.00    +0.000 A 
ATOM      8  C   UNL     1     103.607 129.423 141.530  0.00  0.00    +0.000 A 
ATOM      9  C   UNL     1     104.104 129.557 142.863  0.00  0.00    +0.000 A 
ATOM     10  C   UNL     1     103.617 129.821 142.252  0.00  0.00    +0.000 A 
ATOM     11  C   UNL     1     103.104 129.688 140.886  0.00  0.00    +0.000 A 
ATOM     12  C   UNL     1     102.605 130.379 140.995  0.00  0.00    +0.000 A 
ATOM     13  C   UNL     1     102.615 130.795 141.747  0.00  0.00    +0.000 A 
ENDROOT
BRANCH   5  20
ATOM     14  O   UNL     1     104.737 127.075 142.032  0.00  0.00    +0.000 OA
ATOM     15  O   UNL     1     107.103 127.350 141.360  0.00  0.00    +0.000 OA
ATOM     16  O   UNL     1     106.149 128.677 141.582  0.00  0.00    +0.000 OA
ATOM     17  C   UNL     1     106.003 126.502 141.697  0.00  0.00    +0.000 C 
ATOM     18  C   UNL     1     106.315 127.259 141.584  0.00  0.00    +0.000 C 
ATOM     19  C   UNL     1     105.837 127.922 141.695  0.00  0.00    +0.000 C 
ATOM     20  C   UNL     1     105.049 127.830 141.919  0.00  0.00    +0.000 C 
ATOM     21  C   UNL     1     105.214 126.411 141.921  0.00  0.00    +0.000 C 
BRANCH  17  22
ATOM     22  O   UNL     1     106.480 125.839 141.586  0.00  0.00    +0.000 OA
BRANCH  22  27
ATOM     23  O   UNL     1     105.830 125.395 140.394  0.00  0.00    +0.000 OA
ATOM     24  O   UNL     1     106.762 124.271 142.016  0.00  0.00    +0.000 OA
ATOM     25  O   UNL     1     106.252 123.043 141.038  0.00  0.00    +0.000 OA
ATOM     26  O   UNL     1     105.462 123.383 139.630  0.00  0.00    +0.000 OA
ATOM     27  C   UNL     1     106.225 125.225 141.097  0.00  0.00    +0.000 C 
ATOM     28  C   UNL     1     106.366 124.441 141.312  0.00  0.00    +0.000 C 
ATOM     29  C   UNL     1     106.112 123.827 140.823  0.00  0.00    +0.000 C 
ATOM     30  C   UNL     1     105.717 123.998 140.120  0.00  0.00    +0.000 C 
ATOM     31  C   UNL     1     105.576 124.782 139.905  0.00  0.00    +0.000 C 
ATOM     32  C   UNL     1     105.180 124.951 139.201  0.00  0.00    +0.000 C 
ENDBRANCH  22  27
ENDBRANCH  17  22
ENDBRANCH   5  20
BRANCH  13  34
ATOM     33  O   UNL     1     100.711 133.451 142.202  0.00  0.00    +0.000 OA
ATOM     34  C   UNL     1     102.139 131.459 141.861  0.00  0.00    +0.000 A 
ATOM     35  C   UNL     1     102.447 132.214 141.736  0.00  0.00    +0.000 A 
ATOM     36  C   UNL     1     101.355 131.368 142.100  0.00  0.00    +0.000 A 
ATOM     37  C   UNL     1     101.971 132.878 141.850  0.00  0.00    +0.000 A 
ATOM     38  C   UNL     1     100.878 132.032 142.214  0.00  0.00    +0.000 A 
ATOM     39  C   UNL     1     101.187 132.787 142.088  0.00  0.00    +0.000 A 
ENDBRANCH  13  34
TORSDOF 4
ENDMDL
MODEL 3
REMARK VINA RESULT:     -10.7      7.948      8.725
REMARK  Name = 44257722
REMARK  4 active torsions:
REMARK  status: ('A' for Active; 'I' for Inactive)
REMARK    1  A    between atoms: O_1  and  C_14
REMARK    2  A    between atoms: O_1  and  C_17
REMARK    3  A    between atoms: C_19  and  C_24
REMARK    4  A    between atoms: C_33  and  C_34
REMARK                            x       y       z     vdW  Elec       q    Type
REMARK                         _______ _______ _______ _____ _____    ______ ____
ROOT
ATOM      1  O   UNL     1     113.235 128.196 141.222  0.00  0.00    +0.000 OA
ATOM      2  O   UNL     1     112.842 130.103 139.131  0.00  0.00    +0.000 OA
ATOM      3  O   UNL     1     113.294 127.338 138.458  0.00  0.00    +0.000 OA
ATOM      4  O   UNL     1     113.464 126.802 140.928  0.00  0.00    +0.000 OA
ATOM      5  C   UNL     1     113.038 129.150 140.177  0.00  0.00    +0.000 A 
ATOM      6  C   UNL     1     113.179 128.373 140.418  0.00  0.00    +0.000 A 
ATOM      7  C   UNL     1     112.982 129.327 139.372  0.00  0.00    +0.000 A 
ATOM      8  C   UNL     1     113.263 127.775 139.856  0.00  0.00    +0.000 A 
ATOM      9  C   UNL     1     113.067 128.729 138.811  0.00  0.00    +0.000 A 
ATOM     10  C   UNL     1     113.207 127.953 139.053  0.00  0.00    +0.000 A 
ATOM     11  C   UNL     1     113.409 126.971 140.122  0.00  0.00    +0.000 A 
ATOM     12  C   UNL     1     113.498 126.343 139.542  0.00  0.00    +0.000 A 
ATOM     13  C   UNL     1     113.440 126.528 138.704  0.00  0.00    +0.000 A 
ENDROOT
BRANCH   5  20
ATOM     14  O   UNL     1     112.212 129.907 141.062  0.00  0.00    +0.000 OA
ATOM     15  O   UNL     1     114.183 131.224 141.774  0.00  0.00    +0.000 OA
ATOM     16  O   UNL     1     114.352 130.027 140.651  0.00  0.00    +0.000 OA
ATOM     17  C   UNL     1     112.784 130.945 141.861  0.00  0.00    +0.000 C 
ATOM     18  C   UNL     1     113.527 130.785 141.537  0.00  0.00    +0.000 C 
ATOM     19  C   UNL     1     113.611 130.186 140.975  0.00  0.00    +0.000 C 
ATOM     20  C   UNL     1     112.954 129.748 140.738  0.00  0.00    +0.000 C 
ATOM     21  C   UNL     1     112.128 130.506 141.624  0.00  0.00    +0.000 C 
BRANCH  17  22
ATOM     22  O   UNL     1     112.700 131.543 142.423  0.00  0.00    +0.000 OA
BRANCH  22  27
ATOM     23  O   UNL     1     112.219 130.729 143.494  0.00  0.00    +0.000 OA
ATOM     24  O   UNL     1     111.652 132.740 142.862  0.00  0.00    +0.000 OA
ATOM     25  O   UNL     1     110.647 132.523 144.153  0.00  0.00    +0.000 OA
ATOM     26  O   UNL     1     110.690 131.110 145.004  0.00  0.00    +0.000 OA
ATOM     27  C   UNL     1     112.198 131.434 143.068  0.00  0.00    +0.000 C 
ATOM     28  C   UNL     1     111.674 132.033 143.288  0.00  0.00    +0.000 C 
ATOM     29  C   UNL     1     111.171 131.925 143.933  0.00  0.00    +0.000 C 
ATOM     30  C   UNL     1     111.193 131.218 144.359  0.00  0.00    +0.000 C 
ATOM     31  C   UNL     1     111.717 130.620 144.139  0.00  0.00    +0.000 C 
ATOM     32  C   UNL     1     111.738 129.914 144.565  0.00  0.00    +0.000 C 
ENDBRANCH  22  27
ENDBRANCH  17  22
ENDBRANCH   5  20
BRANCH  13  34
ATOM     33  O   UNL     1     113.776 124.142 136.449  0.00  0.00    +0.000 OA
ATOM     34  C   UNL     1     113.524 125.932 138.140  0.00  0.00    +0.000 A 
ATOM     35  C   UNL     1     114.277 125.686 137.909  0.00  0.00    +0.000 A 
ATOM     36  C   UNL     1     112.855 125.581 137.808  0.00  0.00    +0.000 A 
ATOM     37  C   UNL     1     114.361 125.089 137.345  0.00  0.00    +0.000 A 
ATOM     38  C   UNL     1     112.939 124.985 137.244  0.00  0.00    +0.000 A 
ATOM     39  C   UNL     1     113.692 124.739 137.013  0.00  0.00    +0.000 A 
ENDBRANCH  13  34
TORSDOF 4
ENDMDL
MODEL 4
REMARK VINA RESULT:     -10.6      4.037      7.170
REMARK  Name = 44257722
REMARK  4 active torsions:
REMARK  status: ('A' for Active; 'I' for Inactive)
REMARK    1  A    between atoms: O_1  and  C_14
REMARK    2  A    between atoms: O_1  and  C_17
REMARK    3  A    between atoms: C_19  and  C_24
REMARK    4  A    between atoms: C_33  and  C_34
REMARK                            x       y       z     vdW  Elec       q    Type
REMARK                         _______ _______ _______ _____ _____    ______ ____
ROOT
ATOM      1  O   UNL     1     106.115 127.997 144.802  0.00  0.00    +0.000 OA
ATOM      2  O   UNL     1     105.828 125.562 143.335  0.00  0.00    +0.000 OA
ATOM      3  O   UNL     1     106.725 125.469 146.072  0.00  0.00    +0.000 OA
ATOM      4  O   UNL     1     106.561 127.994 146.174  0.00  0.00    +0.000 OA
ATOM      5  C   UNL     1     105.971 126.780 144.069  0.00  0.00    +0.000 A 
ATOM      6  C   UNL     1     106.167 127.174 144.766  0.00  0.00    +0.000 A 
ATOM      7  C   UNL     1     106.024 125.956 144.032  0.00  0.00    +0.000 A 
ATOM      8  C   UNL     1     106.415 126.747 145.427  0.00  0.00    +0.000 A 
ATOM      9  C   UNL     1     106.272 125.529 144.693  0.00  0.00    +0.000 A 
ATOM     10  C   UNL     1     106.468 125.925 145.390  0.00  0.00    +0.000 A 
ATOM     11  C   UNL     1     106.616 127.171 146.147  0.00  0.00    +0.000 A 
ATOM     12  C   UNL     1     106.875 126.732 146.838  0.00  0.00    +0.000 A 
ATOM     13  C   UNL     1     106.930 125.874 146.800  0.00  0.00    +0.000 A 
ENDROOT
BRANCH   5  20
ATOM     14  O   UNL     1     104.924 127.379 143.305  0.00  0.00    +0.000 OA
ATOM     15  O   UNL     1     106.580 128.144 141.632  0.00  0.00    +0.000 OA
ATOM     16  O   UNL     1     107.076 127.290 142.954  0.00  0.00    +0.000 OA
ATOM     17  C   UNL     1     105.227 128.061 142.086  0.00  0.00    +0.000 C 
ATOM     18  C   UNL     1     106.028 127.889 142.190  0.00  0.00    +0.000 C 
ATOM     19  C   UNL     1     106.276 127.462 142.851  0.00  0.00    +0.000 C 
ATOM     20  C   UNL     1     105.723 127.207 143.408  0.00  0.00    +0.000 C 
ATOM     21  C   UNL     1     104.676 127.806 142.644  0.00  0.00    +0.000 C 
BRANCH  17  22
ATOM     22  O   UNL     1     104.979 128.489 141.426  0.00  0.00    +0.000 OA
BRANCH  22  27
ATOM     23  O   UNL     1     104.316 129.583 142.061  0.00  0.00    +0.000 OA
ATOM     24  O   UNL     1     103.712 128.327 140.381  0.00  0.00    +0.000 OA
ATOM     25  O   UNL     1     102.415 129.340 140.494  0.00  0.00    +0.000 OA
ATOM     26  O   UNL     1     102.385 130.516 141.652  0.00  0.00    +0.000 OA
ATOM     27  C   UNL     1     104.331 128.996 141.483  0.00  0.00    +0.000 C 
ATOM     28  C   UNL     1     103.697 128.915 140.961  0.00  0.00    +0.000 C 
ATOM     29  C   UNL     1     103.049 129.421 141.016  0.00  0.00    +0.000 C 
ATOM     30  C   UNL     1     103.034 130.009 141.595  0.00  0.00    +0.000 C 
ATOM     31  C   UNL     1     103.668 130.090 142.117  0.00  0.00    +0.000 C 
ATOM     32  C   UNL     1     103.652 130.678 142.696  0.00  0.00    +0.000 C 
ENDBRANCH  22  27
ENDBRANCH  17  22
ENDBRANCH   5  20
BRANCH  13  34
ATOM     33  O   UNL     1     107.921 124.155 149.437  0.00  0.00    +0.000 OA
ATOM     34  C   UNL     1     107.178 125.444 147.459  0.00  0.00    +0.000 A 
ATOM     35  C   UNL     1     106.621 125.147 147.992  0.00  0.00    +0.000 A 
ATOM     36  C   UNL     1     107.982 125.311 147.587  0.00  0.00    +0.000 A 
ATOM     37  C   UNL     1     106.869 124.718 148.651  0.00  0.00    +0.000 A 
ATOM     38  C   UNL     1     108.230 124.881 148.246  0.00  0.00    +0.000 A 
ATOM     39  C   UNL     1     107.673 124.585 148.778  0.00  0.00    +0.000 A 
ENDBRANCH  13  34
TORSDOF 4
ENDMDL
MODEL 5
REMARK VINA RESULT:     -10.3      4.995      6.565
REMARK  Name = 44257722
REMARK  4 active torsions:
REMARK  status: ('A' for Active; 'I' for Inactive)
REMARK    1  A    between atoms: O_1  and  C_14
REMARK    2  A    between atoms: O_1  and  C_17
REMARK    3  A    between atoms: C_19  and  C_24
REMARK    4  A    between atoms: C_33  and  C_34
REMARK                            x       y       z     vdW  Elec       q    Type
REMARK                         _______ _______ _______ _____ _____    ______ ____
ROOT
ATOM      1  O   UNL     1     111.239 126.845 140.621  0.00  0.00    +0.000 OA
ATOM      2  O   UNL     1     109.235 126.114 138.719  0.00  0.00    +0.000 OA
ATOM      3  O   UNL     1     112.017 125.890 138.001  0.00  0.00    +0.000 OA
ATOM      4  O   UNL     1     112.642 126.748 140.301  0.00  0.00    +0.000 OA
ATOM      5  C   UNL     1     110.237 126.479 139.670  0.00  0.00    +0.000 A 
ATOM      6  C   UNL     1     111.032 126.566 139.872  0.00  0.00    +0.000 A 
ATOM      7  C   UNL     1     110.030 126.200 138.921  0.00  0.00    +0.000 A 
ATOM      8  C   UNL     1     111.620 126.373 139.326  0.00  0.00    +0.000 A 
ATOM      9  C   UNL     1     110.618 126.007 138.375  0.00  0.00    +0.000 A 
ATOM     10  C   UNL     1     111.413 126.094 138.579  0.00  0.00    +0.000 A 
ATOM     11  C   UNL     1     112.445 126.468 139.550  0.00  0.00    +0.000 A 
ATOM     12  C   UNL     1     113.062 126.269 138.986  0.00  0.00    +0.000 A 
ATOM     13  C   UNL     1     112.846 125.978 138.206  0.00  0.00    +0.000 A 
ENDROOT
BRANCH   5  20
ATOM     14  O   UNL     1     109.409 126.117 140.775  0.00  0.00    +0.000 OA
ATOM     15  O   UNL     1     108.365 128.361 140.731  0.00  0.00    +0.000 OA
ATOM     16  O   UNL     1     109.542 127.975 139.640  0.00  0.00    +0.000 OA
ATOM     17  C   UNL     1     108.473 127.057 141.307  0.00  0.00    +0.000 C 
ATOM     18  C   UNL     1     108.713 127.613 140.745  0.00  0.00    +0.000 C 
ATOM     19  C   UNL     1     109.302 127.420 140.200  0.00  0.00    +0.000 C 
ATOM     20  C   UNL     1     109.649 126.672 140.215  0.00  0.00    +0.000 C 
ATOM     21  C   UNL     1     108.821 126.309 141.321  0.00  0.00    +0.000 C 
BRANCH  17  22
ATOM     22  O   UNL     1     107.884 127.250 141.852  0.00  0.00    +0.000 OA
BRANCH  22  27
ATOM     23  O   UNL     1     106.851 126.376 141.393  0.00  0.00    +0.000 OA
ATOM     24  O   UNL     1     107.529 126.849 143.413  0.00  0.00    +0.000 OA
ATOM     25  O   UNL     1     106.318 125.775 143.734  0.00  0.00    +0.000 OA
ATOM     26  O   UNL     1     105.463 125.101 142.494  0.00  0.00    +0.000 OA
ATOM     27  C   UNL     1     107.279 126.712 142.012  0.00  0.00    +0.000 C 
ATOM     28  C   UNL     1     107.101 126.512 142.792  0.00  0.00    +0.000 C 
ATOM     29  C   UNL     1     106.496 125.975 142.953  0.00  0.00    +0.000 C 
ATOM     30  C   UNL     1     106.069 125.639 142.333  0.00  0.00    +0.000 C 
ATOM     31  C   UNL     1     106.246 125.839 141.553  0.00  0.00    +0.000 C 
ATOM     32  C   UNL     1     105.818 125.502 140.933  0.00  0.00    +0.000 C 
ENDBRANCH  22  27
ENDBRANCH  17  22
ENDBRANCH   5  20
BRANCH  13  34
ATOM     33  O   UNL     1     115.190 125.205 136.016  0.00  0.00    +0.000 OA
ATOM     34  C   UNL     1     113.432 125.785 137.659  0.00  0.00    +0.000 A 
ATOM     35  C   UNL     1     113.853 125.079 137.737  0.00  0.00    +0.000 A 
ATOM     36  C   UNL     1     113.597 126.297 137.033  0.00  0.00    +0.000 A 
ATOM     37  C   UNL     1     114.439 124.886 137.189  0.00  0.00    +0.000 A 
ATOM     38  C   UNL     1     114.183 126.103 136.486  0.00  0.00    +0.000 A 
ATOM     39  C   UNL     1     114.604 125.398 136.564  0.00  0.00    +0.000 A 
ENDBRANCH  13  34
TORSDOF 4
ENDMDL
MODEL 6
REMARK VINA RESULT:     -10.2      4.548      6.211
REMARK  Name = 44257722
REMARK  4 active torsions:
REMARK  status: ('A' for Active; 'I' for Inactive)
REMARK    1  A    between atoms: O_1  and  C_14
REMARK    2  A    between atoms: O_1  and  C_17
REMARK    3  A    between atoms: C_19  and  C_24
REMARK    4  A    between atoms: C_33  and  C_34
REMARK                            x       y       z     vdW  Elec       q    Type
REMARK                         _______ _______ _______ _____ _____    ______ ____
ROOT
ATOM      1  O   UNL     1     104.869 129.228 144.514  0.00  0.00    +0.000 OA
ATOM      2  O   UNL     1     104.784 127.748 142.071  0.00  0.00    +0.000 OA
ATOM      3  O   UNL     1     103.357 130.244 142.265  0.00  0.00    +0.000 OA
ATOM      4  O   UNL     1     104.169 130.481 144.652  0.00  0.00    +0.000 OA
ATOM      5  C   UNL     1     104.827 128.488 143.293  0.00  0.00    +0.000 A 
ATOM      6  C   UNL     1     104.606 129.147 143.736  0.00  0.00    +0.000 A 
ATOM      7  C   UNL     1     104.563 128.408 142.514  0.00  0.00    +0.000 A 
ATOM      8  C   UNL     1     104.123 129.727 143.402  0.00  0.00    +0.000 A 
ATOM      9  C   UNL     1     104.080 128.987 142.180  0.00  0.00    +0.000 A 
ATOM     10  C   UNL     1     103.861 129.647 142.624  0.00  0.00    +0.000 A 
ATOM     11  C   UNL     1     103.901 130.409 143.875  0.00  0.00    +0.000 A 
ATOM     12  C   UNL     1     103.398 131.016 143.533  0.00  0.00    +0.000 A 
ATOM     13  C   UNL     1     103.124 130.933 142.722  0.00  0.00    +0.000 A 
ENDROOT
BRANCH   5  20
ATOM     14  O   UNL     1     104.978 127.312 144.090  0.00  0.00    +0.000 OA
ATOM     15  O   UNL     1     107.422 127.362 143.701  0.00  0.00    +0.000 OA
ATOM     16  O   UNL     1     106.456 128.521 143.033  0.00  0.00    +0.000 OA
ATOM     17  C   UNL     1     106.276 126.749 144.295  0.00  0.00    +0.000 C 
ATOM     18  C   UNL     1     106.607 127.346 143.830  0.00  0.00    +0.000 C 
ATOM     19  C   UNL     1     106.124 127.926 143.496  0.00  0.00    +0.000 C 
ATOM     20  C   UNL     1     105.310 127.908 143.627  0.00  0.00    +0.000 C 
ATOM     21  C   UNL     1     105.461 126.733 144.424  0.00  0.00    +0.000 C 
BRANCH  17  22
ATOM     22  O   UNL     1     106.758 126.170 144.629  0.00  0.00    +0.000 OA
BRANCH  22  27
ATOM     23  O   UNL     1     106.813 126.605 145.989  0.00  0.00    +0.000 OA
ATOM     24  O   UNL     1     106.436 124.632 145.133  0.00  0.00    +0.000 OA
ATOM     25  O   UNL     1     106.328 124.299 146.746  0.00  0.00    +0.000 OA
ATOM     26  O   UNL     1     106.544 125.502 147.853  0.00  0.00    +0.000 OA
ATOM     27  C   UNL     1     106.705 126.004 145.435  0.00  0.00    +0.000 C 
ATOM     28  C   UNL     1     106.544 125.235 145.687  0.00  0.00    +0.000 C 
ATOM     29  C   UNL     1     106.490 125.067 146.493  0.00  0.00    +0.000 C 
ATOM     30  C   UNL     1     106.598 125.670 147.047  0.00  0.00    +0.000 C 
ATOM     31  C   UNL     1     106.759 126.438 146.794  0.00  0.00    +0.000 C 
ATOM     32  C   UNL     1     106.867 127.040 147.349  0.00  0.00    +0.000 C 
ENDBRANCH  22  27
ENDBRANCH  17  22
ENDBRANCH   5  20
BRANCH  13  34
ATOM     33  O   UNL     1     101.192 133.244 141.375  0.00  0.00    +0.000 OA
ATOM     34  C   UNL     1     102.641 131.510 142.385  0.00  0.00    +0.000 A 
ATOM     35  C   UNL     1     101.821 131.451 142.450  0.00  0.00    +0.000 A 
ATOM     36  C   UNL     1     102.979 132.148 141.984  0.00  0.00    +0.000 A 
ATOM     37  C   UNL     1     101.338 132.029 142.113  0.00  0.00    +0.000 A 
ATOM     38  C   UNL     1     102.495 132.725 141.647  0.00  0.00    +0.000 A 
ATOM     39  C   UNL     1     101.675 132.666 141.712  0.00  0.00    +0.000 A 
ENDBRANCH  13  34
TORSDOF 4
ENDMDL
MODEL 7
REMARK VINA RESULT:     -10.2      4.779      7.628
REMARK  Name = 44257722
REMARK  4 active torsions:
REMARK  status: ('A' for Active; 'I' for Inactive)
REMARK    1  A    between atoms: O_1  and  C_14
REMARK    2  A    between atoms: O_1  and  C_17
REMARK    3  A    between atoms: C_19  and  C_24
REMARK    4  A    between atoms: C_33  and  C_34
REMARK                            x       y       z     vdW  Elec       q    Type
REMARK                         _______ _______ _______ _____ _____    ______ ____
ROOT
ATOM      1  O   UNL     1     105.036 130.963 141.134  0.00  0.00    +0.000 OA
ATOM      2  O   UNL     1     102.649 130.270 142.544  0.00  0.00    +0.000 OA
ATOM      3  O   UNL     1     103.027 132.983 141.648  0.00  0.00    +0.000 OA
ATOM      4  O   UNL     1     105.264 132.310 140.669  0.00  0.00    +0.000 OA
ATOM      5  C   UNL     1     103.843 130.617 141.839  0.00  0.00    +0.000 A 
ATOM      6  C   UNL     1     104.307 131.180 141.454  0.00  0.00    +0.000 A 
ATOM      7  C   UNL     1     103.113 130.833 142.159  0.00  0.00    +0.000 A 
ATOM      8  C   UNL     1     104.042 131.959 141.389  0.00  0.00    +0.000 A 
ATOM      9  C   UNL     1     102.848 131.612 142.094  0.00  0.00    +0.000 A 
ATOM     10  C   UNL     1     103.314 132.175 141.709  0.00  0.00    +0.000 A 
ATOM     11  C   UNL     1     104.536 132.535 140.986  0.00  0.00    +0.000 A 
ATOM     12  C   UNL     1     104.266 133.348 140.915  0.00  0.00    +0.000 A 
ATOM     13  C   UNL     1     103.506 133.573 141.249  0.00  0.00    +0.000 A 
ENDROOT
BRANCH   5  20
ATOM     14  O   UNL     1     104.561 129.610 142.554  0.00  0.00    +0.000 OA
ATOM     15  O   UNL     1     103.992 127.959 140.800  0.00  0.00    +0.000 OA
ATOM     16  O   UNL     1     103.463 129.517 140.670  0.00  0.00    +0.000 OA
ATOM     17  C   UNL     1     104.636 128.281 142.034  0.00  0.00    +0.000 C 
ATOM     18  C   UNL     1     104.181 128.510 141.384  0.00  0.00    +0.000 C 
ATOM     19  C   UNL     1     103.917 129.288 141.319  0.00  0.00    +0.000 C 
ATOM     20  C   UNL     1     104.107 129.838 141.904  0.00  0.00    +0.000 C 
ATOM     21  C   UNL     1     104.825 128.831 142.619  0.00  0.00    +0.000 C 
BRANCH  17  22
ATOM     22  O   UNL     1     104.900 127.502 142.099  0.00  0.00    +0.000 OA
BRANCH  22  27
ATOM     23  O   UNL     1     106.287 127.735 141.847  0.00  0.00    +0.000 OA
ATOM     24  O   UNL     1     105.297 126.421 143.281  0.00  0.00    +0.000 OA
ATOM     25  O   UNL     1     106.882 126.114 143.620  0.00  0.00    +0.000 OA
ATOM     26  O   UNL     1     108.071 126.888 142.778  0.00  0.00    +0.000 OA
ATOM     27  C   UNL     1     105.693 127.349 142.268  0.00  0.00    +0.000 C 
ATOM     28  C   UNL     1     105.892 126.808 142.859  0.00  0.00    +0.000 C 
ATOM     29  C   UNL     1     106.684 126.654 143.029  0.00  0.00    +0.000 C 
ATOM     30  C   UNL     1     107.278 127.042 142.608  0.00  0.00    +0.000 C 
ATOM     31  C   UNL     1     107.079 127.582 142.017  0.00  0.00    +0.000 C 
ATOM     32  C   UNL     1     107.674 127.969 141.596  0.00  0.00    +0.000 C 
ENDBRANCH  22  27
ENDBRANCH  17  22
ENDBRANCH   5  20
BRANCH  13  34
ATOM     33  O   UNL     1     102.438 136.685 140.994  0.00  0.00    +0.000 OA
ATOM     34  C   UNL     1     103.239 134.351 141.185  0.00  0.00    +0.000 A 
ATOM     35  C   UNL     1     103.425 134.901 141.772  0.00  0.00    +0.000 A 
ATOM     36  C   UNL     1     102.786 134.580 140.535  0.00  0.00    +0.000 A 
ATOM     37  C   UNL     1     103.158 135.679 141.708  0.00  0.00    +0.000 A 
ATOM     38  C   UNL     1     102.519 135.358 140.471  0.00  0.00    +0.000 A 
ATOM     39  C   UNL     1     102.705 135.907 141.058  0.00  0.00    +0.000 A 
ENDBRANCH  13  34
TORSDOF 4
ENDMDL
MODEL 8
REMARK VINA RESULT:     -10.2      4.566      6.042
REMARK  Name = 44257722
REMARK  4 active torsions:
REMARK  status: ('A' for Active; 'I' for Inactive)
REMARK    1  A    between atoms: O_1  and  C_14
REMARK    2  A    between atoms: O_1  and  C_17
REMARK    3  A    between atoms: C_19  and  C_24
REMARK    4  A    between atoms: C_33  and  C_34
REMARK                            x       y       z     vdW  Elec       q    Type
REMARK                         _______ _______ _______ _____ _____    ______ ____
ROOT
ATOM      1  O   UNL     1     106.900 125.807 143.510  0.00  0.00    +0.000 OA
ATOM      2  O   UNL     1     105.541 127.503 145.365  0.00  0.00    +0.000 OA
ATOM      3  O   UNL     1     107.093 128.683 143.242  0.00  0.00    +0.000 OA
ATOM      4  O   UNL     1     107.688 126.358 142.433  0.00  0.00    +0.000 OA
ATOM      5  C   UNL     1     106.220 126.655 144.437  0.00  0.00    +0.000 A 
ATOM      6  C   UNL     1     106.705 126.564 143.776  0.00  0.00    +0.000 A 
ATOM      7  C   UNL     1     106.025 127.412 144.703  0.00  0.00    +0.000 A 
ATOM      8  C   UNL     1     106.993 127.228 143.380  0.00  0.00    +0.000 A 
ATOM      9  C   UNL     1     106.313 128.076 144.308  0.00  0.00    +0.000 A 
ATOM     10  C   UNL     1     106.798 127.983 143.646  0.00  0.00    +0.000 A 
ATOM     11  C   UNL     1     107.497 127.118 142.692  0.00  0.00    +0.000 A 
ATOM     12  C   UNL     1     107.801 127.806 142.276  0.00  0.00    +0.000 A 
ATOM     13  C   UNL     1     107.597 128.594 142.553  0.00  0.00    +0.000 A 
ENDROOT
BRANCH   5  20
ATOM     14  O   UNL     1     105.230 125.637 144.585  0.00  0.00    +0.000 OA
ATOM     15  O   UNL     1     106.471 124.709 146.515  0.00  0.00    +0.000 OA
ATOM     16  O   UNL     1     107.048 126.037 145.724  0.00  0.00    +0.000 OA
ATOM     17  C   UNL     1     105.354 124.663 145.624  0.00  0.00    +0.000 C 
ATOM     18  C   UNL     1     106.057 125.018 145.872  0.00  0.00    +0.000 C 
ATOM     19  C   UNL     1     106.346 125.682 145.476  0.00  0.00    +0.000 C 
ATOM     20  C   UNL     1     105.932 125.991 144.833  0.00  0.00    +0.000 C 
ATOM     21  C   UNL     1     104.941 124.973 144.980  0.00  0.00    +0.000 C 
BRANCH  17  22
ATOM     22  O   UNL     1     105.066 123.999 146.019  0.00  0.00    +0.000 OA
BRANCH  22  27
ATOM     23  O   UNL     1     104.012 124.596 146.777  0.00  0.00    +0.000 OA
ATOM     24  O   UNL     1     104.060 122.761 145.596  0.00  0.00    +0.000 OA
ATOM     25  O   UNL     1     102.504 122.739 146.142  0.00  0.00    +0.000 OA
ATOM     26  O   UNL     1     101.952 123.955 147.112  0.00  0.00    +0.000 OA
ATOM     27  C   UNL     1     104.287 123.989 146.293  0.00  0.00    +0.000 C 
ATOM     28  C   UNL     1     103.785 123.370 146.081  0.00  0.00    +0.000 C 
ATOM     29  C   UNL     1     103.006 123.358 146.354  0.00  0.00    +0.000 C 
ATOM     30  C   UNL     1     102.731 123.966 146.839  0.00  0.00    +0.000 C 
ATOM     31  C   UNL     1     103.234 124.585 147.050  0.00  0.00    +0.000 C 
ATOM     32  C   UNL     1     102.958 125.193 147.535  0.00  0.00    +0.000 C 
ENDBRANCH  22  27
ENDBRANCH  17  22
ENDBRANCH   5  20
BRANCH  13  34
ATOM     33  O   UNL     1     108.746 131.257 140.979  0.00  0.00    +0.000 OA
ATOM     34  C   UNL     1     107.884 129.260 142.160  0.00  0.00    +0.000 A 
ATOM     35  C   UNL     1     108.607 129.590 142.381  0.00  0.00    +0.000 A 
ATOM     36  C   UNL     1     107.448 129.595 141.545  0.00  0.00    +0.000 A 
ATOM     37  C   UNL     1     108.894 130.256 141.988  0.00  0.00    +0.000 A 
ATOM     38  C   UNL     1     107.736 130.261 141.151  0.00  0.00    +0.000 A 
ATOM     39  C   UNL     1     108.459 130.591 141.373  0.00  0.00    +0.000 A 
ENDBRANCH  13  34
TORSDOF 4
ENDMDL
MODEL 9
REMARK VINA RESULT:     -10.2      3.377      7.012
REMARK  Name = 44257722
REMARK  4 active torsions:
REMARK  status: ('A' for Active; 'I' for Inactive)
REMARK    1  A    between atoms: O_1  and  C_14
REMARK    2  A    between atoms: O_1  and  C_17
REMARK    3  A    between atoms: C_19  and  C_24
REMARK    4  A    between atoms: C_33  and  C_34
REMARK                            x       y       z     vdW  Elec       q    Type
REMARK                         _______ _______ _______ _____ _____    ______ ____
ROOT
ATOM      1  O   UNL     1     109.520 125.504 141.216  0.00  0.00    +0.000 OA
ATOM      2  O   UNL     1     107.516 127.539 141.125  0.00  0.00    +0.000 OA
ATOM      3  O   UNL     1     110.290 128.292 141.332  0.00  0.00    +0.000 OA
ATOM      4  O   UNL     1     110.920 125.840 141.320  0.00  0.00    +0.000 OA
ATOM      5  C   UNL     1     108.518 126.522 141.171  0.00  0.00    +0.000 A 
ATOM      6  C   UNL     1     109.312 126.303 141.220  0.00  0.00    +0.000 A 
ATOM      7  C   UNL     1     108.309 127.320 141.174  0.00  0.00    +0.000 A 
ATOM      8  C   UNL     1     109.897 126.882 141.273  0.00  0.00    +0.000 A 
ATOM      9  C   UNL     1     108.895 127.899 141.228  0.00  0.00    +0.000 A 
ATOM     10  C   UNL     1     109.689 127.680 141.277  0.00  0.00    +0.000 A 
ATOM     11  C   UNL     1     110.720 126.641 141.325  0.00  0.00    +0.000 A 
ATOM     12  C   UNL     1     111.335 127.238 141.380  0.00  0.00    +0.000 A 
ATOM     13  C   UNL     1     111.117 128.071 141.384  0.00  0.00    +0.000 A 
ENDROOT
BRANCH   5  20
ATOM     14  O   UNL     1     107.748 125.609 140.386  0.00  0.00    +0.000 OA
ATOM     15  O   UNL     1     106.546 124.873 142.420  0.00  0.00    +0.000 OA
ATOM     16  O   UNL     1     107.717 126.031 142.527  0.00  0.00    +0.000 OA
ATOM     17  C   UNL     1     106.762 124.785 141.010  0.00  0.00    +0.000 C 
ATOM     18  C   UNL     1     106.947 125.119 141.743  0.00  0.00    +0.000 C 
ATOM     19  C   UNL     1     107.532 125.698 141.796  0.00  0.00    +0.000 C 
ATOM     20  C   UNL     1     107.933 125.943 141.117  0.00  0.00    +0.000 C 
ATOM     21  C   UNL     1     107.163 125.030 140.333  0.00  0.00    +0.000 C 
BRANCH  17  22
ATOM     22  O   UNL     1     106.177 124.206 140.957  0.00  0.00    +0.000 OA
BRANCH  22  27
ATOM     23  O   UNL     1     105.211 124.925 140.188  0.00  0.00    +0.000 OA
ATOM     24  O   UNL     1     105.913 122.864 140.034  0.00  0.00    +0.000 OA
ATOM     25  O   UNL     1     104.814 122.913 138.803  0.00  0.00    +0.000 OA
ATOM     26  O   UNL     1     103.980 124.303 138.496  0.00  0.00    +0.000 OA
ATOM     27  C   UNL     1     105.627 124.231 140.342  0.00  0.00    +0.000 C 
ATOM     28  C   UNL     1     105.495 123.560 139.880  0.00  0.00    +0.000 C 
ATOM     29  C   UNL     1     104.947 123.584 139.265  0.00  0.00    +0.000 C 
ATOM     30  C   UNL     1     104.530 124.279 139.112  0.00  0.00    +0.000 C 
ATOM     31  C   UNL     1     104.662 124.950 139.574  0.00  0.00    +0.000 C 
ATOM     32  C   UNL     1     104.244 125.645 139.420  0.00  0.00    +0.000 C 
ENDBRANCH  22  27
ENDBRANCH  17  22
ENDBRANCH   5  20
BRANCH  13  34
ATOM     33  O   UNL     1     113.450 130.395 141.597  0.00  0.00    +0.000 OA
ATOM     34  C   UNL     1     111.700 128.652 141.438  0.00  0.00    +0.000 A 
ATOM     35  C   UNL     1     112.079 128.920 140.755  0.00  0.00    +0.000 A 
ATOM     36  C   UNL     1     111.905 128.964 142.173  0.00  0.00    +0.000 A 
ATOM     37  C   UNL     1     112.662 129.501 140.809  0.00  0.00    +0.000 A 
ATOM     38  C   UNL     1     112.488 129.546 142.226  0.00  0.00    +0.000 A 
ATOM     39  C   UNL     1     112.867 129.814 141.544  0.00  0.00    +0.000 A 
ENDBRANCH  13  34
TORSDOF 4
ENDMDL
MODEL 10
REMARK VINA RESULT:     -10.1      7.689     11.459
REMARK  Name = 44257722
REMARK  4 active torsions:
REMARK  status: ('A' for Active; 'I' for Inactive)
REMARK    1  A    between atoms: O_1  and  C_14
REMARK    2  A    between atoms: O_1  and  C_17
REMARK    3  A    between atoms: C_19  and  C_24
REMARK    4  A    between atoms: C_33  and  C_34
REMARK                            x       y       z     vdW  Elec       q    Type
REMARK                         _______ _______ _______ _____ _____    ______ ____
ROOT
ATOM      1  O   UNL     1     112.157 132.500 142.989  0.00  0.00    +0.000 OA
ATOM      2  O   UNL     1     111.278 129.837 143.537  0.00  0.00    +0.000 OA
ATOM      3  O   UNL     1     111.998 131.568 145.725  0.00  0.00    +0.000 OA
ATOM      4  O   UNL     1     112.527 133.398 144.056  0.00  0.00    +0.000 OA
ATOM      5  C   UNL     1     111.717 131.168 143.263  0.00  0.00    +0.000 A 
ATOM      6  C   UNL     1     111.984 131.902 143.531  0.00  0.00    +0.000 A 
ATOM      7  C   UNL     1     111.544 130.570 143.805  0.00  0.00    +0.000 A 
ATOM      8  C   UNL     1     112.078 132.037 144.339  0.00  0.00    +0.000 A 
ATOM      9  C   UNL     1     111.638 130.705 144.613  0.00  0.00    +0.000 A 
ATOM     10  C   UNL     1     111.905 131.439 144.880  0.00  0.00    +0.000 A 
ATOM     11  C   UNL     1     112.356 132.806 144.605  0.00  0.00    +0.000 A 
ATOM     12  C   UNL     1     112.456 132.953 145.445  0.00  0.00    +0.000 A 
ATOM     13  C   UNL     1     112.276 132.329 146.010  0.00  0.00    +0.000 A 
ENDROOT
BRANCH   5  20
ATOM     14  O   UNL     1     112.260 130.761 142.006  0.00  0.00    +0.000 OA
ATOM     15  O   UNL     1     110.070 131.172 140.928  0.00  0.00    +0.000 OA
ATOM     16  O   UNL     1     110.258 131.442 142.545  0.00  0.00    +0.000 OA
ATOM     17  C   UNL     1     111.436 130.762 140.838  0.00  0.00    +0.000 C 
ATOM     18  C   UNL     1     110.800 131.035 141.288  0.00  0.00    +0.000 C 
ATOM     19  C   UNL     1     110.893 131.170 142.096  0.00  0.00    +0.000 C 
ATOM     20  C   UNL     1     111.624 131.033 142.455  0.00  0.00    +0.000 C 
ATOM     21  C   UNL     1     112.166 130.626 141.198  0.00  0.00    +0.000 C 
BRANCH  17  22
ATOM     22  O   UNL     1     111.343 130.627 140.030  0.00  0.00    +0.000 OA
BRANCH  22  27
ATOM     23  O   UNL     1     111.550 129.214 139.985  0.00  0.00    +0.000 OA
ATOM     24  O   UNL     1     112.325 130.812 138.717  0.00  0.00    +0.000 OA
ATOM     25  O   UNL     1     113.023 129.492 138.015  0.00  0.00    +0.000 OA
ATOM     26  O   UNL     1     112.739 127.986 138.627  0.00  0.00    +0.000 OA
ATOM     27  C   UNL     1     111.692 129.966 139.679  0.00  0.00    +0.000 C 
ATOM     28  C   UNL     1     112.183 130.059 139.023  0.00  0.00    +0.000 C 
ATOM     29  C   UNL     1     112.532 129.399 138.672  0.00  0.00    +0.000 C 
ATOM     30  C   UNL     1     112.390 128.647 138.978  0.00  0.00    +0.000 C 
ATOM     31  C   UNL     1     111.899 128.554 139.635  0.00  0.00    +0.000 C 
ATOM     32  C   UNL     1     111.757 127.801 139.940  0.00  0.00    +0.000 C 
ENDBRANCH  22  27
ENDBRANCH  17  22
ENDBRANCH   5  20
BRANCH  13  34
ATOM     33  O   UNL     1     112.647 132.860 149.246  0.00  0.00    +0.000 OA
ATOM     34  C   UNL     1     112.368 132.462 146.819  0.00  0.00    +0.000 A 
ATOM     35  C   UNL     1     111.797 132.887 147.235  0.00  0.00    +0.000 A 
ATOM     36  C   UNL     1     113.032 132.169 147.211  0.00  0.00    +0.000 A 
ATOM     37  C   UNL     1     111.890 133.020 148.044  0.00  0.00    +0.000 A 
ATOM     38  C   UNL     1     113.125 132.302 148.020  0.00  0.00    +0.000 A 
ATOM     39  C   UNL     1     112.554 132.727 148.437  0.00  0.00    +0.000 A 
ENDBRANCH  13  34
TORSDOF 4
ENDMDL
