MODEL 1
REMARK VINA RESULT:      -8.8      0.000      0.000
REMARK  Name = 44260070
REMARK  8 active torsions:
REMARK  status: ('A' for Active; 'I' for Inactive)
REMARK    1  A    between atoms: O_2  and  C_20
REMARK    2  A    between atoms: O_2  and  C_22
REMARK    3  A    between atoms: O_7  and  C_24
REMARK    4  A    between atoms: O_10  and  C_29
REMARK    5  A    between atoms: O_11  and  C_33
REMARK    6  A    between atoms: O_13  and  C_35
REMARK    7  A    between atoms: C_19  and  C_21
REMARK    8  A    between atoms: C_25  and  C_28
REMARK                            x       y       z     vdW  Elec       q    Type
REMARK                         _______ _______ _______ _____ _____    ______ ____
ROOT
ATOM      1  O   UNL     1     114.437 129.731 134.617  0.00  0.00    +0.000 OA
ATOM      2  C   UNL     1     113.914 129.660 136.734  0.00  0.00    +0.000 A 
ATOM      3  C   UNL     1     113.538 128.927 136.777  0.00  0.00    +0.000 A 
ATOM      4  C   UNL     1     114.213 129.928 136.013  0.00  0.00    +0.000 A 
ATOM      5  C   UNL     1     113.462 128.462 136.100  0.00  0.00    +0.000 A 
ATOM      6  C   UNL     1     114.138 129.463 135.336  0.00  0.00    +0.000 A 
ATOM      7  C   UNL     1     113.762 128.730 135.380  0.00  0.00    +0.000 A 
ENDROOT
BRANCH   5  12
ATOM      8  O   UNL     1     113.527 127.031 136.390  0.00  0.00    +0.000 OA
ATOM      9  O   UNL     1     111.073 126.809 135.806  0.00  0.00    +0.000 OA
ATOM     10  O   UNL     1     111.156 125.398 136.096  0.00  0.00    +0.000 OA
ATOM     11  O   UNL     1     113.609 124.207 136.950  0.00  0.00    +0.000 OA
ATOM     12  C   UNL     1     113.087 127.728 136.144  0.00  0.00    +0.000 A 
ATOM     13  C   UNL     1     112.255 127.655 135.946  0.00  0.00    +0.000 A 
ATOM     14  C   UNL     1     113.128 126.272 136.433  0.00  0.00    +0.000 A 
ATOM     15  C   UNL     1     112.328 126.202 136.242  0.00  0.00    +0.000 A 
ATOM     16  C   UNL     1     111.872 126.887 135.995  0.00  0.00    +0.000 A 
ATOM     17  C   UNL     1     113.555 125.607 136.669  0.00  0.00    +0.000 A 
ATOM     18  C   UNL     1     111.956 125.468 136.287  0.00  0.00    +0.000 A 
ATOM     19  C   UNL     1     112.383 124.802 136.523  0.00  0.00    +0.000 A 
ATOM     20  C   UNL     1     113.182 124.872 136.714  0.00  0.00    +0.000 A 
BRANCH  13  21
ATOM     21  O   UNL     1     111.824 128.319 135.709  0.00  0.00    +0.000 OA
ATOM     22  C   UNL     1     111.020 128.250 135.540  0.00  0.00    +0.000 C 
ENDBRANCH  13  21
BRANCH  17  23
ATOM     23  O   UNL     1     114.354 125.677 136.860  0.00  0.00    +0.000 OA
ATOM     24  C   UNL     1     114.917 125.245 136.439  0.00  0.00    +0.000 C 
ENDBRANCH  17  23
BRANCH  19  25
ATOM     25  O   UNL     1     112.011 124.067 136.569  0.00  0.00    +0.000 OA
ATOM     26  C   UNL     1     111.726 123.793 137.292  0.00  0.00    +0.000 C 
ENDBRANCH  19  25
ENDBRANCH   5  12
BRANCH   4  27
ATOM     27  O   UNL     1     114.589 130.661 135.971  0.00  0.00    +0.000 OA
ATOM     28  C   UNL     1     115.364 130.712 135.691  0.00  0.00    +0.000 C 
ENDBRANCH   4  27
BRANCH   2  29
ATOM     29  O   UNL     1     113.989 130.125 137.411  0.00  0.00    +0.000 OA
BRANCH  29  38
ATOM     30  O   UNL     1     112.694 130.723 137.492  0.00  0.00    +0.000 OA
ATOM     31  O   UNL     1     112.569 130.129 139.891  0.00  0.00    +0.000 OA
ATOM     32  O   UNL     1     111.316 130.925 139.172  0.00  0.00    +0.000 OA
ATOM     33  O   UNL     1     113.906 129.729 139.011  0.00  0.00    +0.000 OA
ATOM     34  C   UNL     1     112.611 130.327 139.091  0.00  0.00    +0.000 C 
ATOM     35  C   UNL     1     111.984 130.725 138.731  0.00  0.00    +0.000 C 
ATOM     36  C   UNL     1     113.280 130.127 138.651  0.00  0.00    +0.000 C 
ATOM     37  C   UNL     1     112.026 130.923 137.931  0.00  0.00    +0.000 C 
ATOM     38  C   UNL     1     113.321 130.325 137.851  0.00  0.00    +0.000 C 
BRANCH  37  40
ATOM     39  O   UNL     1     111.549 131.909 137.013  0.00  0.00    +0.000 OA
ATOM     40  C   UNL     1     111.400 131.321 137.572  0.00  0.00    +0.000 C 
ENDBRANCH  37  40
ENDBRANCH  29  38
ENDBRANCH   2  29
TORSDOF 8
ENDMDL
MODEL 2
REMARK VINA RESULT:      -8.7      1.801      2.709
REMARK  Name = 44260070
REMARK  8 active torsions:
REMARK  status: ('A' for Active; 'I' for Inactive)
REMARK    1  A    between atoms: O_2  and  C_20
REMARK    2  A    between atoms: O_2  and  C_22
REMARK    3  A    between atoms: O_7  and  C_24
REMARK    4  A    between atoms: O_10  and  C_29
REMARK    5  A    between atoms: O_11  and  C_33
REMARK    6  A    between atoms: O_13  and  C_35
REMARK    7  A    between atoms: C_19  and  C_21
REMARK    8  A    between atoms: C_25  and  C_28
REMARK                            x       y       z     vdW  Elec       q    Type
REMARK                         _______ _______ _______ _____ _____    ______ ____
ROOT
ATOM      1  O   UNL     1     113.919 129.819 136.080  0.00  0.00    +0.000 OA
ATOM      2  C   UNL     1     111.933 129.835 136.986  0.00  0.00    +0.000 A 
ATOM      3  C   UNL     1     111.830 129.033 137.150  0.00  0.00    +0.000 A 
ATOM      4  C   UNL     1     112.630 130.097 136.630  0.00  0.00    +0.000 A 
ATOM      5  C   UNL     1     112.424 128.493 136.957  0.00  0.00    +0.000 A 
ATOM      6  C   UNL     1     113.223 129.557 136.437  0.00  0.00    +0.000 A 
ATOM      7  C   UNL     1     113.119 128.755 136.600  0.00  0.00    +0.000 A 
ENDROOT
BRANCH   5  12
ATOM      8  O   UNL     1     111.965 127.172 136.534  0.00  0.00    +0.000 OA
ATOM      9  O   UNL     1     112.686 126.214 138.764  0.00  0.00    +0.000 OA
ATOM     10  O   UNL     1     112.227 124.917 138.329  0.00  0.00    +0.000 OA
ATOM     11  O   UNL     1     111.073 124.551 135.740  0.00  0.00    +0.000 OA
ATOM     12  C   UNL     1     112.320 127.691 137.121  0.00  0.00    +0.000 A 
ATOM     13  C   UNL     1     112.565 127.369 137.877  0.00  0.00    +0.000 A 
ATOM     14  C   UNL     1     111.860 126.339 136.713  0.00  0.00    +0.000 A 
ATOM     15  C   UNL     1     112.096 126.029 137.440  0.00  0.00    +0.000 A 
ATOM     16  C   UNL     1     112.453 126.532 138.039  0.00  0.00    +0.000 A 
ATOM     17  C   UNL     1     111.519 125.846 136.146  0.00  0.00    +0.000 A 
ATOM     18  C   UNL     1     111.991 125.227 137.601  0.00  0.00    +0.000 A 
ATOM     19  C   UNL     1     111.650 124.734 137.034  0.00  0.00    +0.000 A 
ATOM     20  C   UNL     1     111.414 125.044 136.307  0.00  0.00    +0.000 A 
BRANCH  13  21
ATOM     21  O   UNL     1     112.907 127.859 138.448  0.00  0.00    +0.000 OA
ATOM     22  C   UNL     1     112.976 127.599 139.227  0.00  0.00    +0.000 C 
ENDBRANCH  13  21
BRANCH  17  23
ATOM     23  O   UNL     1     111.284 126.156 135.419  0.00  0.00    +0.000 OA
ATOM     24  C   UNL     1     110.495 126.100 135.184  0.00  0.00    +0.000 C 
ENDBRANCH  17  23
BRANCH  19  25
ATOM     25  O   UNL     1     111.544 123.931 137.194  0.00  0.00    +0.000 OA
ATOM     26  C   UNL     1     112.124 123.388 136.977  0.00  0.00    +0.000 C 
ENDBRANCH  19  25
ENDBRANCH   5  12
BRANCH   4  27
ATOM     27  O   UNL     1     112.732 130.899 136.466  0.00  0.00    +0.000 OA
ATOM     28  C   UNL     1     113.349 131.317 136.822  0.00  0.00    +0.000 C 
ENDBRANCH   4  27
BRANCH   2  29
ATOM     29  O   UNL     1     111.340 130.375 137.179  0.00  0.00    +0.000 OA
BRANCH  29  38
ATOM     30  O   UNL     1     110.343 130.029 136.216  0.00  0.00    +0.000 OA
ATOM     31  O   UNL     1     108.616 130.068 137.987  0.00  0.00    +0.000 OA
ATOM     32  O   UNL     1     108.196 129.709 136.433  0.00  0.00    +0.000 OA
ATOM     33  O   UNL     1     110.188 130.401 138.361  0.00  0.00    +0.000 OA
ATOM     34  C   UNL     1     109.192 130.055 137.397  0.00  0.00    +0.000 C 
ATOM     35  C   UNL     1     108.982 129.875 136.619  0.00  0.00    +0.000 C 
ATOM     36  C   UNL     1     109.979 130.222 137.583  0.00  0.00    +0.000 C 
ATOM     37  C   UNL     1     109.558 129.862 136.029  0.00  0.00    +0.000 C 
ATOM     38  C   UNL     1     110.554 130.209 136.993  0.00  0.00    +0.000 C 
BRANCH  37  40
ATOM     39  O   UNL     1     109.648 130.131 134.628  0.00  0.00    +0.000 OA
ATOM     40  C   UNL     1     109.348 129.683 135.252  0.00  0.00    +0.000 C 
ENDBRANCH  37  40
ENDBRANCH  29  38
ENDBRANCH   2  29
TORSDOF 8
ENDMDL
MODEL 3
REMARK VINA RESULT:      -8.6     10.553     12.669
REMARK  Name = 44260070
REMARK  8 active torsions:
REMARK  status: ('A' for Active; 'I' for Inactive)
REMARK    1  A    between atoms: O_2  and  C_20
REMARK    2  A    between atoms: O_2  and  C_22
REMARK    3  A    between atoms: O_7  and  C_24
REMARK    4  A    between atoms: O_10  and  C_29
REMARK    5  A    between atoms: O_11  and  C_33
REMARK    6  A    between atoms: O_13  and  C_35
REMARK    7  A    between atoms: C_19  and  C_21
REMARK    8  A    between atoms: C_25  and  C_28
REMARK                            x       y       z     vdW  Elec       q    Type
REMARK                         _______ _______ _______ _____ _____    ______ ____
ROOT
ATOM      1  O   UNL     1     107.619 125.061 147.055  0.00  0.00    +0.000 OA
ATOM      2  C   UNL     1     105.438 125.015 146.986  0.00  0.00    +0.000 A 
ATOM      3  C   UNL     1     105.290 125.559 146.383  0.00  0.00    +0.000 A 
ATOM      4  C   UNL     1     106.215 124.849 147.209  0.00  0.00    +0.000 A 
ATOM      5  C   UNL     1     105.918 125.937 146.004  0.00  0.00    +0.000 A 
ATOM      6  C   UNL     1     106.843 125.227 146.831  0.00  0.00    +0.000 A 
ATOM      7  C   UNL     1     106.694 125.771 146.228  0.00  0.00    +0.000 A 
ENDROOT
BRANCH   5  12
ATOM      8  O   UNL     1     105.726 126.218 144.584  0.00  0.00    +0.000 OA
ATOM      9  O   UNL     1     105.391 128.669 145.121  0.00  0.00    +0.000 OA
ATOM     10  O   UNL     1     105.204 128.928 143.714  0.00  0.00    +0.000 OA
ATOM     11  O   UNL     1     105.342 126.817 141.792  0.00  0.00    +0.000 OA
ATOM     12  C   UNL     1     105.769 126.480 145.402  0.00  0.00    +0.000 A 
ATOM     13  C   UNL     1     105.656 127.311 145.586  0.00  0.00    +0.000 A 
ATOM     14  C   UNL     1     105.571 126.791 143.963  0.00  0.00    +0.000 A 
ATOM     15  C   UNL     1     105.462 127.589 144.141  0.00  0.00    +0.000 A 
ATOM     16  C   UNL     1     105.501 127.870 144.952  0.00  0.00    +0.000 A 
ATOM     17  C   UNL     1     105.531 126.533 143.180  0.00  0.00    +0.000 A 
ATOM     18  C   UNL     1     105.313 128.130 143.536  0.00  0.00    +0.000 A 
ATOM     19  C   UNL     1     105.273 127.872 142.753  0.00  0.00    +0.000 A 
ATOM     20  C   UNL     1     105.382 127.074 142.575  0.00  0.00    +0.000 A 
BRANCH  13  21
ATOM     21  O   UNL     1     105.695 127.572 146.369  0.00  0.00    +0.000 OA
ATOM     22  C   UNL     1     105.334 128.281 146.585  0.00  0.00    +0.000 C 
ENDBRANCH  13  21
BRANCH  17  23
ATOM     23  O   UNL     1     105.639 125.735 143.003  0.00  0.00    +0.000 OA
ATOM     24  C   UNL     1     106.232 125.507 142.476  0.00  0.00    +0.000 C 
ENDBRANCH  17  23
BRANCH  19  25
ATOM     25  O   UNL     1     105.124 128.413 142.147  0.00  0.00    +0.000 OA
ATOM     26  C   UNL     1     104.352 128.539 141.888  0.00  0.00    +0.000 C 
ENDBRANCH  19  25
ENDBRANCH   5  12
BRANCH   4  27
ATOM     27  O   UNL     1     106.363 124.306 147.812  0.00  0.00    +0.000 OA
ATOM     28  C   UNL     1     106.772 124.542 148.489  0.00  0.00    +0.000 C 
ENDBRANCH   4  27
BRANCH   2  29
ATOM     29  O   UNL     1     104.810 124.638 147.364  0.00  0.00    +0.000 OA
BRANCH  29  38
ATOM     30  O   UNL     1     104.385 123.737 146.339  0.00  0.00    +0.000 OA
ATOM     31  O   UNL     1     102.031 124.387 146.743  0.00  0.00    +0.000 OA
ATOM     32  O   UNL     1     102.392 123.271 145.584  0.00  0.00    +0.000 OA
ATOM     33  O   UNL     1     103.241 125.071 147.634  0.00  0.00    +0.000 OA
ATOM     34  C   UNL     1     102.816 124.171 146.608  0.00  0.00    +0.000 C 
ATOM     35  C   UNL     1     102.997 123.612 146.029  0.00  0.00    +0.000 C 
ATOM     36  C   UNL     1     103.421 124.513 147.054  0.00  0.00    +0.000 C 
ATOM     37  C   UNL     1     103.781 123.396 145.894  0.00  0.00    +0.000 C 
ATOM     38  C   UNL     1     104.206 124.296 146.919  0.00  0.00    +0.000 C 
BRANCH  37  40
ATOM     39  O   UNL     1     104.477 123.031 144.701  0.00  0.00    +0.000 OA
ATOM     40  C   UNL     1     103.961 122.837 145.315  0.00  0.00    +0.000 C 
ENDBRANCH  37  40
ENDBRANCH  29  38
ENDBRANCH   2  29
TORSDOF 8
ENDMDL
MODEL 4
REMARK VINA RESULT:      -8.5      2.089      4.611
REMARK  Name = 44260070
REMARK  8 active torsions:
REMARK  status: ('A' for Active; 'I' for Inactive)
REMARK    1  A    between atoms: O_2  and  C_20
REMARK    2  A    between atoms: O_2  and  C_22
REMARK    3  A    between atoms: O_7  and  C_24
REMARK    4  A    between atoms: O_10  and  C_29
REMARK    5  A    between atoms: O_11  and  C_33
REMARK    6  A    between atoms: O_13  and  C_35
REMARK    7  A    between atoms: C_19  and  C_21
REMARK    8  A    between atoms: C_25  and  C_28
REMARK                            x       y       z     vdW  Elec       q    Type
REMARK                         _______ _______ _______ _____ _____    ______ ____
ROOT
ATOM      1  O   UNL     1     114.549 126.179 136.293  0.00  0.00    +0.000 OA
ATOM      2  C   UNL     1     113.162 126.306 137.973  0.00  0.00    +0.000 A 
ATOM      3  C   UNL     1     112.775 127.014 137.802  0.00  0.00    +0.000 A 
ATOM      4  C   UNL     1     113.754 126.027 137.469  0.00  0.00    +0.000 A 
ATOM      5  C   UNL     1     112.979 127.444 137.129  0.00  0.00    +0.000 A 
ATOM      6  C   UNL     1     113.958 126.457 136.796  0.00  0.00    +0.000 A 
ATOM      7  C   UNL     1     113.571 127.166 136.626  0.00  0.00    +0.000 A 
ENDROOT
BRANCH   5  12
ATOM      8  O   UNL     1     112.836 128.882 137.343  0.00  0.00    +0.000 OA
ATOM      9  O   UNL     1     110.919 128.932 135.690  0.00  0.00    +0.000 OA
ATOM     10  O   UNL     1     110.793 130.351 135.914  0.00  0.00    +0.000 OA
ATOM     11  O   UNL     1     112.520 131.718 137.736  0.00  0.00    +0.000 OA
ATOM     12  C   UNL     1     112.592 128.152 136.959  0.00  0.00    +0.000 A 
ATOM     13  C   UNL     1     111.942 128.167 136.398  0.00  0.00    +0.000 A 
ATOM     14  C   UNL     1     112.427 129.615 137.161  0.00  0.00    +0.000 A 
ATOM     15  C   UNL     1     111.803 129.628 136.621  0.00  0.00    +0.000 A 
ATOM     16  C   UNL     1     111.544 128.910 136.227  0.00  0.00    +0.000 A 
ATOM     17  C   UNL     1     112.666 130.311 137.532  0.00  0.00    +0.000 A 
ATOM     18  C   UNL     1     111.417 130.338 136.454  0.00  0.00    +0.000 A 
ATOM     19  C   UNL     1     111.656 131.035 136.825  0.00  0.00    +0.000 A 
ATOM     20  C   UNL     1     112.281 131.021 137.365  0.00  0.00    +0.000 A 
BRANCH  13  21
ATOM     21  O   UNL     1     111.700 127.471 136.024  0.00  0.00    +0.000 OA
ATOM     22  C   UNL     1     110.956 127.431 135.671  0.00  0.00    +0.000 C 
ENDBRANCH  13  21
BRANCH  17  23
ATOM     23  O   UNL     1     113.290 130.297 138.071  0.00  0.00    +0.000 OA
ATOM     24  C   UNL     1     113.974 130.734 137.921  0.00  0.00    +0.000 C 
ENDBRANCH  17  23
BRANCH  19  25
ATOM     25  O   UNL     1     111.271 131.745 136.658  0.00  0.00    +0.000 OA
ATOM     26  C   UNL     1     110.665 132.011 137.150  0.00  0.00    +0.000 C 
ENDBRANCH  19  25
ENDBRANCH   5  12
BRANCH   4  27
ATOM     27  O   UNL     1     114.140 125.319 137.640  0.00  0.00    +0.000 OA
ATOM     28  C   UNL     1     114.110 124.693 137.103  0.00  0.00    +0.000 C 
ENDBRANCH   4  27
BRANCH   2  29
ATOM     29  O   UNL     1     112.957 125.875 138.647  0.00  0.00    +0.000 OA
BRANCH  29  38
ATOM     30  O   UNL     1     113.539 126.663 139.688  0.00  0.00    +0.000 OA
ATOM     31  O   UNL     1     111.405 126.588 140.938  0.00  0.00    +0.000 OA
ATOM     32  O   UNL     1     112.698 127.399 141.561  0.00  0.00    +0.000 OA
ATOM     33  O   UNL     1     111.534 125.825 139.480  0.00  0.00    +0.000 OA
ATOM     34  C   UNL     1     112.116 126.613 140.521  0.00  0.00    +0.000 C 
ATOM     35  C   UNL     1     112.763 127.018 140.833  0.00  0.00    +0.000 C 
ATOM     36  C   UNL     1     112.181 126.231 139.792  0.00  0.00    +0.000 C 
ATOM     37  C   UNL     1     113.475 127.043 140.416  0.00  0.00    +0.000 C 
ATOM     38  C   UNL     1     112.893 126.256 139.375  0.00  0.00    +0.000 C 
BRANCH  37  40
ATOM     39  O   UNL     1     114.861 127.085 140.761  0.00  0.00    +0.000 OA
ATOM     40  C   UNL     1     114.121 127.449 140.728  0.00  0.00    +0.000 C 
ENDBRANCH  37  40
ENDBRANCH  29  38
ENDBRANCH   2  29
TORSDOF 8
ENDMDL
MODEL 5
REMARK VINA RESULT:      -8.5     11.615     13.359
REMARK  Name = 44260070
REMARK  8 active torsions:
REMARK  status: ('A' for Active; 'I' for Inactive)
REMARK    1  A    between atoms: O_2  and  C_20
REMARK    2  A    between atoms: O_2  and  C_22
REMARK    3  A    between atoms: O_7  and  C_24
REMARK    4  A    between atoms: O_10  and  C_29
REMARK    5  A    between atoms: O_11  and  C_33
REMARK    6  A    between atoms: O_13  and  C_35
REMARK    7  A    between atoms: C_19  and  C_21
REMARK    8  A    between atoms: C_25  and  C_28
REMARK                            x       y       z     vdW  Elec       q    Type
REMARK                         _______ _______ _______ _____ _____    ______ ____
ROOT
ATOM      1  O   UNL     1     107.261 124.502 148.586  0.00  0.00    +0.000 OA
ATOM      2  C   UNL     1     106.752 125.358 146.644  0.00  0.00    +0.000 A 
ATOM      3  C   UNL     1     105.935 125.244 146.633  0.00  0.00    +0.000 A 
ATOM      4  C   UNL     1     107.194 125.111 147.296  0.00  0.00    +0.000 A 
ATOM      5  C   UNL     1     105.560 124.882 147.273  0.00  0.00    +0.000 A 
ATOM      6  C   UNL     1     106.819 124.749 147.935  0.00  0.00    +0.000 A 
ATOM      7  C   UNL     1     106.002 124.635 147.923  0.00  0.00    +0.000 A 
ENDROOT
BRANCH   5  12
ATOM      8  O   UNL     1     104.400 124.152 146.768  0.00  0.00    +0.000 OA
ATOM      9  O   UNL     1     102.880 125.607 148.176  0.00  0.00    +0.000 OA
ATOM     10  O   UNL     1     101.746 124.875 147.667  0.00  0.00    +0.000 OA
ATOM     11  O   UNL     1     102.085 122.740 145.797  0.00  0.00    +0.000 OA
ATOM     12  C   UNL     1     104.743 124.768 147.261  0.00  0.00    +0.000 A 
ATOM     13  C   UNL     1     104.230 125.262 147.739  0.00  0.00    +0.000 A 
ATOM     14  C   UNL     1     103.548 124.041 146.761  0.00  0.00    +0.000 A 
ATOM     15  C   UNL     1     103.055 124.516 147.221  0.00  0.00    +0.000 A 
ATOM     16  C   UNL     1     103.380 125.136 147.720  0.00  0.00    +0.000 A 
ATOM     17  C   UNL     1     103.225 123.448 146.286  0.00  0.00    +0.000 A 
ATOM     18  C   UNL     1     102.239 124.399 147.207  0.00  0.00    +0.000 A 
ATOM     19  C   UNL     1     101.915 123.807 146.732  0.00  0.00    +0.000 A 
ATOM     20  C   UNL     1     102.408 123.332 146.272  0.00  0.00    +0.000 A 
BRANCH  13  21
ATOM     21  O   UNL     1     104.550 125.856 148.215  0.00  0.00    +0.000 OA
ATOM     22  C   UNL     1     104.088 126.504 148.434  0.00  0.00    +0.000 C 
ENDBRANCH  13  21
BRANCH  17  23
ATOM     23  O   UNL     1     103.718 122.974 145.827  0.00  0.00    +0.000 OA
ATOM     24  C   UNL     1     103.602 122.927 145.011  0.00  0.00    +0.000 C 
ENDBRANCH  17  23
BRANCH  19  25
ATOM     25  O   UNL     1     101.098 123.690 146.717  0.00  0.00    +0.000 OA
ATOM     26  C   UNL     1     100.753 123.133 147.217  0.00  0.00    +0.000 C 
ENDBRANCH  19  25
ENDBRANCH   5  12
BRANCH   4  27
ATOM     27  O   UNL     1     108.011 125.225 147.307  0.00  0.00    +0.000 OA
ATOM     28  C   UNL     1     108.450 124.998 147.968  0.00  0.00    +0.000 C 
ENDBRANCH   4  27
BRANCH   2  29
ATOM     29  O   UNL     1     107.127 125.720 146.004  0.00  0.00    +0.000 OA
BRANCH  29  38
ATOM     30  O   UNL     1     106.662 127.066 146.120  0.00  0.00    +0.000 OA
ATOM     31  O   UNL     1     106.085 127.073 143.713  0.00  0.00    +0.000 OA
ATOM     32  O   UNL     1     105.812 128.416 144.630  0.00  0.00    +0.000 OA
ATOM     33  O   UNL     1     106.743 125.725 144.400  0.00  0.00    +0.000 OA
ATOM     34  C   UNL     1     106.277 127.071 144.515  0.00  0.00    +0.000 C 
ATOM     35  C   UNL     1     106.141 127.742 144.974  0.00  0.00    +0.000 C 
ATOM     36  C   UNL     1     106.607 126.396 144.859  0.00  0.00    +0.000 C 
ATOM     37  C   UNL     1     106.333 127.740 145.777  0.00  0.00    +0.000 C 
ATOM     38  C   UNL     1     106.799 126.394 145.661  0.00  0.00    +0.000 C 
BRANCH  37  40
ATOM     39  O   UNL     1     106.832 128.856 146.517  0.00  0.00    +0.000 OA
ATOM     40  C   UNL     1     106.197 128.411 146.235  0.00  0.00    +0.000 C 
ENDBRANCH  37  40
ENDBRANCH  29  38
ENDBRANCH   2  29
TORSDOF 8
ENDMDL
MODEL 6
REMARK VINA RESULT:      -8.5      2.831      4.873
REMARK  Name = 44260070
REMARK  8 active torsions:
REMARK  status: ('A' for Active; 'I' for Inactive)
REMARK    1  A    between atoms: O_2  and  C_20
REMARK    2  A    between atoms: O_2  and  C_22
REMARK    3  A    between atoms: O_7  and  C_24
REMARK    4  A    between atoms: O_10  and  C_29
REMARK    5  A    between atoms: O_11  and  C_33
REMARK    6  A    between atoms: O_13  and  C_35
REMARK    7  A    between atoms: C_19  and  C_21
REMARK    8  A    between atoms: C_25  and  C_28
REMARK                            x       y       z     vdW  Elec       q    Type
REMARK                         _______ _______ _______ _____ _____    ______ ____
ROOT
ATOM      1  O   UNL     1     113.506 129.172 137.337  0.00  0.00    +0.000 OA
ATOM      2  C   UNL     1     112.557 127.297 136.746  0.00  0.00    +0.000 A 
ATOM      3  C   UNL     1     111.976 127.227 137.327  0.00  0.00    +0.000 A 
ATOM      4  C   UNL     1     113.068 127.946 136.749  0.00  0.00    +0.000 A 
ATOM      5  C   UNL     1     111.905 127.805 137.912  0.00  0.00    +0.000 A 
ATOM      6  C   UNL     1     112.997 128.524 137.334  0.00  0.00    +0.000 A 
ATOM      7  C   UNL     1     112.415 128.453 137.915  0.00  0.00    +0.000 A 
ENDROOT
BRANCH   5  12
ATOM      8  O   UNL     1     111.467 127.252 139.191  0.00  0.00    +0.000 OA
ATOM      9  O   UNL     1     109.248 128.446 138.939  0.00  0.00    +0.000 OA
ATOM     10  O   UNL     1     108.832 127.891 140.205  0.00  0.00    +0.000 OA
ATOM     11  O   UNL     1     110.562 126.184 141.709  0.00  0.00    +0.000 OA
ATOM     12  C   UNL     1     111.324 127.734 138.493  0.00  0.00    +0.000 A 
ATOM     13  C   UNL     1     110.572 128.139 138.405  0.00  0.00    +0.000 A 
ATOM     14  C   UNL     1     110.856 127.184 139.791  0.00  0.00    +0.000 A 
ATOM     15  C   UNL     1     110.134 127.574 139.706  0.00  0.00    +0.000 A 
ATOM     16  C   UNL     1     109.972 128.059 139.016  0.00  0.00    +0.000 A 
ATOM     17  C   UNL     1     110.999 126.720 140.459  0.00  0.00    +0.000 A 
ATOM     18  C   UNL     1     109.555 127.501 140.289  0.00  0.00    +0.000 A 
ATOM     19  C   UNL     1     109.697 127.037 140.957  0.00  0.00    +0.000 A 
ATOM     20  C   UNL     1     110.420 126.647 141.041  0.00  0.00    +0.000 A 
BRANCH  13  21
ATOM     21  O   UNL     1     110.426 128.604 137.738  0.00  0.00    +0.000 OA
ATOM     22  C   UNL     1     109.652 128.710 137.472  0.00  0.00    +0.000 C 
ENDBRANCH  13  21
BRANCH  17  23
ATOM     23  O   UNL     1     111.721 126.331 140.542  0.00  0.00    +0.000 OA
ATOM     24  C   UNL     1     112.249 126.566 141.131  0.00  0.00    +0.000 C 
ENDBRANCH  17  23
BRANCH  19  25
ATOM     25  O   UNL     1     109.118 126.963 141.540  0.00  0.00    +0.000 OA
ATOM     26  C   UNL     1     108.541 126.379 141.476  0.00  0.00    +0.000 C 
ENDBRANCH  19  25
ENDBRANCH   5  12
BRANCH   4  27
ATOM     27  O   UNL     1     113.649 128.016 136.168  0.00  0.00    +0.000 OA
ATOM     28  C   UNL     1     113.654 128.673 135.668  0.00  0.00    +0.000 C 
ENDBRANCH   4  27
BRANCH   2  29
ATOM     29  O   UNL     1     112.628 126.719 136.161  0.00  0.00    +0.000 OA
BRANCH  29  38
ATOM     30  O   UNL     1     113.323 125.672 136.841  0.00  0.00    +0.000 OA
ATOM     31  O   UNL     1     111.624 124.045 136.071  0.00  0.00    +0.000 OA
ATOM     32  O   UNL     1     112.884 123.541 137.007  0.00  0.00    +0.000 OA
ATOM     33  O   UNL     1     111.496 125.635 135.648  0.00  0.00    +0.000 OA
ATOM     34  C   UNL     1     112.190 124.587 136.328  0.00  0.00    +0.000 C 
ATOM     35  C   UNL     1     112.821 124.335 136.796  0.00  0.00    +0.000 C 
ATOM     36  C   UNL     1     112.126 125.383 136.116  0.00  0.00    +0.000 C 
ATOM     37  C   UNL     1     113.387 124.878 137.053  0.00  0.00    +0.000 C 
ATOM     38  C   UNL     1     112.693 125.925 136.373  0.00  0.00    +0.000 C 
BRANCH  37  40
ATOM     39  O   UNL     1     114.768 124.949 137.412  0.00  0.00    +0.000 OA
ATOM     40  C   UNL     1     114.017 124.625 137.521  0.00  0.00    +0.000 C 
ENDBRANCH  37  40
ENDBRANCH  29  38
ENDBRANCH   2  29
TORSDOF 8
ENDMDL
MODEL 7
REMARK VINA RESULT:      -8.4      1.972      5.212
REMARK  Name = 44260070
REMARK  8 active torsions:
REMARK  status: ('A' for Active; 'I' for Inactive)
REMARK    1  A    between atoms: O_2  and  C_20
REMARK    2  A    between atoms: O_2  and  C_22
REMARK    3  A    between atoms: O_7  and  C_24
REMARK    4  A    between atoms: O_10  and  C_29
REMARK    5  A    between atoms: O_11  and  C_33
REMARK    6  A    between atoms: O_13  and  C_35
REMARK    7  A    between atoms: C_19  and  C_21
REMARK    8  A    between atoms: C_25  and  C_28
REMARK                            x       y       z     vdW  Elec       q    Type
REMARK                         _______ _______ _______ _____ _____    ______ ____
ROOT
ATOM      1  O   UNL     1     113.516 128.500 139.546  0.00  0.00    +0.000 OA
ATOM      2  C   UNL     1     112.489 126.796 138.649  0.00  0.00    +0.000 A 
ATOM      3  C   UNL     1     112.108 127.160 138.014  0.00  0.00    +0.000 A 
ATOM      4  C   UNL     1     112.958 127.243 139.160  0.00  0.00    +0.000 A 
ATOM      5  C   UNL     1     112.197 127.971 137.890  0.00  0.00    +0.000 A 
ATOM      6  C   UNL     1     113.047 128.054 139.036  0.00  0.00    +0.000 A 
ATOM      7  C   UNL     1     112.666 128.417 138.400  0.00  0.00    +0.000 A 
ENDROOT
BRANCH   5  12
ATOM      8  O   UNL     1     110.989 128.561 137.319  0.00  0.00    +0.000 OA
ATOM      9  O   UNL     1     112.239 129.020 135.165  0.00  0.00    +0.000 OA
ATOM     10  O   UNL     1     111.036 129.599 134.617  0.00  0.00    +0.000 OA
ATOM     11  O   UNL     1     108.629 129.732 136.153  0.00  0.00    +0.000 OA
ATOM     12  C   UNL     1     111.816 128.334 137.254  0.00  0.00    +0.000 A 
ATOM     13  C   UNL     1     112.242 128.489 136.525  0.00  0.00    +0.000 A 
ATOM     14  C   UNL     1     110.600 128.939 136.652  0.00  0.00    +0.000 A 
ATOM     15  C   UNL     1     111.010 129.087 135.951  0.00  0.00    +0.000 A 
ATOM     16  C   UNL     1     111.837 128.868 135.868  0.00  0.00    +0.000 A 
ATOM     17  C   UNL     1     109.807 129.154 136.719  0.00  0.00    +0.000 A 
ATOM     18  C   UNL     1     110.626 129.450 135.318  0.00  0.00    +0.000 A 
ATOM     19  C   UNL     1     109.833 129.666 135.385  0.00  0.00    +0.000 A 
ATOM     20  C   UNL     1     109.423 129.517 136.086  0.00  0.00    +0.000 A 
BRANCH  13  21
ATOM     21  O   UNL     1     113.037 128.275 136.454  0.00  0.00    +0.000 OA
ATOM     22  C   UNL     1     113.427 128.372 135.734  0.00  0.00    +0.000 C 
ENDBRANCH  13  21
BRANCH  17  23
ATOM     23  O   UNL     1     109.398 129.005 137.420  0.00  0.00    +0.000 OA
ATOM     24  C   UNL     1     109.182 129.632 137.911  0.00  0.00    +0.000 C 
ENDBRANCH  17  23
BRANCH  19  25
ATOM     25  O   UNL     1     109.448 130.029 134.752  0.00  0.00    +0.000 OA
ATOM     26  C   UNL     1     109.410 130.851 134.711  0.00  0.00    +0.000 C 
ENDBRANCH  19  25
ENDBRANCH   5  12
BRANCH   4  27
ATOM     27  O   UNL     1     113.338 126.879 139.795  0.00  0.00    +0.000 OA
ATOM     28  C   UNL     1     113.157 127.104 140.568  0.00  0.00    +0.000 C 
ENDBRANCH   4  27
BRANCH   2  29
ATOM     29  O   UNL     1     112.400 125.985 138.773  0.00  0.00    +0.000 OA
BRANCH  29  38
ATOM     30  O   UNL     1     113.323 125.449 137.823  0.00  0.00    +0.000 OA
ATOM     31  O   UNL     1     111.591 123.867 137.033  0.00  0.00    +0.000 OA
ATOM     32  O   UNL     1     113.090 123.859 136.347  0.00  0.00    +0.000 OA
ATOM     33  O   UNL     1     111.245 124.930 138.247  0.00  0.00    +0.000 OA
ATOM     34  C   UNL     1     112.168 124.394 137.297  0.00  0.00    +0.000 C 
ATOM     35  C   UNL     1     112.918 124.390 136.954  0.00  0.00    +0.000 C 
ATOM     36  C   UNL     1     111.995 124.926 137.904  0.00  0.00    +0.000 C 
ATOM     37  C   UNL     1     113.496 124.918 137.217  0.00  0.00    +0.000 C 
ATOM     38  C   UNL     1     112.573 125.454 138.167  0.00  0.00    +0.000 C 
BRANCH  37  40
ATOM     39  O   UNL     1     114.916 125.009 137.344  0.00  0.00    +0.000 OA
ATOM     40  C   UNL     1     114.245 124.913 136.873  0.00  0.00    +0.000 C 
ENDBRANCH  37  40
ENDBRANCH  29  38
ENDBRANCH   2  29
TORSDOF 8
ENDMDL
MODEL 8
REMARK VINA RESULT:      -8.4      2.084      4.898
REMARK  Name = 44260070
REMARK  8 active torsions:
REMARK  status: ('A' for Active; 'I' for Inactive)
REMARK    1  A    between atoms: O_2  and  C_20
REMARK    2  A    between atoms: O_2  and  C_22
REMARK    3  A    between atoms: O_7  and  C_24
REMARK    4  A    between atoms: O_10  and  C_29
REMARK    5  A    between atoms: O_11  and  C_33
REMARK    6  A    between atoms: O_13  and  C_35
REMARK    7  A    between atoms: C_19  and  C_21
REMARK    8  A    between atoms: C_25  and  C_28
REMARK                            x       y       z     vdW  Elec       q    Type
REMARK                         _______ _______ _______ _____ _____    ______ ____
ROOT
ATOM      1  O   UNL     1     114.598 125.137 137.991  0.00  0.00    +0.000 OA
ATOM      2  C   UNL     1     113.054 126.477 137.225  0.00  0.00    +0.000 A 
ATOM      3  C   UNL     1     112.850 126.887 137.911  0.00  0.00    +0.000 A 
ATOM      4  C   UNL     1     113.638 125.894 137.252  0.00  0.00    +0.000 A 
ATOM      5  C   UNL     1     113.227 126.713 138.624  0.00  0.00    +0.000 A 
ATOM      6  C   UNL     1     114.015 125.720 137.964  0.00  0.00    +0.000 A 
ATOM      7  C   UNL     1     113.810 126.130 138.650  0.00  0.00    +0.000 A 
ENDROOT
BRANCH   5  12
ATOM      8  O   UNL     1     113.419 127.860 139.508  0.00  0.00    +0.000 OA
ATOM      9  O   UNL     1     111.617 126.967 141.046  0.00  0.00    +0.000 OA
ATOM     10  O   UNL     1     111.820 128.106 141.908  0.00  0.00    +0.000 OA
ATOM     11  O   UNL     1     113.765 130.104 141.281  0.00  0.00    +0.000 OA
ATOM     12  C   UNL     1     113.022 127.123 139.310  0.00  0.00    +0.000 A 
ATOM     13  C   UNL     1     112.410 126.818 139.830  0.00  0.00    +0.000 A 
ATOM     14  C   UNL     1     113.199 128.280 140.225  0.00  0.00    +0.000 A 
ATOM     15  C   UNL     1     112.611 127.987 140.724  0.00  0.00    +0.000 A 
ATOM     16  C   UNL     1     112.203 127.253 140.542  0.00  0.00    +0.000 A 
ATOM     17  C   UNL     1     113.583 128.986 140.410  0.00  0.00    +0.000 A 
ATOM     18  C   UNL     1     112.408 128.399 141.409  0.00  0.00    +0.000 A 
ATOM     19  C   UNL     1     112.792 129.105 141.594  0.00  0.00    +0.000 A 
ATOM     20  C   UNL     1     113.380 129.399 141.095  0.00  0.00    +0.000 A 
BRANCH  13  21
ATOM     21  O   UNL     1     112.023 126.112 139.647  0.00  0.00    +0.000 OA
ATOM     22  C   UNL     1     111.215 126.035 139.795  0.00  0.00    +0.000 C 
ENDBRANCH  13  21
BRANCH  17  23
ATOM     23  O   UNL     1     114.171 129.278 139.911  0.00  0.00    +0.000 OA
ATOM     24  C   UNL     1     114.070 130.008 139.540  0.00  0.00    +0.000 C 
ENDBRANCH  17  23
BRANCH  19  25
ATOM     25  O   UNL     1     112.590 129.519 142.280  0.00  0.00    +0.000 OA
ATOM     26  C   UNL     1     112.011 130.104 142.251  0.00  0.00    +0.000 C 
ENDBRANCH  19  25
ENDBRANCH   5  12
BRANCH   4  27
ATOM     27  O   UNL     1     113.842 125.484 136.566  0.00  0.00    +0.000 OA
ATOM     28  C   UNL     1     113.747 124.665 136.530  0.00  0.00    +0.000 C 
ENDBRANCH   4  27
BRANCH   2  29
ATOM     29  O   UNL     1     112.677 126.651 136.512  0.00  0.00    +0.000 OA
BRANCH  29  38
ATOM     30  O   UNL     1     113.313 127.888 136.185  0.00  0.00    +0.000 OA
ATOM     31  O   UNL     1     111.115 128.863 135.597  0.00  0.00    +0.000 OA
ATOM     32  O   UNL     1     112.484 129.774 135.466  0.00  0.00    +0.000 OA
ATOM     33  O   UNL     1     111.212 127.301 136.121  0.00  0.00    +0.000 OA
ATOM     34  C   UNL     1     111.848 128.538 135.793  0.00  0.00    +0.000 C 
ATOM     35  C   UNL     1     112.532 128.993 135.728  0.00  0.00    +0.000 C 
ATOM     36  C   UNL     1     111.896 127.756 136.055  0.00  0.00    +0.000 C 
ATOM     37  C   UNL     1     113.265 128.668 135.924  0.00  0.00    +0.000 C 
ATOM     38  C   UNL     1     112.629 127.431 136.251  0.00  0.00    +0.000 C 
BRANCH  37  40
ATOM     39  O   UNL     1     114.621 128.811 135.497  0.00  0.00    +0.000 OA
ATOM     40  C   UNL     1     113.949 129.124 135.858  0.00  0.00    +0.000 C 
ENDBRANCH  37  40
ENDBRANCH  29  38
ENDBRANCH   2  29
TORSDOF 8
ENDMDL
MODEL 9
REMARK VINA RESULT:      -8.4      1.855      3.198
REMARK  Name = 44260070
REMARK  8 active torsions:
REMARK  status: ('A' for Active; 'I' for Inactive)
REMARK    1  A    between atoms: O_2  and  C_20
REMARK    2  A    between atoms: O_2  and  C_22
REMARK    3  A    between atoms: O_7  and  C_24
REMARK    4  A    between atoms: O_10  and  C_29
REMARK    5  A    between atoms: O_11  and  C_33
REMARK    6  A    between atoms: O_13  and  C_35
REMARK    7  A    between atoms: C_19  and  C_21
REMARK    8  A    between atoms: C_25  and  C_28
REMARK                            x       y       z     vdW  Elec       q    Type
REMARK                         _______ _______ _______ _____ _____    ______ ____
ROOT
ATOM      1  O   UNL     1     114.548 129.109 140.668  0.00  0.00    +0.000 OA
ATOM      2  C   UNL     1     112.681 129.820 139.788  0.00  0.00    +0.000 A 
ATOM      3  C   UNL     1     112.380 129.118 139.475  0.00  0.00    +0.000 A 
ATOM      4  C   UNL     1     113.405 129.817 140.186  0.00  0.00    +0.000 A 
ATOM      5  C   UNL     1     112.802 128.414 139.559  0.00  0.00    +0.000 A 
ATOM      6  C   UNL     1     113.826 129.112 140.270  0.00  0.00    +0.000 A 
ATOM      7  C   UNL     1     113.524 128.411 139.957  0.00  0.00    +0.000 A 
ENDROOT
BRANCH   5  12
ATOM      8  O   UNL     1     112.647 127.509 138.423  0.00  0.00    +0.000 OA
ATOM      9  O   UNL     1     111.281 125.940 139.867  0.00  0.00    +0.000 OA
ATOM     10  O   UNL     1     111.138 125.059 138.734  0.00  0.00    +0.000 OA
ATOM     11  O   UNL     1     112.316 125.696 136.209  0.00  0.00    +0.000 OA
ATOM     12  C   UNL     1     112.500 127.713 139.246  0.00  0.00    +0.000 A 
ATOM     13  C   UNL     1     112.037 127.183 139.737  0.00  0.00    +0.000 A 
ATOM     14  C   UNL     1     112.328 126.777 138.105  0.00  0.00    +0.000 A 
ATOM     15  C   UNL     1     111.884 126.268 138.578  0.00  0.00    +0.000 A 
ATOM     16  C   UNL     1     111.726 126.455 139.401  0.00  0.00    +0.000 A 
ATOM     17  C   UNL     1     112.472 126.587 137.315  0.00  0.00    +0.000 A 
ATOM     18  C   UNL     1     111.583 125.568 138.261  0.00  0.00    +0.000 A 
ATOM     19  C   UNL     1     111.727 125.377 137.471  0.00  0.00    +0.000 A 
ATOM     20  C   UNL     1     112.172 125.887 136.998  0.00  0.00    +0.000 A 
BRANCH  13  21
ATOM     21  O   UNL     1     111.891 127.371 140.528  0.00  0.00    +0.000 OA
ATOM     22  C   UNL     1     111.347 126.928 140.963  0.00  0.00    +0.000 C 
ENDBRANCH  13  21
BRANCH  17  23
ATOM     23  O   UNL     1     112.917 127.096 136.843  0.00  0.00    +0.000 OA
ATOM     24  C   UNL     1     112.570 127.458 136.188  0.00  0.00    +0.000 C 
ENDBRANCH  17  23
BRANCH  19  25
ATOM     25  O   UNL     1     111.427 124.677 137.154  0.00  0.00    +0.000 OA
ATOM     26  C   UNL     1     111.898 124.002 137.127  0.00  0.00    +0.000 C 
ENDBRANCH  19  25
ENDBRANCH   5  12
BRANCH   4  27
ATOM     27  O   UNL     1     113.706 130.518 140.499  0.00  0.00    +0.000 OA
ATOM     28  C   UNL     1     113.847 130.580 141.310  0.00  0.00    +0.000 C 
ENDBRANCH   4  27
BRANCH   2  29
ATOM     29  O   UNL     1     112.260 130.524 139.703  0.00  0.00    +0.000 OA
BRANCH  29  38
ATOM     30  O   UNL     1     112.513 130.814 138.327  0.00  0.00    +0.000 OA
ATOM     31  O   UNL     1     110.115 131.328 137.995  0.00  0.00    +0.000 OA
ATOM     32  O   UNL     1     111.167 131.446 136.730  0.00  0.00    +0.000 OA
ATOM     33  O   UNL     1     110.661 130.867 139.482  0.00  0.00    +0.000 OA
ATOM     34  C   UNL     1     110.914 131.157 138.106  0.00  0.00    +0.000 C 
ATOM     35  C   UNL     1     111.440 131.215 137.473  0.00  0.00    +0.000 C 
ATOM     36  C   UNL     1     111.188 130.926 138.850  0.00  0.00    +0.000 C 
ATOM     37  C   UNL     1     112.240 131.044 137.584  0.00  0.00    +0.000 C 
ATOM     38  C   UNL     1     111.987 130.754 138.960  0.00  0.00    +0.000 C 
BRANCH  37  40
ATOM     39  O   UNL     1     113.525 131.402 137.072  0.00  0.00    +0.000 OA
ATOM     40  C   UNL     1     112.765 131.103 136.952  0.00  0.00    +0.000 C 
ENDBRANCH  37  40
ENDBRANCH  29  38
ENDBRANCH   2  29
TORSDOF 8
ENDMDL
MODEL 10
REMARK VINA RESULT:      -8.4      2.251      4.541
REMARK  Name = 44260070
REMARK  8 active torsions:
REMARK  status: ('A' for Active; 'I' for Inactive)
REMARK    1  A    between atoms: O_2  and  C_20
REMARK    2  A    between atoms: O_2  and  C_22
REMARK    3  A    between atoms: O_7  and  C_24
REMARK    4  A    between atoms: O_10  and  C_29
REMARK    5  A    between atoms: O_11  and  C_33
REMARK    6  A    between atoms: O_13  and  C_35
REMARK    7  A    between atoms: C_19  and  C_21
REMARK    8  A    between atoms: C_25  and  C_28
REMARK                            x       y       z     vdW  Elec       q    Type
REMARK                         _______ _______ _______ _____ _____    ______ ____
ROOT
ATOM      1  O   UNL     1     112.734 124.885 136.091  0.00  0.00    +0.000 OA
ATOM      2  C   UNL     1     112.654 126.300 137.751  0.00  0.00    +0.000 A 
ATOM      3  C   UNL     1     112.223 126.915 137.410  0.00  0.00    +0.000 A 
ATOM      4  C   UNL     1     112.824 125.623 137.311  0.00  0.00    +0.000 A 
ATOM      5  C   UNL     1     111.962 126.854 136.630  0.00  0.00    +0.000 A 
ATOM      6  C   UNL     1     112.564 125.561 136.530  0.00  0.00    +0.000 A 
ATOM      7  C   UNL     1     112.133 126.177 136.190  0.00  0.00    +0.000 A 
ENDROOT
BRANCH   5  12
ATOM      8  O   UNL     1     110.674 127.490 136.364  0.00  0.00    +0.000 OA
ATOM      9  O   UNL     1     111.855 129.336 135.096  0.00  0.00    +0.000 OA
ATOM     10  O   UNL     1     110.574 129.950 134.843  0.00  0.00    +0.000 OA
ATOM     11  O   UNL     1     108.156 128.778 135.817  0.00  0.00    +0.000 OA
ATOM     12  C   UNL     1     111.531 127.470 136.290  0.00  0.00    +0.000 A 
ATOM     13  C   UNL     1     111.933 128.094 135.861  0.00  0.00    +0.000 A 
ATOM     14  C   UNL     1     110.233 128.135 136.007  0.00  0.00    +0.000 A 
ATOM     15  C   UNL     1     110.621 128.735 135.594  0.00  0.00    +0.000 A 
ATOM     16  C   UNL     1     111.476 128.732 135.510  0.00  0.00    +0.000 A 
ATOM     17  C   UNL     1     109.412 128.149 136.081  0.00  0.00    +0.000 A 
ATOM     18  C   UNL     1     110.186 129.350 135.256  0.00  0.00    +0.000 A 
ATOM     19  C   UNL     1     109.365 129.364 135.330  0.00  0.00    +0.000 A 
ATOM     20  C   UNL     1     108.977 128.763 135.743  0.00  0.00    +0.000 A 
BRANCH  13  21
ATOM     21  O   UNL     1     112.756 128.084 135.784  0.00  0.00    +0.000 OA
ATOM     22  C   UNL     1     113.165 128.784 135.632  0.00  0.00    +0.000 C 
ENDBRANCH  13  21
BRANCH  17  23
ATOM     23  O   UNL     1     109.025 127.549 136.494  0.00  0.00    +0.000 OA
ATOM     24  C   UNL     1     108.513 127.039 136.096  0.00  0.00    +0.000 C 
ENDBRANCH  17  23
BRANCH  19  25
ATOM     25  O   UNL     1     108.930 129.978 134.992  0.00  0.00    +0.000 OA
ATOM     26  C   UNL     1     108.758 130.653 135.433  0.00  0.00    +0.000 C 
ENDBRANCH  19  25
ENDBRANCH   5  12
BRANCH   4  27
ATOM     27  O   UNL     1     113.256 125.008 137.652  0.00  0.00    +0.000 OA
ATOM     28  C   UNL     1     113.979 124.781 137.325  0.00  0.00    +0.000 C 
ENDBRANCH   4  27
BRANCH   2  29
ATOM     29  O   UNL     1     112.915 126.361 138.531  0.00  0.00    +0.000 OA
BRANCH  29  38
ATOM     30  O   UNL     1     111.659 126.244 139.203  0.00  0.00    +0.000 OA
ATOM     31  O   UNL     1     112.305 128.081 140.731  0.00  0.00    +0.000 OA
ATOM     32  O   UNL     1     110.834 127.352 140.893  0.00  0.00    +0.000 OA
ATOM     33  O   UNL     1     113.345 127.586 139.550  0.00  0.00    +0.000 OA
ATOM     34  C   UNL     1     112.089 127.469 140.222  0.00  0.00    +0.000 C 
ATOM     35  C   UNL     1     111.354 127.104 140.302  0.00  0.00    +0.000 C 
ATOM     36  C   UNL     1     112.610 127.221 139.631  0.00  0.00    +0.000 C 
ATOM     37  C   UNL     1     111.139 126.491 139.793  0.00  0.00    +0.000 C 
ATOM     38  C   UNL     1     112.395 126.608 139.121  0.00  0.00    +0.000 C 
BRANCH  37  40
ATOM     39  O   UNL     1     110.328 125.315 139.748  0.00  0.00    +0.000 OA
ATOM     40  C   UNL     1     110.404 126.127 139.874  0.00  0.00    +0.000 C 
ENDBRANCH  37  40
ENDBRANCH  29  38
ENDBRANCH   2  29
TORSDOF 8
ENDMDL
