MODEL 1
REMARK VINA RESULT:      -8.8      0.000      0.000
REMARK  Name = 
REMARK  4 active torsions:
REMARK  status: ('A' for Active; 'I' for Inactive)
REMARK    1  A    between atoms: O_2  and  C_15
REMARK    2  A    between atoms: O_2  and  C_17
REMARK    3  A    between atoms: C_14  and  C_16
REMARK    4  A    between atoms: C_19  and  C_24
REMARK                            x       y       z     vdW  Elec       q    Type
REMARK                         _______ _______ _______ _____ _____    ______ ____
ROOT
ATOM      1  O   UNL     1     111.837 130.766 145.152  0.00  0.00    +0.000 OA
ATOM      2  O   UNL     1     111.488 132.597 142.825  0.00  0.00    +0.000 OA
ATOM      3  O   UNL     1     111.365 127.984 143.065  0.00  0.00    +0.000 OA
ATOM      4  C   UNL     1     111.364 130.629 142.523  0.00  0.00    +0.000 A 
ATOM      5  C   UNL     1     111.546 131.002 143.472  0.00  0.00    +0.000 A 
ATOM      6  C   UNL     1     111.895 131.750 145.280  0.00  0.00    +0.000 C 
ATOM      7  C   UNL     1     111.779 132.359 144.505  0.00  0.00    +0.000 C 
ATOM      8  C   UNL     1     111.662 130.392 144.247  0.00  0.00    +0.000 A 
ATOM      9  C   UNL     1     111.605 131.986 143.601  0.00  0.00    +0.000 C 
ATOM     10  C   UNL     1     111.302 129.604 142.382  0.00  0.00    +0.000 A 
ATOM     11  C   UNL     1     111.604 129.365 144.129  0.00  0.00    +0.000 A 
ATOM     12  C   UNL     1     111.423 128.968 143.190  0.00  0.00    +0.000 A 
ENDROOT
BRANCH   6  14
ATOM     13  O   UNL     1     112.593 133.242 148.898  0.00  0.00    +0.000 OA
ATOM     14  C   UNL     1     112.069 132.123 146.185  0.00  0.00    +0.000 A 
ATOM     15  C   UNL     1     112.900 131.878 146.672  0.00  0.00    +0.000 A 
ATOM     16  C   UNL     1     111.412 132.742 146.602  0.00  0.00    +0.000 A 
ATOM     17  C   UNL     1     113.074 132.251 147.576  0.00  0.00    +0.000 A 
ATOM     18  C   UNL     1     111.587 133.115 147.507  0.00  0.00    +0.000 A 
ATOM     19  C   UNL     1     112.418 132.869 147.994  0.00  0.00    +0.000 A 
ENDBRANCH   6  14
BRANCH   4  20
ATOM     20  O   UNL     1     111.249 131.248 141.754  0.00  0.00    +0.000 OA
BRANCH  20  29
ATOM     21  O   UNL     1     109.594 130.985 141.358  0.00  0.00    +0.000 OA
ATOM     22  O   UNL     1     110.325 130.726 138.480  0.00  0.00    +0.000 OA
ATOM     23  O   UNL     1     108.428 130.550 139.043  0.00  0.00    +0.000 OA
ATOM     24  O   UNL     1     111.736 131.076 139.836  0.00  0.00    +0.000 OA
ATOM     25  C   UNL     1     110.082 130.813 139.439  0.00  0.00    +0.000 C 
ATOM     26  C   UNL     1     109.133 130.724 139.721  0.00  0.00    +0.000 C 
ATOM     27  C   UNL     1     110.787 130.987 140.117  0.00  0.00    +0.000 C 
ATOM     28  C   UNL     1     108.890 130.811 140.680  0.00  0.00    +0.000 C 
ATOM     29  C   UNL     1     110.544 131.073 141.076  0.00  0.00    +0.000 C 
BRANCH  28  31
ATOM     30  O   UNL     1     107.593 131.268 141.717  0.00  0.00    +0.000 OA
ATOM     31  C   UNL     1     107.940 130.722 140.962  0.00  0.00    +0.000 C 
ENDBRANCH  28  31
ENDBRANCH  20  29
ENDBRANCH   4  20
TORSDOF 4
ENDMDL
MODEL 2
REMARK VINA RESULT:      -8.7      5.975      8.246
REMARK  Name = 
REMARK  4 active torsions:
REMARK  status: ('A' for Active; 'I' for Inactive)
REMARK    1  A    between atoms: O_2  and  C_15
REMARK    2  A    between atoms: O_2  and  C_17
REMARK    3  A    between atoms: C_14  and  C_16
REMARK    4  A    between atoms: C_19  and  C_24
REMARK                            x       y       z     vdW  Elec       q    Type
REMARK                         _______ _______ _______ _____ _____    ______ ____
ROOT
ATOM      1  O   UNL     1     104.039 129.417 143.106  0.00  0.00    +0.000 OA
ATOM      2  O   UNL     1     104.471 127.746 140.675  0.00  0.00    +0.000 OA
ATOM      3  O   UNL     1     106.353 127.468 144.886  0.00  0.00    +0.000 OA
ATOM      4  C   UNL     1     105.487 127.305 142.334  0.00  0.00    +0.000 A 
ATOM      5  C   UNL     1     104.823 128.101 142.323  0.00  0.00    +0.000 A 
ATOM      6  C   UNL     1     103.543 129.620 142.269  0.00  0.00    +0.000 C 
ATOM      7  C   UNL     1     103.687 129.063 141.460  0.00  0.00    +0.000 C 
ATOM      8  C   UNL     1     104.680 128.657 143.133  0.00  0.00    +0.000 A 
ATOM      9  C   UNL     1     104.327 128.304 141.486  0.00  0.00    +0.000 C 
ATOM     10  C   UNL     1     106.008 127.088 143.203  0.00  0.00    +0.000 A 
ATOM     11  C   UNL     1     105.189 128.458 144.012  0.00  0.00    +0.000 A 
ATOM     12  C   UNL     1     105.858 127.668 144.047  0.00  0.00    +0.000 A 
ENDROOT
BRANCH   6  14
ATOM     13  O   UNL     1     100.982 132.659 142.165  0.00  0.00    +0.000 OA
ATOM     14  C   UNL     1     102.903 130.379 142.243  0.00  0.00    +0.000 A 
ATOM     15  C   UNL     1     102.360 130.544 141.428  0.00  0.00    +0.000 A 
ATOM     16  C   UNL     1     102.806 130.974 143.034  0.00  0.00    +0.000 A 
ATOM     17  C   UNL     1     101.720 131.304 141.402  0.00  0.00    +0.000 A 
ATOM     18  C   UNL     1     102.165 131.735 143.007  0.00  0.00    +0.000 A 
ATOM     19  C   UNL     1     101.622 131.899 142.191  0.00  0.00    +0.000 A 
ENDBRANCH   6  14
BRANCH   4  20
ATOM     20  O   UNL     1     105.623 126.755 141.518  0.00  0.00    +0.000 OA
BRANCH  20  29
ATOM     21  O   UNL     1     107.341 126.732 141.398  0.00  0.00    +0.000 OA
ATOM     22  O   UNL     1     107.275 123.776 141.018  0.00  0.00    +0.000 OA
ATOM     23  O   UNL     1     109.014 124.739 141.024  0.00  0.00    +0.000 OA
ATOM     24  O   UNL     1     105.579 124.785 141.265  0.00  0.00    +0.000 OA
ATOM     25  C   UNL     1     107.297 124.762 141.144  0.00  0.00    +0.000 C 
ATOM     26  C   UNL     1     108.166 125.243 141.148  0.00  0.00    +0.000 C 
ATOM     27  C   UNL     1     106.449 125.266 141.268  0.00  0.00    +0.000 C 
ATOM     28  C   UNL     1     108.188 126.228 141.274  0.00  0.00    +0.000 C 
ATOM     29  C   UNL     1     106.471 126.251 141.394  0.00  0.00    +0.000 C 
BRANCH  28  31
ATOM     30  O   UNL     1     109.270 127.348 142.009  0.00  0.00    +0.000 OA
ATOM     31  C   UNL     1     109.058 126.709 141.277  0.00  0.00    +0.000 C 
ENDBRANCH  28  31
ENDBRANCH  20  29
ENDBRANCH   4  20
TORSDOF 4
ENDMDL
MODEL 3
REMARK VINA RESULT:      -8.7      1.915      3.598
REMARK  Name = 
REMARK  4 active torsions:
REMARK  status: ('A' for Active; 'I' for Inactive)
REMARK    1  A    between atoms: O_2  and  C_15
REMARK    2  A    between atoms: O_2  and  C_17
REMARK    3  A    between atoms: C_14  and  C_16
REMARK    4  A    between atoms: C_19  and  C_24
REMARK                            x       y       z     vdW  Elec       q    Type
REMARK                         _______ _______ _______ _____ _____    ______ ____
ROOT
ATOM      1  O   UNL     1     111.644 131.679 144.251  0.00  0.00    +0.000 OA
ATOM      2  O   UNL     1     111.607 128.714 144.556  0.00  0.00    +0.000 OA
ATOM      3  O   UNL     1     111.382 131.348 140.767  0.00  0.00    +0.000 OA
ATOM      4  C   UNL     1     111.488 129.490 142.722  0.00  0.00    +0.000 A 
ATOM      5  C   UNL     1     111.561 130.110 143.550  0.00  0.00    +0.000 A 
ATOM      6  C   UNL     1     111.702 131.272 145.156  0.00  0.00    +0.000 C 
ATOM      7  C   UNL     1     111.690 130.284 145.257  0.00  0.00    +0.000 C 
ATOM      8  C   UNL     1     111.574 131.098 143.447  0.00  0.00    +0.000 A 
ATOM      9  C   UNL     1     111.619 129.703 144.454  0.00  0.00    +0.000 C 
ATOM     10  C   UNL     1     111.427 129.908 141.776  0.00  0.00    +0.000 A 
ATOM     11  C   UNL     1     111.514 131.537 142.512  0.00  0.00    +0.000 A 
ATOM     12  C   UNL     1     111.440 130.938 141.670  0.00  0.00    +0.000 A 
ENDROOT
BRANCH   6  14
ATOM     13  O   UNL     1     111.984 133.598 148.367  0.00  0.00    +0.000 OA
ATOM     14  C   UNL     1     111.773 131.853 145.959  0.00  0.00    +0.000 A 
ATOM     15  C   UNL     1     111.027 132.466 146.196  0.00  0.00    +0.000 A 
ATOM     16  C   UNL     1     112.589 131.822 146.524  0.00  0.00    +0.000 A 
ATOM     17  C   UNL     1     111.098 133.047 146.998  0.00  0.00    +0.000 A 
ATOM     18  C   UNL     1     112.659 132.404 147.328  0.00  0.00    +0.000 A 
ATOM     19  C   UNL     1     111.913 133.016 147.564  0.00  0.00    +0.000 A 
ENDBRANCH   6  14
BRANCH   4  20
ATOM     20  O   UNL     1     111.476 128.503 142.835  0.00  0.00    +0.000 OA
BRANCH  20  29
ATOM     21  O   UNL     1     112.666 127.977 141.707  0.00  0.00    +0.000 OA
ATOM     22  O   UNL     1     110.727 126.017 140.575  0.00  0.00    +0.000 OA
ATOM     23  O   UNL     1     112.563 126.145 139.825  0.00  0.00    +0.000 OA
ATOM     24  O   UNL     1     110.184 127.196 142.081  0.00  0.00    +0.000 OA
ATOM     25  C   UNL     1     111.373 126.670 140.953  0.00  0.00    +0.000 C 
ATOM     26  C   UNL     1     112.291 126.735 140.578  0.00  0.00    +0.000 C 
ATOM     27  C   UNL     1     111.102 127.260 141.706  0.00  0.00    +0.000 C 
ATOM     28  C   UNL     1     112.937 127.388 140.955  0.00  0.00    +0.000 C 
ATOM     29  C   UNL     1     111.748 127.913 142.082  0.00  0.00    +0.000 C 
BRANCH  28  31
ATOM     30  O   UNL     1     114.478 128.155 140.905  0.00  0.00    +0.000 OA
ATOM     31  C   UNL     1     113.855 127.452 140.579  0.00  0.00    +0.000 C 
ENDBRANCH  28  31
ENDBRANCH  20  29
ENDBRANCH   4  20
TORSDOF 4
ENDMDL
MODEL 4
REMARK VINA RESULT:      -8.5      5.584      7.184
REMARK  Name = 
REMARK  4 active torsions:
REMARK  status: ('A' for Active; 'I' for Inactive)
REMARK    1  A    between atoms: O_2  and  C_15
REMARK    2  A    between atoms: O_2  and  C_17
REMARK    3  A    between atoms: C_14  and  C_16
REMARK    4  A    between atoms: C_19  and  C_24
REMARK                            x       y       z     vdW  Elec       q    Type
REMARK                         _______ _______ _______ _____ _____    ______ ____
ROOT
ATOM      1  O   UNL     1     107.196 127.137 146.269  0.00  0.00    +0.000 OA
ATOM      2  O   UNL     1     105.251 126.165 144.230  0.00  0.00    +0.000 OA
ATOM      3  O   UNL     1     107.743 130.052 144.393  0.00  0.00    +0.000 OA
ATOM      4  C   UNL     1     106.141 127.927 143.942  0.00  0.00    +0.000 A 
ATOM      5  C   UNL     1     106.354 127.364 144.786  0.00  0.00    +0.000 A 
ATOM      6  C   UNL     1     106.741 126.262 146.394  0.00  0.00    +0.000 C 
ATOM      7  C   UNL     1     106.093 125.938 145.714  0.00  0.00    +0.000 C 
ATOM      8  C   UNL     1     107.002 127.688 145.465  0.00  0.00    +0.000 A 
ATOM      9  C   UNL     1     105.899 126.489 144.910  0.00  0.00    +0.000 C 
ATOM     10  C   UNL     1     106.612 128.840 143.806  0.00  0.00    +0.000 A 
ATOM     11  C   UNL     1     107.484 128.597 145.350  0.00  0.00    +0.000 A 
ATOM     12  C   UNL     1     107.287 129.177 144.514  0.00  0.00    +0.000 A 
ENDROOT
BRANCH   6  14
ATOM     13  O   UNL     1     107.517 124.059 149.611  0.00  0.00    +0.000 OA
ATOM     14  C   UNL     1     106.935 125.711 147.198  0.00  0.00    +0.000 A 
ATOM     15  C   UNL     1     106.203 125.472 147.825  0.00  0.00    +0.000 A 
ATOM     16  C   UNL     1     107.863 125.400 147.375  0.00  0.00    +0.000 A 
ATOM     17  C   UNL     1     106.397 124.921 148.629  0.00  0.00    +0.000 A 
ATOM     18  C   UNL     1     108.057 124.849 148.180  0.00  0.00    +0.000 A 
ATOM     19  C   UNL     1     107.323 124.610 148.807  0.00  0.00    +0.000 A 
ENDBRANCH   6  14
BRANCH   4  20
ATOM     20  O   UNL     1     105.491 127.593 143.269  0.00  0.00    +0.000 OA
BRANCH  20  29
ATOM     21  O   UNL     1     104.456 128.967 143.338  0.00  0.00    +0.000 OA
ATOM     22  O   UNL     1     103.840 128.650 140.439  0.00  0.00    +0.000 OA
ATOM     23  O   UNL     1     103.010 130.129 141.475  0.00  0.00    +0.000 OA
ATOM     24  O   UNL     1     105.080 127.382 141.336  0.00  0.00    +0.000 OA
ATOM     25  C   UNL     1     104.045 128.756 141.406  0.00  0.00    +0.000 C 
ATOM     26  C   UNL     1     103.631 129.495 141.924  0.00  0.00    +0.000 C 
ATOM     27  C   UNL     1     104.665 128.122 141.854  0.00  0.00    +0.000 C 
ATOM     28  C   UNL     1     103.836 129.601 142.890  0.00  0.00    +0.000 C 
ATOM     29  C   UNL     1     104.871 128.227 142.820  0.00  0.00    +0.000 C 
BRANCH  28  31
ATOM     30  O   UNL     1     103.603 130.429 144.381  0.00  0.00    +0.000 OA
ATOM     31  C   UNL     1     103.421 130.341 143.408  0.00  0.00    +0.000 C 
ENDBRANCH  28  31
ENDBRANCH  20  29
ENDBRANCH   4  20
TORSDOF 4
ENDMDL
MODEL 5
REMARK VINA RESULT:      -8.5      2.545      6.226
REMARK  Name = 
REMARK  4 active torsions:
REMARK  status: ('A' for Active; 'I' for Inactive)
REMARK    1  A    between atoms: O_2  and  C_15
REMARK    2  A    between atoms: O_2  and  C_17
REMARK    3  A    between atoms: C_14  and  C_16
REMARK    4  A    between atoms: C_19  and  C_24
REMARK                            x       y       z     vdW  Elec       q    Type
REMARK                         _______ _______ _______ _____ _____    ______ ____
ROOT
ATOM      1  O   UNL     1     112.192 128.385 141.800  0.00  0.00    +0.000 OA
ATOM      2  O   UNL     1     113.459 131.083 141.858  0.00  0.00    +0.000 OA
ATOM      3  O   UNL     1     110.044 129.311 144.417  0.00  0.00    +0.000 OA
ATOM      4  C   UNL     1     111.986 130.688 143.144  0.00  0.00    +0.000 A 
ATOM      5  C   UNL     1     112.301 129.966 142.471  0.00  0.00    +0.000 A 
ATOM      6  C   UNL     1     112.927 128.602 141.168  0.00  0.00    +0.000 C 
ATOM      7  C   UNL     1     113.349 129.501 141.187  0.00  0.00    +0.000 C 
ATOM      8  C   UNL     1     111.878 129.067 142.452  0.00  0.00    +0.000 A 
ATOM      9  C   UNL     1     113.037 130.183 141.839  0.00  0.00    +0.000 C 
ATOM     10  C   UNL     1     111.220 130.468 143.806  0.00  0.00    +0.000 A 
ATOM     11  C   UNL     1     111.111 128.826 143.104  0.00  0.00    +0.000 A 
ATOM     12  C   UNL     1     110.780 129.532 143.786  0.00  0.00    +0.000 A 
ENDROOT
BRANCH   6  14
ATOM     13  O   UNL     1     114.177 125.873 138.562  0.00  0.00    +0.000 OA
ATOM     14  C   UNL     1     113.240 127.920 140.516  0.00  0.00    +0.000 A 
ATOM     15  C   UNL     1     112.767 127.807 139.650  0.00  0.00    +0.000 A 
ATOM     16  C   UNL     1     114.026 127.351 140.732  0.00  0.00    +0.000 A 
ATOM     17  C   UNL     1     113.079 127.124 138.999  0.00  0.00    +0.000 A 
ATOM     18  C   UNL     1     114.338 126.668 140.080  0.00  0.00    +0.000 A 
ATOM     19  C   UNL     1     113.865 126.555 139.213  0.00  0.00    +0.000 A 
ENDBRANCH   6  14
BRANCH   4  20
ATOM     20  O   UNL     1     112.416 131.584 143.155  0.00  0.00    +0.000 OA
BRANCH  20  29
ATOM     21  O   UNL     1     112.478 131.921 144.842  0.00  0.00    +0.000 OA
ATOM     22  O   UNL     1     111.325 134.624 144.345  0.00  0.00    +0.000 OA
ATOM     23  O   UNL     1     111.772 134.060 146.198  0.00  0.00    +0.000 OA
ATOM     24  O   UNL     1     111.647 133.386 142.824  0.00  0.00    +0.000 OA
ATOM     25  C   UNL     1     111.710 133.723 144.511  0.00  0.00    +0.000 C 
ATOM     26  C   UNL     1     111.933 133.441 145.437  0.00  0.00    +0.000 C 
ATOM     27  C   UNL     1     111.871 133.104 143.750  0.00  0.00    +0.000 C 
ATOM     28  C   UNL     1     112.317 132.540 145.602  0.00  0.00    +0.000 C 
ATOM     29  C   UNL     1     112.255 132.203 143.916  0.00  0.00    +0.000 C 
BRANCH  28  31
ATOM     30  O   UNL     1     112.818 131.321 146.710  0.00  0.00    +0.000 OA
ATOM     31  C   UNL     1     112.541 132.258 146.529  0.00  0.00    +0.000 C 
ENDBRANCH  28  31
ENDBRANCH  20  29
ENDBRANCH   4  20
TORSDOF 4
ENDMDL
MODEL 6
REMARK VINA RESULT:      -8.4      0.881      2.046
REMARK  Name = 
REMARK  4 active torsions:
REMARK  status: ('A' for Active; 'I' for Inactive)
REMARK    1  A    between atoms: O_2  and  C_15
REMARK    2  A    between atoms: O_2  and  C_17
REMARK    3  A    between atoms: C_14  and  C_16
REMARK    4  A    between atoms: C_19  and  C_24
REMARK                            x       y       z     vdW  Elec       q    Type
REMARK                         _______ _______ _______ _____ _____    ______ ____
ROOT
ATOM      1  O   UNL     1     111.786 130.795 145.147  0.00  0.00    +0.000 OA
ATOM      2  O   UNL     1     111.545 132.670 142.842  0.00  0.00    +0.000 OA
ATOM      3  O   UNL     1     111.191 128.067 143.021  0.00  0.00    +0.000 OA
ATOM      4  C   UNL     1     111.325 130.715 142.514  0.00  0.00    +0.000 A 
ATOM      5  C   UNL     1     111.519 131.067 143.469  0.00  0.00    +0.000 A 
ATOM      6  C   UNL     1     111.893 131.774 145.289  0.00  0.00    +0.000 C 
ATOM      7  C   UNL     1     111.812 132.398 144.520  0.00  0.00    +0.000 C 
ATOM      8  C   UNL     1     111.599 130.442 144.236  0.00  0.00    +0.000 A 
ATOM      9  C   UNL     1     111.625 132.045 143.610  0.00  0.00    +0.000 C 
ATOM     10  C   UNL     1     111.213 129.697 142.359  0.00  0.00    +0.000 A 
ATOM     11  C   UNL     1     111.491 129.421 144.105  0.00  0.00    +0.000 A 
ATOM     12  C   UNL     1     111.296 129.046 143.159  0.00  0.00    +0.000 A 
ENDROOT
BRANCH   6  14
ATOM     13  O   UNL     1     112.639 133.184 148.929  0.00  0.00    +0.000 OA
ATOM     14  C   UNL     1     112.079 132.126 146.199  0.00  0.00    +0.000 A 
ATOM     15  C   UNL     1     111.431 132.737 146.638  0.00  0.00    +0.000 A 
ATOM     16  C   UNL     1     112.915 131.867 146.670  0.00  0.00    +0.000 A 
ATOM     17  C   UNL     1     111.618 133.090 147.548  0.00  0.00    +0.000 A 
ATOM     18  C   UNL     1     113.102 132.220 147.581  0.00  0.00    +0.000 A 
ATOM     19  C   UNL     1     112.453 132.831 148.019  0.00  0.00    +0.000 A 
ENDBRANCH   6  14
BRANCH   4  20
ATOM     20  O   UNL     1     111.246 131.349 141.753  0.00  0.00    +0.000 OA
BRANCH  20  29
ATOM     21  O   UNL     1     112.156 130.601 140.496  0.00  0.00    +0.000 OA
ATOM     22  O   UNL     1     109.818 130.838 138.662  0.00  0.00    +0.000 OA
ATOM     23  O   UNL     1     111.507 130.012 138.018  0.00  0.00    +0.000 OA
ATOM     24  O   UNL     1     109.687 131.507 140.530  0.00  0.00    +0.000 OA
ATOM     25  C   UNL     1     110.597 130.759 139.274  0.00  0.00    +0.000 C 
ATOM     26  C   UNL     1     111.442 130.346 138.952  0.00  0.00    +0.000 C 
ATOM     27  C   UNL     1     110.532 131.093 140.208  0.00  0.00    +0.000 C 
ATOM     28  C   UNL     1     112.220 130.267 139.563  0.00  0.00    +0.000 C 
ATOM     29  C   UNL     1     111.311 131.015 140.819  0.00  0.00    +0.000 C 
BRANCH  28  31
ATOM     30  O   UNL     1     113.823 129.717 139.869  0.00  0.00    +0.000 OA
ATOM     31  C   UNL     1     113.065 129.854 139.241  0.00  0.00    +0.000 C 
ENDBRANCH  28  31
ENDBRANCH  20  29
ENDBRANCH   4  20
TORSDOF 4
ENDMDL
MODEL 7
REMARK VINA RESULT:      -8.4      6.824      9.360
REMARK  Name = 
REMARK  4 active torsions:
REMARK  status: ('A' for Active; 'I' for Inactive)
REMARK    1  A    between atoms: O_2  and  C_15
REMARK    2  A    between atoms: O_2  and  C_17
REMARK    3  A    between atoms: C_14  and  C_16
REMARK    4  A    between atoms: C_19  and  C_24
REMARK                            x       y       z     vdW  Elec       q    Type
REMARK                         _______ _______ _______ _____ _____    ______ ____
ROOT
ATOM      1  O   UNL     1     104.907 128.733 144.649  0.00  0.00    +0.000 OA
ATOM      2  O   UNL     1     106.651 126.316 144.708  0.00  0.00    +0.000 OA
ATOM      3  O   UNL     1     105.410 129.210 148.089  0.00  0.00    +0.000 OA
ATOM      4  C   UNL     1     106.348 127.321 146.404  0.00  0.00    +0.000 A 
ATOM      5  C   UNL     1     105.906 127.637 145.522  0.00  0.00    +0.000 A 
ATOM      6  C   UNL     1     105.071 128.218 143.815  0.00  0.00    +0.000 C 
ATOM      7  C   UNL     1     105.652 127.413 143.835  0.00  0.00    +0.000 C 
ATOM      8  C   UNL     1     105.325 128.442 145.503  0.00  0.00    +0.000 A 
ATOM      9  C   UNL     1     106.069 127.122 144.688  0.00  0.00    +0.000 C 
ATOM     10  C   UNL     1     106.182 127.853 147.278  0.00  0.00    +0.000 A 
ATOM     11  C   UNL     1     105.145 128.989 146.363  0.00  0.00    +0.000 A 
ATOM     12  C   UNL     1     105.576 128.693 147.257  0.00  0.00    +0.000 A 
ENDROOT
BRANCH   6  14
ATOM     13  O   UNL     1     103.400 129.382 140.401  0.00  0.00    +0.000 OA
ATOM     14  C   UNL     1     104.653 128.509 142.961  0.00  0.00    +0.000 A 
ATOM     15  C   UNL     1     104.146 129.362 142.921  0.00  0.00    +0.000 A 
ATOM     16  C   UNL     1     104.743 127.945 142.147  0.00  0.00    +0.000 A 
ATOM     17  C   UNL     1     103.729 129.653 142.068  0.00  0.00    +0.000 A 
ATOM     18  C   UNL     1     104.325 128.237 141.293  0.00  0.00    +0.000 A 
ATOM     19  C   UNL     1     103.818 129.091 141.254  0.00  0.00    +0.000 A 
ENDBRANCH   6  14
BRANCH   4  20
ATOM     20  O   UNL     1     106.928 126.514 146.413  0.00  0.00    +0.000 OA
BRANCH  20  29
ATOM     21  O   UNL     1     105.952 125.534 147.439  0.00  0.00    +0.000 OA
ATOM     22  O   UNL     1     108.403 124.508 148.790  0.00  0.00    +0.000 OA
ATOM     23  O   UNL     1     106.611 123.871 149.365  0.00  0.00    +0.000 OA
ATOM     24  O   UNL     1     108.561 125.830 147.314  0.00  0.00    +0.000 OA
ATOM     25  C   UNL     1     107.586 124.850 148.340  0.00  0.00    +0.000 C 
ATOM     26  C   UNL     1     106.690 124.532 148.627  0.00  0.00    +0.000 C 
ATOM     27  C   UNL     1     107.665 125.511 147.601  0.00  0.00    +0.000 C 
ATOM     28  C   UNL     1     105.873 124.873 148.176  0.00  0.00    +0.000 C 
ATOM     29  C   UNL     1     106.848 125.853 147.151  0.00  0.00    +0.000 C 
BRANCH  28  31
ATOM     30  O   UNL     1     104.162 124.862 147.985  0.00  0.00    +0.000 OA
ATOM     31  C   UNL     1     104.977 124.554 148.464  0.00  0.00    +0.000 C 
ENDBRANCH  28  31
ENDBRANCH  20  29
ENDBRANCH   4  20
TORSDOF 4
ENDMDL
MODEL 8
REMARK VINA RESULT:      -8.3      6.882      8.457
REMARK  Name = 
REMARK  4 active torsions:
REMARK  status: ('A' for Active; 'I' for Inactive)
REMARK    1  A    between atoms: O_2  and  C_15
REMARK    2  A    between atoms: O_2  and  C_17
REMARK    3  A    between atoms: C_14  and  C_16
REMARK    4  A    between atoms: C_19  and  C_24
REMARK                            x       y       z     vdW  Elec       q    Type
REMARK                         _______ _______ _______ _____ _____    ______ ____
ROOT
ATOM      1  O   UNL     1     104.276 128.445 142.191  0.00  0.00    +0.000 OA
ATOM      2  O   UNL     1     103.563 130.997 143.557  0.00  0.00    +0.000 OA
ATOM      3  O   UNL     1     102.359 129.375 139.402  0.00  0.00    +0.000 OA
ATOM      4  C   UNL     1     102.834 130.650 141.733  0.00  0.00    +0.000 A 
ATOM      5  C   UNL     1     103.448 129.953 142.193  0.00  0.00    +0.000 A 
ATOM      6  C   UNL     1     104.629 128.637 143.100  0.00  0.00    +0.000 C 
ATOM      7  C   UNL     1     104.391 129.487 143.555  0.00  0.00    +0.000 C 
ATOM      8  C   UNL     1     103.685 129.104 141.737  0.00  0.00    +0.000 A 
ATOM      9  C   UNL     1     103.801 130.146 143.102  0.00  0.00    +0.000 C 
ATOM     10  C   UNL     1     102.463 130.456 140.786  0.00  0.00    +0.000 A 
ATOM     11  C   UNL     1     103.326 128.889 140.790  0.00  0.00    +0.000 A 
ATOM     12  C   UNL     1     102.710 129.570 140.311  0.00  0.00    +0.000 A 
ENDROOT
BRANCH   6  14
ATOM     13  O   UNL     1     106.989 126.002 144.913  0.00  0.00    +0.000 OA
ATOM     14  C   UNL     1     105.219 127.978 143.553  0.00  0.00    +0.000 A 
ATOM     15  C   UNL     1     105.192 127.885 144.542  0.00  0.00    +0.000 A 
ATOM     16  C   UNL     1     105.835 127.412 143.017  0.00  0.00    +0.000 A 
ATOM     17  C   UNL     1     105.783 127.226 144.995  0.00  0.00    +0.000 A 
ATOM     18  C   UNL     1     106.426 126.753 143.471  0.00  0.00    +0.000 A 
ATOM     19  C   UNL     1     106.399 126.661 144.460  0.00  0.00    +0.000 A 
ENDBRANCH   6  14
BRANCH   4  20
ATOM     20  O   UNL     1     102.603 131.498 142.198  0.00  0.00    +0.000 OA
BRANCH  20  29
ATOM     21  O   UNL     1     103.413 132.544 141.097  0.00  0.00    +0.000 OA
ATOM     22  O   UNL     1     101.276 134.589 141.468  0.00  0.00    +0.000 OA
ATOM     23  O   UNL     1     102.798 134.953 140.243  0.00  0.00    +0.000 OA
ATOM     24  O   UNL     1     101.178 132.861 142.446  0.00  0.00    +0.000 OA
ATOM     25  C   UNL     1     101.989 133.907 141.344  0.00  0.00    +0.000 C 
ATOM     26  C   UNL     1     102.749 134.089 140.732  0.00  0.00    +0.000 C 
ATOM     27  C   UNL     1     101.940 133.043 141.833  0.00  0.00    +0.000 C 
ATOM     28  C   UNL     1     103.461 133.408 140.608  0.00  0.00    +0.000 C 
ATOM     29  C   UNL     1     102.652 132.362 141.709  0.00  0.00    +0.000 C 
BRANCH  28  31
ATOM     30  O   UNL     1     104.884 132.875 139.798  0.00  0.00    +0.000 OA
ATOM     31  C   UNL     1     104.223 133.590 139.996  0.00  0.00    +0.000 C 
ENDBRANCH  28  31
ENDBRANCH  20  29
ENDBRANCH   4  20
TORSDOF 4
ENDMDL
MODEL 9
REMARK VINA RESULT:      -8.3      6.800      8.930
REMARK  Name = 
REMARK  4 active torsions:
REMARK  status: ('A' for Active; 'I' for Inactive)
REMARK    1  A    between atoms: O_2  and  C_15
REMARK    2  A    between atoms: O_2  and  C_17
REMARK    3  A    between atoms: C_14  and  C_16
REMARK    4  A    between atoms: C_19  and  C_24
REMARK                            x       y       z     vdW  Elec       q    Type
REMARK                         _______ _______ _______ _____ _____    ______ ____
ROOT
ATOM      1  O   UNL     1     104.652 128.442 142.543  0.00  0.00    +0.000 OA
ATOM      2  O   UNL     1     105.246 128.724 145.451  0.00  0.00    +0.000 OA
ATOM      3  O   UNL     1     106.750 125.635 142.363  0.00  0.00    +0.000 OA
ATOM      4  C   UNL     1     106.103 127.235 144.438  0.00  0.00    +0.000 A 
ATOM      5  C   UNL     1     105.464 127.895 143.958  0.00  0.00    +0.000 A 
ATOM      6  C   UNL     1     104.235 129.177 143.066  0.00  0.00    +0.000 C 
ATOM      7  C   UNL     1     104.433 129.271 144.035  0.00  0.00    +0.000 C 
ATOM      8  C   UNL     1     105.267 127.801 142.989  0.00  0.00    +0.000 A 
ATOM      9  C   UNL     1     105.047 128.631 144.481  0.00  0.00    +0.000 C 
ATOM     10  C   UNL     1     106.541 126.467 143.898  0.00  0.00    +0.000 A 
ATOM     11  C   UNL     1     105.693 127.041 142.431  0.00  0.00    +0.000 A 
ATOM     12  C   UNL     1     106.335 126.369 142.889  0.00  0.00    +0.000 A 
ENDROOT
BRANCH   6  14
ATOM     13  O   UNL     1     101.776 131.740 141.280  0.00  0.00    +0.000 OA
ATOM     14  C   UNL     1     103.620 129.818 142.620  0.00  0.00    +0.000 A 
ATOM     15  C   UNL     1     103.330 129.658 141.684  0.00  0.00    +0.000 A 
ATOM     16  C   UNL     1     103.296 130.619 143.111  0.00  0.00    +0.000 A 
ATOM     17  C   UNL     1     102.715 130.299 141.237  0.00  0.00    +0.000 A 
ATOM     18  C   UNL     1     102.681 131.260 142.664  0.00  0.00    +0.000 A 
ATOM     19  C   UNL     1     102.391 131.099 141.727  0.00  0.00    +0.000 A 
ENDBRANCH   6  14
BRANCH   4  20
ATOM     20  O   UNL     1     106.294 127.339 145.408  0.00  0.00    +0.000 OA
BRANCH  20  29
ATOM     21  O   UNL     1     105.509 125.911 145.966  0.00  0.00    +0.000 OA
ATOM     22  O   UNL     1     107.747 125.429 147.876  0.00  0.00    +0.000 OA
ATOM     23  O   UNL     1     106.216 124.163 147.797  0.00  0.00    +0.000 OA
ATOM     24  O   UNL     1     107.785 127.017 146.681  0.00  0.00    +0.000 OA
ATOM     25  C   UNL     1     107.001 125.590 147.239  0.00  0.00    +0.000 C 
ATOM     26  C   UNL     1     106.236 124.957 147.200  0.00  0.00    +0.000 C 
ATOM     27  C   UNL     1     107.020 126.384 146.642  0.00  0.00    +0.000 C 
ATOM     28  C   UNL     1     105.491 125.118 146.563  0.00  0.00    +0.000 C 
ATOM     29  C   UNL     1     106.275 126.545 146.005  0.00  0.00    +0.000 C 
BRANCH  28  31
ATOM     30  O   UNL     1     104.057 124.557 145.792  0.00  0.00    +0.000 OA
ATOM     31  C   UNL     1     104.725 124.484 146.524  0.00  0.00    +0.000 C 
ENDBRANCH  28  31
ENDBRANCH  20  29
ENDBRANCH   4  20
TORSDOF 4
ENDMDL
MODEL 10
REMARK VINA RESULT:      -8.2      5.257      8.239
REMARK  Name = 
REMARK  4 active torsions:
REMARK  status: ('A' for Active; 'I' for Inactive)
REMARK    1  A    between atoms: O_2  and  C_15
REMARK    2  A    between atoms: O_2  and  C_17
REMARK    3  A    between atoms: C_14  and  C_16
REMARK    4  A    between atoms: C_19  and  C_24
REMARK                            x       y       z     vdW  Elec       q    Type
REMARK                         _______ _______ _______ _____ _____    ______ ____
ROOT
ATOM      1  O   UNL     1     110.592 130.457 135.798  0.00  0.00    +0.000 OA
ATOM      2  O   UNL     1     111.363 131.407 138.517  0.00  0.00    +0.000 OA
ATOM      3  O   UNL     1     113.505 128.506 135.627  0.00  0.00    +0.000 OA
ATOM      4  C   UNL     1     112.570 130.133 137.568  0.00  0.00    +0.000 A 
ATOM      5  C   UNL     1     111.693 130.455 137.121  0.00  0.00    +0.000 A 
ATOM      6  C   UNL     1     110.005 131.092 136.288  0.00  0.00    +0.000 C 
ATOM      7  C   UNL     1     110.262 131.408 137.194  0.00  0.00    +0.000 C 
ATOM      8  C   UNL     1     111.437 130.139 136.215  0.00  0.00    +0.000 A 
ATOM      9  C   UNL     1     111.106 131.090 137.611  0.00  0.00    +0.000 C 
ATOM     10  C   UNL     1     113.187 129.471 137.064  0.00  0.00    +0.000 A 
ATOM     11  C   UNL     1     112.038 129.478 135.692  0.00  0.00    +0.000 A 
ATOM     12  C   UNL     1     112.920 129.141 136.120  0.00  0.00    +0.000 A 
ENDROOT
BRANCH   6  14
ATOM     13  O   UNL     1     106.629 132.365 134.621  0.00  0.00    +0.000 OA
ATOM     14  C   UNL     1     109.161 131.410 135.871  0.00  0.00    +0.000 A 
ATOM     15  C   UNL     1     109.190 132.087 135.144  0.00  0.00    +0.000 A 
ATOM     16  C   UNL     1     108.287 131.052 136.182  0.00  0.00    +0.000 A 
ATOM     17  C   UNL     1     108.346 132.405 134.727  0.00  0.00    +0.000 A 
ATOM     18  C   UNL     1     107.443 131.371 135.765  0.00  0.00    +0.000 A 
ATOM     19  C   UNL     1     107.472 132.047 135.037  0.00  0.00    +0.000 A 
ENDBRANCH   6  14
BRANCH   4  20
ATOM     20  O   UNL     1     112.818 130.456 138.475  0.00  0.00    +0.000 OA
BRANCH  20  29
ATOM     21  O   UNL     1     112.952 128.923 139.250  0.00  0.00    +0.000 OA
ATOM     22  O   UNL     1     115.361 129.879 140.723  0.00  0.00    +0.000 OA
ATOM     23  O   UNL     1     114.691 128.029 141.006  0.00  0.00    +0.000 OA
ATOM     24  O   UNL     1     114.423 131.092 139.457  0.00  0.00    +0.000 OA
ATOM     25  C   UNL     1     114.557 129.560 140.232  0.00  0.00    +0.000 C 
ATOM     26  C   UNL     1     114.223 128.636 140.373  0.00  0.00    +0.000 C 
ATOM     27  C   UNL     1     114.089 130.167 139.599  0.00  0.00    +0.000 C 
ATOM     28  C   UNL     1     113.420 128.318 139.882  0.00  0.00    +0.000 C 
ATOM     29  C   UNL     1     113.286 129.849 139.108  0.00  0.00    +0.000 C 
BRANCH  28  31
ATOM     30  O   UNL     1     112.179 127.137 139.706  0.00  0.00    +0.000 OA
ATOM     31  C   UNL     1     113.086 127.392 140.024  0.00  0.00    +0.000 C 
ENDBRANCH  28  31
ENDBRANCH  20  29
ENDBRANCH   4  20
TORSDOF 4
ENDMDL
