MODEL 1
REMARK VINA RESULT:      -8.6      0.000      0.000
REMARK  Name = 44259826
REMARK  7 active torsions:
REMARK  status: ('A' for Active; 'I' for Inactive)
REMARK    1  A    between atoms: O_2  and  C_18
REMARK    2  A    between atoms: O_2  and  C_20
REMARK    3  A    between atoms: O_8  and  C_22
REMARK    4  A    between atoms: O_10  and  C_28
REMARK    5  A    between atoms: O_12  and  C_35
REMARK    6  A    between atoms: C_17  and  C_19
REMARK    7  A    between atoms: C_27  and  C_29
REMARK                            x       y       z     vdW  Elec       q    Type
REMARK                         _______ _______ _______ _____ _____    ______ ____
ROOT
ATOM      1  O   UNL     1     111.534 127.294 136.488  0.00  0.00    +0.000 OA
ATOM      2  O   UNL     1     111.082 129.927 135.390  0.00  0.00    +0.000 OA
ATOM      3  O   UNL     1     112.408 129.492 135.760  0.00  0.00    +0.000 OA
ATOM      4  C   UNL     1     109.941 129.033 135.568  0.00  0.00    +0.000 A 
ATOM      5  C   UNL     1     110.783 129.197 135.631  0.00  0.00    +0.000 A 
ATOM      6  C   UNL     1     109.639 128.270 135.821  0.00  0.00    +0.000 A 
ATOM      7  C   UNL     1     111.310 128.596 135.945  0.00  0.00    +0.000 A 
ATOM      8  C   UNL     1     111.019 127.863 136.188  0.00  0.00    +0.000 A 
ATOM      9  C   UNL     1     110.181 127.681 136.133  0.00  0.00    +0.000 A 
ATOM     10  C   UNL     1     112.117 128.759 136.003  0.00  0.00    +0.000 A 
ATOM     11  C   UNL     1     112.341 127.457 136.546  0.00  0.00    +0.000 A 
ATOM     12  C   UNL     1     112.632 128.189 136.303  0.00  0.00    +0.000 A 
ENDROOT
BRANCH  11  14
ATOM     13  O   UNL     1     113.626 126.211 138.775  0.00  0.00    +0.000 OA
ATOM     14  C   UNL     1     112.857 126.887 136.847  0.00  0.00    +0.000 A 
ATOM     15  C   UNL     1     112.984 126.834 137.660  0.00  0.00    +0.000 A 
ATOM     16  C   UNL     1     113.245 126.371 136.335  0.00  0.00    +0.000 A 
ATOM     17  C   UNL     1     113.499 126.264 137.961  0.00  0.00    +0.000 A 
ATOM     18  C   UNL     1     113.760 125.801 136.635  0.00  0.00    +0.000 A 
ATOM     19  C   UNL     1     113.888 125.748 137.449  0.00  0.00    +0.000 A 
BRANCH  19  20
ATOM     20  O   UNL     1     114.403 125.178 137.749  0.00  0.00    +0.000 OA
ATOM     21  C   UNL     1     114.734 124.614 137.246  0.00  0.00    +0.000 C 
ENDBRANCH  19  20
ENDBRANCH  11  14
BRANCH   6  22
ATOM     22  O   UNL     1     108.832 128.104 135.765  0.00  0.00    +0.000 OA
ATOM     23  C   UNL     1     108.574 127.321 135.738  0.00  0.00    +0.000 C 
ENDBRANCH   6  22
BRANCH  12  24
ATOM     24  O   UNL     1     113.439 128.352 136.361  0.00  0.00    +0.000 OA
ATOM     25  C   UNL     1     113.734 129.073 136.088  0.00  0.00    +0.000 C 
ENDBRANCH  12  24
BRANCH   4  26
ATOM     26  O   UNL     1     109.428 129.605 135.267  0.00  0.00    +0.000 OA
BRANCH  26  35
ATOM     27  O   UNL     1     109.238 130.145 136.576  0.00  0.00    +0.000 OA
ATOM     28  O   UNL     1     108.096 132.111 135.598  0.00  0.00    +0.000 OA
ATOM     29  O   UNL     1     108.287 131.996 137.233  0.00  0.00    +0.000 OA
ATOM     30  O   UNL     1     108.667 130.916 134.615  0.00  0.00    +0.000 OA
ATOM     31  C   UNL     1     108.477 131.456 135.924  0.00  0.00    +0.000 C 
ATOM     32  C   UNL     1     108.572 131.398 136.742  0.00  0.00    +0.000 C 
ATOM     33  C   UNL     1     108.762 130.858 135.433  0.00  0.00    +0.000 C 
ATOM     34  C   UNL     1     108.953 130.743 137.067  0.00  0.00    +0.000 C 
ATOM     35  C   UNL     1     109.143 130.202 135.758  0.00  0.00    +0.000 C 
BRANCH  34  37
ATOM     36  O   UNL     1     108.585 130.159 138.319  0.00  0.00    +0.000 OA
ATOM     37  C   UNL     1     109.048 130.685 137.884  0.00  0.00    +0.000 C 
ENDBRANCH  34  37
ENDBRANCH  26  35
ENDBRANCH   4  26
TORSDOF 7
ENDMDL
MODEL 2
REMARK VINA RESULT:      -8.6      7.159      8.966
REMARK  Name = 44259826
REMARK  7 active torsions:
REMARK  status: ('A' for Active; 'I' for Inactive)
REMARK    1  A    between atoms: O_2  and  C_18
REMARK    2  A    between atoms: O_2  and  C_20
REMARK    3  A    between atoms: O_8  and  C_22
REMARK    4  A    between atoms: O_10  and  C_28
REMARK    5  A    between atoms: O_12  and  C_35
REMARK    6  A    between atoms: C_17  and  C_19
REMARK    7  A    between atoms: C_27  and  C_29
REMARK                            x       y       z     vdW  Elec       q    Type
REMARK                         _______ _______ _______ _____ _____    ______ ____
ROOT
ATOM      1  O   UNL     1     111.982 131.372 144.927  0.00  0.00    +0.000 OA
ATOM      2  O   UNL     1     111.650 132.204 142.181  0.00  0.00    +0.000 OA
ATOM      3  O   UNL     1     111.790 133.173 143.240  0.00  0.00    +0.000 OA
ATOM      4  C   UNL     1     111.674 130.776 142.486  0.00  0.00    +0.000 A 
ATOM      5  C   UNL     1     111.713 131.598 142.736  0.00  0.00    +0.000 A 
ATOM      6  C   UNL     1     111.741 130.152 143.072  0.00  0.00    +0.000 A 
ATOM      7  C   UNL     1     111.818 131.783 143.568  0.00  0.00    +0.000 A 
ATOM      8  C   UNL     1     111.881 131.182 144.131  0.00  0.00    +0.000 A 
ATOM      9  C   UNL     1     111.845 130.356 143.900  0.00  0.00    +0.000 A 
ATOM     10  C   UNL     1     111.854 132.573 143.803  0.00  0.00    +0.000 A 
ATOM     11  C   UNL     1     112.018 132.163 145.161  0.00  0.00    +0.000 A 
ATOM     12  C   UNL     1     111.954 132.763 144.599  0.00  0.00    +0.000 A 
ENDROOT
BRANCH  11  14
ATOM     13  O   UNL     1     113.688 132.329 147.475  0.00  0.00    +0.000 OA
ATOM     14  C   UNL     1     112.118 132.353 145.958  0.00  0.00    +0.000 A 
ATOM     15  C   UNL     1     112.853 132.246 146.318  0.00  0.00    +0.000 A 
ATOM     16  C   UNL     1     111.485 132.649 146.394  0.00  0.00    +0.000 A 
ATOM     17  C   UNL     1     112.954 132.436 147.115  0.00  0.00    +0.000 A 
ATOM     18  C   UNL     1     111.585 132.839 147.191  0.00  0.00    +0.000 A 
ATOM     19  C   UNL     1     112.319 132.732 147.551  0.00  0.00    +0.000 A 
BRANCH  19  20
ATOM     20  O   UNL     1     112.419 132.922 148.348  0.00  0.00    +0.000 OA
ATOM     21  C   UNL     1     111.801 133.268 148.770  0.00  0.00    +0.000 C 
ENDBRANCH  19  20
ENDBRANCH  11  14
BRANCH   6  22
ATOM     22  O   UNL     1     111.705 129.360 142.841  0.00  0.00    +0.000 OA
ATOM     23  C   UNL     1     111.531 128.776 143.396  0.00  0.00    +0.000 C 
ENDBRANCH   6  22
BRANCH  12  24
ATOM     24  O   UNL     1     111.990 133.553 144.833  0.00  0.00    +0.000 OA
ATOM     25  C   UNL     1     112.188 134.137 144.284  0.00  0.00    +0.000 C 
ENDBRANCH  12  24
BRANCH   4  26
ATOM     26  O   UNL     1     111.574 130.589 141.688  0.00  0.00    +0.000 OA
BRANCH  26  35
ATOM     27  O   UNL     1     112.987 130.670 141.486  0.00  0.00    +0.000 OA
ATOM     28  O   UNL     1     112.703 129.847 139.170  0.00  0.00    +0.000 OA
ATOM     29  O   UNL     1     114.209 130.203 139.740  0.00  0.00    +0.000 OA
ATOM     30  O   UNL     1     111.385 130.040 140.144  0.00  0.00    +0.000 OA
ATOM     31  C   UNL     1     112.798 130.121 139.942  0.00  0.00    +0.000 C 
ATOM     32  C   UNL     1     113.551 130.299 140.228  0.00  0.00    +0.000 C 
ATOM     33  C   UNL     1     112.138 130.218 140.430  0.00  0.00    +0.000 C 
ATOM     34  C   UNL     1     113.645 130.574 141.000  0.00  0.00    +0.000 C 
ATOM     35  C   UNL     1     112.233 130.492 141.202  0.00  0.00    +0.000 C 
BRANCH  34  37
ATOM     36  O   UNL     1     114.636 131.538 141.362  0.00  0.00    +0.000 OA
ATOM     37  C   UNL     1     114.398 130.752 141.285  0.00  0.00    +0.000 C 
ENDBRANCH  34  37
ENDBRANCH  26  35
ENDBRANCH   4  26
TORSDOF 7
ENDMDL
MODEL 3
REMARK VINA RESULT:      -8.6      8.788     10.291
REMARK  Name = 44259826
REMARK  7 active torsions:
REMARK  status: ('A' for Active; 'I' for Inactive)
REMARK    1  A    between atoms: O_2  and  C_18
REMARK    2  A    between atoms: O_2  and  C_20
REMARK    3  A    between atoms: O_8  and  C_22
REMARK    4  A    between atoms: O_10  and  C_28
REMARK    5  A    between atoms: O_12  and  C_35
REMARK    6  A    between atoms: C_17  and  C_19
REMARK    7  A    between atoms: C_27  and  C_29
REMARK                            x       y       z     vdW  Elec       q    Type
REMARK                         _______ _______ _______ _____ _____    ______ ____
ROOT
ATOM      1  O   UNL     1     106.530 125.442 145.756  0.00  0.00    +0.000 OA
ATOM      2  O   UNL     1     105.276 127.766 144.585  0.00  0.00    +0.000 OA
ATOM      3  O   UNL     1     105.680 127.756 145.971  0.00  0.00    +0.000 OA
ATOM      4  C   UNL     1     105.497 126.589 143.749  0.00  0.00    +0.000 A 
ATOM      5  C   UNL     1     105.556 126.995 144.505  0.00  0.00    +0.000 A 
ATOM      6  C   UNL     1     105.793 125.786 143.675  0.00  0.00    +0.000 A 
ATOM      7  C   UNL     1     105.909 126.591 145.176  0.00  0.00    +0.000 A 
ATOM      8  C   UNL     1     106.193 125.819 145.105  0.00  0.00    +0.000 A 
ATOM      9  C   UNL     1     106.143 125.398 144.358  0.00  0.00    +0.000 A 
ATOM     10  C   UNL     1     105.963 126.985 145.899  0.00  0.00    +0.000 A 
ATOM     11  C   UNL     1     106.584 125.835 146.479  0.00  0.00    +0.000 A 
ATOM     12  C   UNL     1     106.300 126.607 146.551  0.00  0.00    +0.000 A 
ENDROOT
BRANCH  11  14
ATOM     13  O   UNL     1     108.900 125.020 147.942  0.00  0.00    +0.000 OA
ATOM     14  C   UNL     1     106.921 125.458 147.130  0.00  0.00    +0.000 A 
ATOM     15  C   UNL     1     107.741 125.428 147.211  0.00  0.00    +0.000 A 
ATOM     16  C   UNL     1     106.438 125.110 147.701  0.00  0.00    +0.000 A 
ATOM     17  C   UNL     1     108.079 125.050 147.862  0.00  0.00    +0.000 A 
ATOM     18  C   UNL     1     106.775 124.733 148.353  0.00  0.00    +0.000 A 
ATOM     19  C   UNL     1     107.596 124.702 148.433  0.00  0.00    +0.000 A 
BRANCH  19  20
ATOM     20  O   UNL     1     107.933 124.325 149.084  0.00  0.00    +0.000 OA
ATOM     21  C   UNL     1     107.456 123.902 149.608  0.00  0.00    +0.000 C 
ENDBRANCH  19  20
ENDBRANCH  11  14
BRANCH   6  22
ATOM     22  O   UNL     1     105.741 125.389 142.954  0.00  0.00    +0.000 OA
ATOM     23  C   UNL     1     105.833 124.570 142.926  0.00  0.00    +0.000 C 
ENDBRANCH   6  22
BRANCH  12  24
ATOM     24  O   UNL     1     106.354 127.001 147.274  0.00  0.00    +0.000 OA
ATOM     25  C   UNL     1     105.952 127.713 147.386  0.00  0.00    +0.000 C 
ENDBRANCH  12  24
BRANCH   4  26
ATOM     26  O   UNL     1     105.160 126.970 143.099  0.00  0.00    +0.000 OA
BRANCH  26  35
ATOM     27  O   UNL     1     106.429 127.494 142.704  0.00  0.00    +0.000 OA
ATOM     28  O   UNL     1     105.293 129.140 141.244  0.00  0.00    +0.000 OA
ATOM     29  O   UNL     1     106.940 129.116 141.335  0.00  0.00    +0.000 OA
ATOM     30  O   UNL     1     104.403 128.066 142.127  0.00  0.00    +0.000 OA
ATOM     31  C   UNL     1     105.672 128.591 141.731  0.00  0.00    +0.000 C 
ATOM     32  C   UNL     1     106.495 128.579 141.777  0.00  0.00    +0.000 C 
ATOM     33  C   UNL     1     105.226 128.054 142.172  0.00  0.00    +0.000 C 
ATOM     34  C   UNL     1     106.874 128.031 142.263  0.00  0.00    +0.000 C 
ATOM     35  C   UNL     1     105.605 127.506 142.659  0.00  0.00    +0.000 C 
BRANCH  34  37
ATOM     36  O   UNL     1     108.115 127.352 142.060  0.00  0.00    +0.000 OA
ATOM     37  C   UNL     1     107.697 128.019 142.308  0.00  0.00    +0.000 C 
ENDBRANCH  34  37
ENDBRANCH  26  35
ENDBRANCH   4  26
TORSDOF 7
ENDMDL
MODEL 4
REMARK VINA RESULT:      -8.6      6.767     10.459
REMARK  Name = 44259826
REMARK  7 active torsions:
REMARK  status: ('A' for Active; 'I' for Inactive)
REMARK    1  A    between atoms: O_2  and  C_18
REMARK    2  A    between atoms: O_2  and  C_20
REMARK    3  A    between atoms: O_8  and  C_22
REMARK    4  A    between atoms: O_10  and  C_28
REMARK    5  A    between atoms: O_12  and  C_35
REMARK    6  A    between atoms: C_17  and  C_19
REMARK    7  A    between atoms: C_27  and  C_29
REMARK                            x       y       z     vdW  Elec       q    Type
REMARK                         _______ _______ _______ _____ _____    ______ ____
ROOT
ATOM      1  O   UNL     1     103.548 130.333 142.569  0.00  0.00    +0.000 OA
ATOM      2  O   UNL     1     104.477 127.856 141.409  0.00  0.00    +0.000 OA
ATOM      3  O   UNL     1     103.595 128.736 140.680  0.00  0.00    +0.000 OA
ATOM      4  C   UNL     1     104.915 128.210 142.756  0.00  0.00    +0.000 A 
ATOM      5  C   UNL     1     104.466 128.383 142.043  0.00  0.00    +0.000 A 
ATOM      6  C   UNL     1     104.898 128.765 143.412  0.00  0.00    +0.000 A 
ATOM      7  C   UNL     1     104.008 129.108 141.996  0.00  0.00    +0.000 A 
ATOM      8  C   UNL     1     103.992 129.640 142.626  0.00  0.00    +0.000 A 
ATOM      9  C   UNL     1     104.433 129.485 143.346  0.00  0.00    +0.000 A 
ATOM     10  C   UNL     1     103.579 129.268 141.310  0.00  0.00    +0.000 A 
ATOM     11  C   UNL     1     103.119 130.494 141.883  0.00  0.00    +0.000 A 
ATOM     12  C   UNL     1     103.135 129.961 141.253  0.00  0.00    +0.000 A 
ENDROOT
BRANCH  11  14
ATOM     13  O   UNL     1     102.904 133.240 141.120  0.00  0.00    +0.000 OA
ATOM     14  C   UNL     1     102.675 131.187 141.826  0.00  0.00    +0.000 A 
ATOM     15  C   UNL     1     103.012 131.867 141.502  0.00  0.00    +0.000 A 
ATOM     16  C   UNL     1     101.896 131.200 142.093  0.00  0.00    +0.000 A 
ATOM     17  C   UNL     1     102.568 132.560 141.444  0.00  0.00    +0.000 A 
ATOM     18  C   UNL     1     101.452 131.893 142.036  0.00  0.00    +0.000 A 
ATOM     19  C   UNL     1     101.788 132.573 141.712  0.00  0.00    +0.000 A 
BRANCH  19  20
ATOM     20  O   UNL     1     101.344 133.266 141.655  0.00  0.00    +0.000 OA
ATOM     21  C   UNL     1     100.710 133.393 142.168  0.00  0.00    +0.000 C 
ENDBRANCH  19  20
ENDBRANCH  11  14
BRANCH   6  22
ATOM     22  O   UNL     1     105.325 128.608 144.100  0.00  0.00    +0.000 OA
ATOM     23  C   UNL     1     105.102 128.958 144.813  0.00  0.00    +0.000 C 
ENDBRANCH   6  22
BRANCH  12  24
ATOM     24  O   UNL     1     102.707 130.122 140.566  0.00  0.00    +0.000 OA
ATOM     25  C   UNL     1     102.510 129.508 140.050  0.00  0.00    +0.000 C 
ENDBRANCH  12  24
BRANCH   4  26
ATOM     26  O   UNL     1     105.358 127.516 142.810  0.00  0.00    +0.000 OA
BRANCH  26  35
ATOM     27  O   UNL     1     106.483 128.192 142.245  0.00  0.00    +0.000 OA
ATOM     28  O   UNL     1     107.811 126.108 142.400  0.00  0.00    +0.000 OA
ATOM     29  O   UNL     1     108.493 127.477 141.783  0.00  0.00    +0.000 OA
ATOM     30  O   UNL     1     106.243 126.128 142.913  0.00  0.00    +0.000 OA
ATOM     31  C   UNL     1     107.368 126.803 142.348  0.00  0.00    +0.000 C 
ATOM     32  C   UNL     1     107.709 127.488 142.040  0.00  0.00    +0.000 C 
ATOM     33  C   UNL     1     106.584 126.813 142.605  0.00  0.00    +0.000 C 
ATOM     34  C   UNL     1     107.267 128.182 141.989  0.00  0.00    +0.000 C 
ATOM     35  C   UNL     1     106.141 127.507 142.554  0.00  0.00    +0.000 C 
BRANCH  34  37
ATOM     36  O   UNL     1     107.412 129.120 140.920  0.00  0.00    +0.000 OA
ATOM     37  C   UNL     1     107.608 128.866 141.680  0.00  0.00    +0.000 C 
ENDBRANCH  34  37
ENDBRANCH  26  35
ENDBRANCH   4  26
TORSDOF 7
ENDMDL
MODEL 5
REMARK VINA RESULT:      -8.4      1.597      2.261
REMARK  Name = 44259826
REMARK  7 active torsions:
REMARK  status: ('A' for Active; 'I' for Inactive)
REMARK    1  A    between atoms: O_2  and  C_18
REMARK    2  A    between atoms: O_2  and  C_20
REMARK    3  A    between atoms: O_8  and  C_22
REMARK    4  A    between atoms: O_10  and  C_28
REMARK    5  A    between atoms: O_12  and  C_35
REMARK    6  A    between atoms: C_17  and  C_19
REMARK    7  A    between atoms: C_27  and  C_29
REMARK                            x       y       z     vdW  Elec       q    Type
REMARK                         _______ _______ _______ _____ _____    ______ ____
ROOT
ATOM      1  O   UNL     1     111.826 127.447 136.495  0.00  0.00    +0.000 OA
ATOM      2  O   UNL     1     112.413 129.920 137.869  0.00  0.00    +0.000 OA
ATOM      3  O   UNL     1     112.941 128.662 138.341  0.00  0.00    +0.000 OA
ATOM      4  C   UNL     1     111.567 129.959 136.680  0.00  0.00    +0.000 A 
ATOM      5  C   UNL     1     112.038 129.523 137.251  0.00  0.00    +0.000 A 
ATOM      6  C   UNL     1     111.180 129.537 136.039  0.00  0.00    +0.000 A 
ATOM      7  C   UNL     1     112.116 128.671 137.174  0.00  0.00    +0.000 A 
ATOM      8  C   UNL     1     111.744 128.266 136.559  0.00  0.00    +0.000 A 
ATOM      9  C   UNL     1     111.269 128.684 135.979  0.00  0.00    +0.000 A 
ATOM     10  C   UNL     1     112.570 128.257 137.725  0.00  0.00    +0.000 A 
ATOM     11  C   UNL     1     112.280 127.034 137.047  0.00  0.00    +0.000 A 
ATOM     12  C   UNL     1     112.652 127.439 137.662  0.00  0.00    +0.000 A 
ENDROOT
BRANCH  11  14
ATOM     13  O   UNL     1     113.765 124.756 136.164  0.00  0.00    +0.000 OA
ATOM     14  C   UNL     1     112.362 126.215 136.983  0.00  0.00    +0.000 A 
ATOM     15  C   UNL     1     113.022 125.895 136.606  0.00  0.00    +0.000 A 
ATOM     16  C   UNL     1     111.784 125.717 137.296  0.00  0.00    +0.000 A 
ATOM     17  C   UNL     1     113.105 125.076 136.542  0.00  0.00    +0.000 A 
ATOM     18  C   UNL     1     111.866 124.899 137.232  0.00  0.00    +0.000 A 
ATOM     19  C   UNL     1     112.526 124.578 136.855  0.00  0.00    +0.000 A 
BRANCH  19  20
ATOM     20  O   UNL     1     112.608 123.760 136.791  0.00  0.00    +0.000 OA
ATOM     21  C   UNL     1     112.045 123.261 137.130  0.00  0.00    +0.000 C 
ENDBRANCH  19  20
ENDBRANCH  11  14
BRANCH   6  22
ATOM     22  O   UNL     1     110.726 129.947 135.486  0.00  0.00    +0.000 OA
ATOM     23  C   UNL     1     110.535 129.594 134.766  0.00  0.00    +0.000 C 
ENDBRANCH   6  22
BRANCH  12  24
ATOM     24  O   UNL     1     113.105 127.025 138.213  0.00  0.00    +0.000 OA
ATOM     25  C   UNL     1     113.233 127.344 138.964  0.00  0.00    +0.000 C 
ENDBRANCH  12  24
BRANCH   4  26
ATOM     26  O   UNL     1     111.487 130.778 136.746  0.00  0.00    +0.000 OA
BRANCH  26  35
ATOM     27  O   UNL     1     110.352 130.609 137.598  0.00  0.00    +0.000 OA
ATOM     28  O   UNL     1     110.374 133.031 138.106  0.00  0.00    +0.000 OA
ATOM     29  O   UNL     1     109.233 132.055 138.788  0.00  0.00    +0.000 OA
ATOM     30  O   UNL     1     111.501 132.392 137.085  0.00  0.00    +0.000 OA
ATOM     31  C   UNL     1     110.367 132.224 137.937  0.00  0.00    +0.000 C 
ATOM     32  C   UNL     1     109.796 131.735 138.278  0.00  0.00    +0.000 C 
ATOM     33  C   UNL     1     110.931 131.904 137.426  0.00  0.00    +0.000 C 
ATOM     34  C   UNL     1     109.789 130.928 138.108  0.00  0.00    +0.000 C 
ATOM     35  C   UNL     1     110.924 131.096 137.256  0.00  0.00    +0.000 C 
BRANCH  34  37
ATOM     36  O   UNL     1     108.638 130.091 137.978  0.00  0.00    +0.000 OA
ATOM     37  C   UNL     1     109.218 130.440 138.449  0.00  0.00    +0.000 C 
ENDBRANCH  34  37
ENDBRANCH  26  35
ENDBRANCH   4  26
TORSDOF 7
ENDMDL
MODEL 6
REMARK VINA RESULT:      -8.4      1.350      5.932
REMARK  Name = 44259826
REMARK  7 active torsions:
REMARK  status: ('A' for Active; 'I' for Inactive)
REMARK    1  A    between atoms: O_2  and  C_18
REMARK    2  A    between atoms: O_2  and  C_20
REMARK    3  A    between atoms: O_8  and  C_22
REMARK    4  A    between atoms: O_10  and  C_28
REMARK    5  A    between atoms: O_12  and  C_35
REMARK    6  A    between atoms: C_17  and  C_19
REMARK    7  A    between atoms: C_27  and  C_29
REMARK                            x       y       z     vdW  Elec       q    Type
REMARK                         _______ _______ _______ _____ _____    ______ ____
ROOT
ATOM      1  O   UNL     1     110.525 128.528 137.350  0.00  0.00    +0.000 OA
ATOM      2  O   UNL     1     113.116 127.475 136.627  0.00  0.00    +0.000 OA
ATOM      3  O   UNL     1     112.409 128.379 135.752  0.00  0.00    +0.000 OA
ATOM      4  C   UNL     1     112.526 127.077 137.902  0.00  0.00    +0.000 A 
ATOM      5  C   UNL     1     112.493 127.519 137.165  0.00  0.00    +0.000 A 
ATOM      6  C   UNL     1     111.871 127.129 138.456  0.00  0.00    +0.000 A 
ATOM      7  C   UNL     1     111.807 128.007 136.993  0.00  0.00    +0.000 A 
ATOM      8  C   UNL     1     111.179 128.056 137.526  0.00  0.00    +0.000 A 
ATOM      9  C   UNL     1     111.193 127.622 138.267  0.00  0.00    +0.000 A 
ATOM     10  C   UNL     1     111.781 128.428 136.285  0.00  0.00    +0.000 A 
ATOM     11  C   UNL     1     110.499 128.950 136.642  0.00  0.00    +0.000 A 
ATOM     12  C   UNL     1     111.127 128.900 136.109  0.00  0.00    +0.000 A 
ENDROOT
BRANCH  11  14
ATOM     13  O   UNL     1     107.821 129.207 135.677  0.00  0.00    +0.000 OA
ATOM     14  C   UNL     1     109.846 129.421 136.466  0.00  0.00    +0.000 A 
ATOM     15  C   UNL     1     109.160 129.079 136.160  0.00  0.00    +0.000 A 
ATOM     16  C   UNL     1     109.877 130.235 136.596  0.00  0.00    +0.000 A 
ATOM     17  C   UNL     1     108.506 129.550 135.983  0.00  0.00    +0.000 A 
ATOM     18  C   UNL     1     109.223 130.706 136.420  0.00  0.00    +0.000 A 
ATOM     19  C   UNL     1     108.538 130.364 136.114  0.00  0.00    +0.000 A 
BRANCH  19  20
ATOM     20  O   UNL     1     107.884 130.835 135.938  0.00  0.00    +0.000 OA
ATOM     21  C   UNL     1     107.933 131.655 136.018  0.00  0.00    +0.000 C 
ENDBRANCH  19  20
ENDBRANCH  11  14
BRANCH   6  22
ATOM     22  O   UNL     1     111.894 126.709 139.166  0.00  0.00    +0.000 OA
ATOM     23  C   UNL     1     111.452 126.967 139.813  0.00  0.00    +0.000 C 
ENDBRANCH   6  22
BRANCH  12  24
ATOM     24  O   UNL     1     111.102 129.322 135.400  0.00  0.00    +0.000 OA
ATOM     25  C   UNL     1     111.588 129.100 134.771  0.00  0.00    +0.000 C 
ENDBRANCH  12  24
BRANCH   4  26
ATOM     26  O   UNL     1     113.180 126.606 138.075  0.00  0.00    +0.000 OA
BRANCH  26  35
ATOM     27  O   UNL     1     112.559 125.469 137.472  0.00  0.00    +0.000 OA
ATOM     28  O   UNL     1     114.740 124.300 137.429  0.00  0.00    +0.000 OA
ATOM     29  O   UNL     1     113.391 123.554 136.840  0.00  0.00    +0.000 OA
ATOM     30  O   UNL     1     114.634 125.826 138.046  0.00  0.00    +0.000 OA
ATOM     31  C   UNL     1     114.013 124.690 137.443  0.00  0.00    +0.000 C 
ATOM     32  C   UNL     1     113.338 124.317 137.149  0.00  0.00    +0.000 C 
ATOM     33  C   UNL     1     113.960 125.454 137.752  0.00  0.00    +0.000 C 
ATOM     34  C   UNL     1     112.611 124.707 137.164  0.00  0.00    +0.000 C 
ATOM     35  C   UNL     1     113.233 125.843 137.767  0.00  0.00    +0.000 C 
BRANCH  34  37
ATOM     36  O   UNL     1     111.617 124.569 136.146  0.00  0.00    +0.000 OA
ATOM     37  C   UNL     1     111.938 124.334 136.869  0.00  0.00    +0.000 C 
ENDBRANCH  34  37
ENDBRANCH  26  35
ENDBRANCH   4  26
TORSDOF 7
ENDMDL
MODEL 7
REMARK VINA RESULT:      -8.4      1.689      2.541
REMARK  Name = 44259826
REMARK  7 active torsions:
REMARK  status: ('A' for Active; 'I' for Inactive)
REMARK    1  A    between atoms: O_2  and  C_18
REMARK    2  A    between atoms: O_2  and  C_20
REMARK    3  A    between atoms: O_8  and  C_22
REMARK    4  A    between atoms: O_10  and  C_28
REMARK    5  A    between atoms: O_12  and  C_35
REMARK    6  A    between atoms: C_17  and  C_19
REMARK    7  A    between atoms: C_27  and  C_29
REMARK                            x       y       z     vdW  Elec       q    Type
REMARK                         _______ _______ _______ _____ _____    ______ ____
ROOT
ATOM      1  O   UNL     1     110.951 127.354 136.327  0.00  0.00    +0.000 OA
ATOM      2  O   UNL     1     109.008 128.839 137.865  0.00  0.00    +0.000 OA
ATOM      3  O   UNL     1     109.470 127.543 138.301  0.00  0.00    +0.000 OA
ATOM      4  C   UNL     1     109.522 129.423 136.630  0.00  0.00    +0.000 A 
ATOM      5  C   UNL     1     109.499 128.784 137.205  0.00  0.00    +0.000 A 
ATOM      6  C   UNL     1     110.037 129.357 135.945  0.00  0.00    +0.000 A 
ATOM      7  C   UNL     1     109.990 128.089 137.087  0.00  0.00    +0.000 A 
ATOM      8  C   UNL     1     110.484 128.027 136.429  0.00  0.00    +0.000 A 
ATOM      9  C   UNL     1     110.521 128.654 135.844  0.00  0.00    +0.000 A 
ATOM     10  C   UNL     1     109.964 127.480 137.643  0.00  0.00    +0.000 A 
ATOM     11  C   UNL     1     110.925 126.745 136.882  0.00  0.00    +0.000 A 
ATOM     12  C   UNL     1     110.431 126.808 137.540  0.00  0.00    +0.000 A 
ENDROOT
BRANCH  11  14
ATOM     13  O   UNL     1     111.307 124.144 135.760  0.00  0.00    +0.000 OA
ATOM     14  C   UNL     1     111.392 126.073 136.780  0.00  0.00    +0.000 A 
ATOM     15  C   UNL     1     111.116 125.444 136.322  0.00  0.00    +0.000 A 
ATOM     16  C   UNL     1     112.134 126.028 137.135  0.00  0.00    +0.000 A 
ATOM     17  C   UNL     1     111.583 124.772 136.219  0.00  0.00    +0.000 A 
ATOM     18  C   UNL     1     112.601 125.356 137.033  0.00  0.00    +0.000 A 
ATOM     19  C   UNL     1     112.326 124.728 136.574  0.00  0.00    +0.000 A 
BRANCH  19  20
ATOM     20  O   UNL     1     112.793 124.056 136.472  0.00  0.00    +0.000 OA
ATOM     21  C   UNL     1     113.504 123.981 136.884  0.00  0.00    +0.000 C 
ENDBRANCH  19  20
ENDBRANCH  11  14
BRANCH   6  22
ATOM     22  O   UNL     1     110.066 129.964 135.387  0.00  0.00    +0.000 OA
ATOM     23  C   UNL     1     110.296 129.802 134.612  0.00  0.00    +0.000 C 
ENDBRANCH   6  22
BRANCH  12  24
ATOM     24  O   UNL     1     110.404 126.198 138.096  0.00  0.00    +0.000 OA
ATOM     25  C   UNL     1     109.848 126.220 138.705  0.00  0.00    +0.000 C 
ENDBRANCH  12  24
BRANCH   4  26
ATOM     26  O   UNL     1     109.054 130.094 136.735  0.00  0.00    +0.000 OA
BRANCH  26  35
ATOM     27  O   UNL     1     110.090 130.722 137.492  0.00  0.00    +0.000 OA
ATOM     28  O   UNL     1     108.494 132.464 138.229  0.00  0.00    +0.000 OA
ATOM     29  O   UNL     1     110.062 132.512 138.741  0.00  0.00    +0.000 OA
ATOM     30  O   UNL     1     107.990 131.255 137.226  0.00  0.00    +0.000 OA
ATOM     31  C   UNL     1     109.026 131.884 137.984  0.00  0.00    +0.000 C 
ATOM     32  C   UNL     1     109.810 131.907 138.239  0.00  0.00    +0.000 C 
ATOM     33  C   UNL     1     108.774 131.279 137.482  0.00  0.00    +0.000 C 
ATOM     34  C   UNL     1     110.342 131.326 137.993  0.00  0.00    +0.000 C 
ATOM     35  C   UNL     1     109.306 130.698 137.236  0.00  0.00    +0.000 C 
BRANCH  34  37
ATOM     36  O   UNL     1     111.725 131.565 137.725  0.00  0.00    +0.000 OA
ATOM     37  C   UNL     1     111.125 131.350 138.249  0.00  0.00    +0.000 C 
ENDBRANCH  34  37
ENDBRANCH  26  35
ENDBRANCH   4  26
TORSDOF 7
ENDMDL
MODEL 8
REMARK VINA RESULT:      -8.4      6.987      8.730
REMARK  Name = 44259826
REMARK  7 active torsions:
REMARK  status: ('A' for Active; 'I' for Inactive)
REMARK    1  A    between atoms: O_2  and  C_18
REMARK    2  A    between atoms: O_2  and  C_20
REMARK    3  A    between atoms: O_8  and  C_22
REMARK    4  A    between atoms: O_10  and  C_28
REMARK    5  A    between atoms: O_12  and  C_35
REMARK    6  A    between atoms: C_17  and  C_19
REMARK    7  A    between atoms: C_27  and  C_29
REMARK                            x       y       z     vdW  Elec       q    Type
REMARK                         _______ _______ _______ _____ _____    ______ ____
ROOT
ATOM      1  O   UNL     1     111.883 131.423 144.978  0.00  0.00    +0.000 OA
ATOM      2  O   UNL     1     111.597 132.315 142.245  0.00  0.00    +0.000 OA
ATOM      3  O   UNL     1     111.807 133.257 143.318  0.00  0.00    +0.000 OA
ATOM      4  C   UNL     1     111.526 130.884 142.529  0.00  0.00    +0.000 A 
ATOM      5  C   UNL     1     111.621 131.698 142.791  0.00  0.00    +0.000 A 
ATOM      6  C   UNL     1     111.553 130.248 143.106  0.00  0.00    +0.000 A 
ATOM      7  C   UNL     1     111.742 131.863 143.626  0.00  0.00    +0.000 A 
ATOM      8  C   UNL     1     111.767 131.252 144.179  0.00  0.00    +0.000 A 
ATOM      9  C   UNL     1     111.674 130.433 143.936  0.00  0.00    +0.000 A 
ATOM     10  C   UNL     1     111.832 132.646 143.871  0.00  0.00    +0.000 A 
ATOM     11  C   UNL     1     111.974 132.205 145.223  0.00  0.00    +0.000 A 
ATOM     12  C   UNL     1     111.948 132.816 144.670  0.00  0.00    +0.000 A 
ENDROOT
BRANCH  11  14
ATOM     13  O   UNL     1     113.681 132.287 147.514  0.00  0.00    +0.000 OA
ATOM     14  C   UNL     1     112.090 132.376 146.022  0.00  0.00    +0.000 A 
ATOM     15  C   UNL     1     112.827 132.246 146.369  0.00  0.00    +0.000 A 
ATOM     16  C   UNL     1     111.469 132.676 146.474  0.00  0.00    +0.000 A 
ATOM     17  C   UNL     1     112.944 132.417 147.167  0.00  0.00    +0.000 A 
ATOM     18  C   UNL     1     111.586 132.847 147.272  0.00  0.00    +0.000 A 
ATOM     19  C   UNL     1     112.323 132.718 147.619  0.00  0.00    +0.000 A 
BRANCH  19  20
ATOM     20  O   UNL     1     112.439 132.889 148.418  0.00  0.00    +0.000 OA
ATOM     21  C   UNL     1     111.836 133.243 148.855  0.00  0.00    +0.000 C 
ENDBRANCH  19  20
ENDBRANCH  11  14
BRANCH   6  22
ATOM     22  O   UNL     1     111.462 129.464 142.864  0.00  0.00    +0.000 OA
ATOM     23  C   UNL     1     111.739 128.851 143.341  0.00  0.00    +0.000 C 
ENDBRANCH   6  22
BRANCH  12  24
ATOM     24  O   UNL     1     112.039 133.599 144.915  0.00  0.00    +0.000 OA
ATOM     25  C   UNL     1     112.145 134.197 144.356  0.00  0.00    +0.000 C 
ENDBRANCH  12  24
BRANCH   4  26
ATOM     26  O   UNL     1     111.410 130.716 141.730  0.00  0.00    +0.000 OA
BRANCH  26  35
ATOM     27  O   UNL     1     109.990 130.696 141.883  0.00  0.00    +0.000 OA
ATOM     28  O   UNL     1     109.722 131.094 139.455  0.00  0.00    +0.000 OA
ATOM     29  O   UNL     1     108.392 130.941 140.417  0.00  0.00    +0.000 OA
ATOM     30  O   UNL     1     111.232 130.981 140.111  0.00  0.00    +0.000 OA
ATOM     31  C   UNL     1     109.811 130.961 140.264  0.00  0.00    +0.000 C 
ATOM     32  C   UNL     1     109.146 130.885 140.746  0.00  0.00    +0.000 C 
ATOM     33  C   UNL     1     110.567 130.905 140.593  0.00  0.00    +0.000 C 
ATOM     34  C   UNL     1     109.235 130.753 141.556  0.00  0.00    +0.000 C 
ATOM     35  C   UNL     1     110.656 130.772 141.402  0.00  0.00    +0.000 C 
BRANCH  34  37
ATOM     36  O   UNL     1     108.356 131.290 142.546  0.00  0.00    +0.000 OA
ATOM     37  C   UNL     1     108.570 130.677 142.036  0.00  0.00    +0.000 C 
ENDBRANCH  34  37
ENDBRANCH  26  35
ENDBRANCH   4  26
TORSDOF 7
ENDMDL
MODEL 9
REMARK VINA RESULT:      -8.3      1.393      2.465
REMARK  Name = 44259826
REMARK  7 active torsions:
REMARK  status: ('A' for Active; 'I' for Inactive)
REMARK    1  A    between atoms: O_2  and  C_18
REMARK    2  A    between atoms: O_2  and  C_20
REMARK    3  A    between atoms: O_8  and  C_22
REMARK    4  A    between atoms: O_10  and  C_28
REMARK    5  A    between atoms: O_12  and  C_35
REMARK    6  A    between atoms: C_17  and  C_19
REMARK    7  A    between atoms: C_27  and  C_29
REMARK                            x       y       z     vdW  Elec       q    Type
REMARK                         _______ _______ _______ _____ _____    ______ ____
ROOT
ATOM      1  O   UNL     1     112.157 128.241 137.717  0.00  0.00    +0.000 OA
ATOM      2  O   UNL     1     109.330 128.823 137.841  0.00  0.00    +0.000 OA
ATOM      3  O   UNL     1     109.817 127.469 137.948  0.00  0.00    +0.000 OA
ATOM      4  C   UNL     1     110.269 129.928 137.667  0.00  0.00    +0.000 A 
ATOM      5  C   UNL     1     110.107 129.089 137.763  0.00  0.00    +0.000 A 
ATOM      6  C   UNL     1     111.082 130.195 137.587  0.00  0.00    +0.000 A 
ATOM      7  C   UNL     1     110.759 128.530 137.778  0.00  0.00    +0.000 A 
ATOM      8  C   UNL     1     111.539 128.788 137.701  0.00  0.00    +0.000 A 
ATOM      9  C   UNL     1     111.721 129.621 137.604  0.00  0.00    +0.000 A 
ATOM     10  C   UNL     1     110.597 127.726 137.871  0.00  0.00    +0.000 A 
ATOM     11  C   UNL     1     111.995 127.438 137.810  0.00  0.00    +0.000 A 
ATOM     12  C   UNL     1     111.215 127.180 137.887  0.00  0.00    +0.000 A 
ENDROOT
BRANCH  11  14
ATOM     13  O   UNL     1     114.076 126.094 139.237  0.00  0.00    +0.000 OA
ATOM     14  C   UNL     1     112.613 126.891 137.825  0.00  0.00    +0.000 A 
ATOM     15  C   UNL     1     113.035 126.766 138.523  0.00  0.00    +0.000 A 
ATOM     16  C   UNL     1     112.810 126.471 137.144  0.00  0.00    +0.000 A 
ATOM     17  C   UNL     1     113.654 126.220 138.540  0.00  0.00    +0.000 A 
ATOM     18  C   UNL     1     113.428 125.925 137.160  0.00  0.00    +0.000 A 
ATOM     19  C   UNL     1     113.850 125.799 137.858  0.00  0.00    +0.000 A 
BRANCH  19  20
ATOM     20  O   UNL     1     114.468 125.253 137.873  0.00  0.00    +0.000 OA
ATOM     21  C   UNL     1     114.649 124.816 137.198  0.00  0.00    +0.000 C 
ENDBRANCH  19  20
ENDBRANCH  11  14
BRANCH   6  22
ATOM     22  O   UNL     1     111.247 130.998 137.494  0.00  0.00    +0.000 OA
ATOM     23  C   UNL     1     112.002 131.286 137.662  0.00  0.00    +0.000 C 
ENDBRANCH   6  22
BRANCH  12  24
ATOM     24  O   UNL     1     111.054 126.376 137.979  0.00  0.00    +0.000 OA
ATOM     25  C   UNL     1     110.305 126.133 138.228  0.00  0.00    +0.000 C 
ENDBRANCH  12  24
BRANCH   4  26
ATOM     26  O   UNL     1     109.649 130.472 137.652  0.00  0.00    +0.000 OA
BRANCH  26  35
ATOM     27  O   UNL     1     109.591 130.394 136.226  0.00  0.00    +0.000 OA
ATOM     28  O   UNL     1     107.425 131.592 136.250  0.00  0.00    +0.000 OA
ATOM     29  O   UNL     1     108.088 131.115 134.817  0.00  0.00    +0.000 OA
ATOM     30  O   UNL     1     108.205 131.270 137.667  0.00  0.00    +0.000 OA
ATOM     31  C   UNL     1     108.147 131.192 136.242  0.00  0.00    +0.000 C 
ATOM     32  C   UNL     1     108.479 130.954 135.525  0.00  0.00    +0.000 C 
ATOM     33  C   UNL     1     108.537 131.032 136.951  0.00  0.00    +0.000 C 
ATOM     34  C   UNL     1     109.201 130.555 135.518  0.00  0.00    +0.000 C 
ATOM     35  C   UNL     1     109.259 130.633 136.943  0.00  0.00    +0.000 C 
BRANCH  34  37
ATOM     36  O   UNL     1     109.593 129.514 134.621  0.00  0.00    +0.000 OA
ATOM     37  C   UNL     1     109.532 130.317 134.801  0.00  0.00    +0.000 C 
ENDBRANCH  34  37
ENDBRANCH  26  35
ENDBRANCH   4  26
TORSDOF 7
ENDMDL
MODEL 10
REMARK VINA RESULT:      -8.3      1.570      2.200
REMARK  Name = 44259826
REMARK  7 active torsions:
REMARK  status: ('A' for Active; 'I' for Inactive)
REMARK    1  A    between atoms: O_2  and  C_18
REMARK    2  A    between atoms: O_2  and  C_20
REMARK    3  A    between atoms: O_8  and  C_22
REMARK    4  A    between atoms: O_10  and  C_28
REMARK    5  A    between atoms: O_12  and  C_35
REMARK    6  A    between atoms: C_17  and  C_19
REMARK    7  A    between atoms: C_27  and  C_29
REMARK                            x       y       z     vdW  Elec       q    Type
REMARK                         _______ _______ _______ _____ _____    ______ ____
ROOT
ATOM      1  O   UNL     1     110.801 127.148 137.158  0.00  0.00    +0.000 OA
ATOM      2  O   UNL     1     108.906 128.576 135.510  0.00  0.00    +0.000 OA
ATOM      3  O   UNL     1     109.656 127.460 134.986  0.00  0.00    +0.000 OA
ATOM      4  C   UNL     1     109.098 129.003 136.894  0.00  0.00    +0.000 A 
ATOM      5  C   UNL     1     109.283 128.479 136.237  0.00  0.00    +0.000 A 
ATOM      6  C   UNL     1     109.496 128.894 137.647  0.00  0.00    +0.000 A 
ATOM      7  C   UNL     1     109.864 127.855 136.344  0.00  0.00    +0.000 A 
ATOM      8  C   UNL     1     110.246 127.751 137.068  0.00  0.00    +0.000 A 
ATOM      9  C   UNL     1     110.073 128.264 137.735  0.00  0.00    +0.000 A 
ATOM     10  C   UNL     1     110.038 127.356 135.710  0.00  0.00    +0.000 A 
ATOM     11  C   UNL     1     110.975 126.649 136.525  0.00  0.00    +0.000 A 
ATOM     12  C   UNL     1     110.594 126.753 135.801  0.00  0.00    +0.000 A 
ENDROOT
BRANCH  11  14
ATOM     13  O   UNL     1     111.623 123.976 137.302  0.00  0.00    +0.000 OA
ATOM     14  C   UNL     1     111.531 126.046 136.615  0.00  0.00    +0.000 A 
ATOM     15  C   UNL     1     111.299 125.313 136.913  0.00  0.00    +0.000 A 
ATOM     16  C   UNL     1     112.318 126.176 136.408  0.00  0.00    +0.000 A 
ATOM     17  C   UNL     1     111.855 124.709 137.004  0.00  0.00    +0.000 A 
ATOM     18  C   UNL     1     112.874 125.573 136.498  0.00  0.00    +0.000 A 
ATOM     19  C   UNL     1     112.642 124.840 136.796  0.00  0.00    +0.000 A 
BRANCH  19  20
ATOM     20  O   UNL     1     113.198 124.237 136.887  0.00  0.00    +0.000 OA
ATOM     21  C   UNL     1     114.004 124.411 136.857  0.00  0.00    +0.000 C 
ENDBRANCH  19  20
ENDBRANCH  11  14
BRANCH   6  22
ATOM     22  O   UNL     1     109.324 129.391 138.283  0.00  0.00    +0.000 OA
ATOM     23  C   UNL     1     109.517 129.161 139.051  0.00  0.00    +0.000 C 
ENDBRANCH   6  22
BRANCH  12  24
ATOM     24  O   UNL     1     110.768 126.254 135.167  0.00  0.00    +0.000 OA
ATOM     25  C   UNL     1     110.184 126.074 134.612  0.00  0.00    +0.000 C 
ENDBRANCH  12  24
BRANCH   4  26
ATOM     26  O   UNL     1     108.541 129.605 136.800  0.00  0.00    +0.000 OA
BRANCH  26  35
ATOM     27  O   UNL     1     109.554 130.554 136.461  0.00  0.00    +0.000 OA
ATOM     28  O   UNL     1     107.844 132.003 135.412  0.00  0.00    +0.000 OA
ATOM     29  O   UNL     1     109.426 132.469 135.423  0.00  0.00    +0.000 OA
ATOM     30  O   UNL     1     107.401 130.571 136.101  0.00  0.00    +0.000 OA
ATOM     31  C   UNL     1     108.414 131.520 135.762  0.00  0.00    +0.000 C 
ATOM     32  C   UNL     1     109.205 131.753 135.767  0.00  0.00    +0.000 C 
ATOM     33  C   UNL     1     108.192 130.803 136.107  0.00  0.00    +0.000 C 
ATOM     34  C   UNL     1     109.775 131.270 136.117  0.00  0.00    +0.000 C 
ATOM     35  C   UNL     1     108.763 130.320 136.456  0.00  0.00    +0.000 C 
BRANCH  34  37
ATOM     36  O   UNL     1     110.924 131.735 136.828  0.00  0.00    +0.000 OA
ATOM     37  C   UNL     1     110.566 131.503 136.122  0.00  0.00    +0.000 C 
ENDBRANCH  34  37
ENDBRANCH  26  35
ENDBRANCH   4  26
TORSDOF 7
ENDMDL
