MODEL 1
REMARK VINA RESULT:     -10.5      0.000      0.000
REMARK  Name = 44258971
REMARK  7 active torsions:
REMARK  status: ('A' for Active; 'I' for Inactive)
REMARK    1  A    between atoms: O_3  and  C_16
REMARK    2  A    between atoms: O_3  and  C_30
REMARK    3  A    between atoms: O_4  and  C_20
REMARK    4  A    between atoms: O_4  and  C_28
REMARK    5  A    between atoms: O_7  and  C_25
REMARK    6  A    between atoms: O_7  and  C_29
REMARK    7  A    between atoms: C_33  and  C_38
REMARK                            x       y       z     vdW  Elec       q    Type
REMARK                         _______ _______ _______ _____ _____    ______ ____
ROOT
ATOM      1  O   UNL     1     113.467 126.264 138.734  0.00  0.00    +0.000 OA
ATOM      2  O   UNL     1     111.068 125.817 138.323  0.00  0.00    +0.000 OA
ATOM      3  O   UNL     1     110.713 126.397 139.596  0.00  0.00    +0.000 OA
ATOM      4  C   UNL     1     112.430 125.751 137.896  0.00  0.00    +0.000 A 
ATOM      5  C   UNL     1     112.585 127.084 140.616  0.00  0.00    +0.000 A 
ATOM      6  C   UNL     1     112.105 126.330 139.162  0.00  0.00    +0.000 A 
ATOM      7  C   UNL     1     111.867 125.966 138.461  0.00  0.00    +0.000 A 
ATOM      8  C   UNL     1     113.229 125.900 138.033  0.00  0.00    +0.000 A 
ATOM      9  C   UNL     1     112.906 126.479 139.299  0.00  0.00    +0.000 A 
ATOM     10  C   UNL     1     113.166 126.857 140.025  0.00  0.00    +0.000 A 
ATOM     11  C   UNL     1     111.752 126.929 140.473  0.00  0.00    +0.000 A 
ATOM     12  C   UNL     1     111.511 126.550 139.741  0.00  0.00    +0.000 A 
ENDROOT
BRANCH   8  14
ATOM     13  O   UNL     1     115.476 125.038 135.775  0.00  0.00    +0.000 OA
ATOM     14  C   UNL     1     113.791 125.684 137.468  0.00  0.00    +0.000 A 
ATOM     15  C   UNL     1     114.111 126.255 136.965  0.00  0.00    +0.000 A 
ATOM     16  C   UNL     1     114.033 124.898 137.407  0.00  0.00    +0.000 A 
ATOM     17  C   UNL     1     114.672 126.040 136.401  0.00  0.00    +0.000 A 
ATOM     18  C   UNL     1     114.596 124.683 136.842  0.00  0.00    +0.000 A 
ATOM     19  C   UNL     1     114.915 125.253 136.339  0.00  0.00    +0.000 A 
ENDBRANCH   8  14
BRANCH   4  20
ATOM     20  O   UNL     1     112.192 125.387 137.194  0.00  0.00    +0.000 OA
BRANCH  20  28
ATOM     21  O   UNL     1     111.680 126.597 136.633  0.00  0.00    +0.000 OA
ATOM     22  O   UNL     1     110.092 125.290 135.260  0.00  0.00    +0.000 OA
ATOM     23  O   UNL     1     111.132 124.515 136.279  0.00  0.00    +0.000 OA
ATOM     24  C   UNL     1     110.630 126.549 135.666  0.00  0.00    +0.000 C 
ATOM     25  C   UNL     1     110.621 125.725 135.717  0.00  0.00    +0.000 C 
ATOM     26  C   UNL     1     111.141 125.339 136.227  0.00  0.00    +0.000 C 
ATOM     27  C   UNL     1     111.160 126.985 136.124  0.00  0.00    +0.000 C 
ATOM     28  C   UNL     1     111.671 125.775 136.685  0.00  0.00    +0.000 C 
ATOM     29  C   UNL     1     111.169 127.808 136.072  0.00  0.00    +0.000 C 
BRANCH  24  30
ATOM     30  O   UNL     1     110.110 126.936 135.156  0.00  0.00    +0.000 OA
BRANCH  30  32
ATOM     31  O   UNL     1     108.866 126.799 135.845  0.00  0.00    +0.000 OA
ATOM     32  C   UNL     1     109.416 127.270 135.450  0.00  0.00    +0.000 C 
ATOM     33  C   UNL     1     109.271 128.076 135.350  0.00  0.00    +0.000 C 
ENDBRANCH  30  32
ENDBRANCH  24  30
ENDBRANCH  20  28
ENDBRANCH   4  20
BRANCH   5  34
ATOM     34  O   UNL     1     112.827 127.448 141.316  0.00  0.00    +0.000 OA
BRANCH  34  43
ATOM     35  O   UNL     1     113.237 128.713 140.794  0.00  0.00    +0.000 OA
ATOM     36  O   UNL     1     112.102 129.857 142.673  0.00  0.00    +0.000 OA
ATOM     37  O   UNL     1     112.891 130.741 141.524  0.00  0.00    +0.000 OA
ATOM     38  O   UNL     1     112.071 128.210 142.568  0.00  0.00    +0.000 OA
ATOM     39  C   UNL     1     112.481 129.476 142.046  0.00  0.00    +0.000 C 
ATOM     40  C   UNL     1     112.875 129.918 141.472  0.00  0.00    +0.000 C 
ATOM     41  C   UNL     1     112.465 128.652 141.994  0.00  0.00    +0.000 C 
ATOM     42  C   UNL     1     113.253 129.536 140.846  0.00  0.00    +0.000 C 
ATOM     43  C   UNL     1     112.843 128.271 141.368  0.00  0.00    +0.000 C 
ATOM     44  C   UNL     1     113.647 129.978 140.271  0.00  0.00    +0.000 C 
ENDBRANCH  34  43
ENDBRANCH   5  34
TORSDOF 7
ENDMDL
MODEL 2
REMARK VINA RESULT:     -10.2      1.941      5.146
REMARK  Name = 44258971
REMARK  7 active torsions:
REMARK  status: ('A' for Active; 'I' for Inactive)
REMARK    1  A    between atoms: O_3  and  C_16
REMARK    2  A    between atoms: O_3  and  C_30
REMARK    3  A    between atoms: O_4  and  C_20
REMARK    4  A    between atoms: O_4  and  C_28
REMARK    5  A    between atoms: O_7  and  C_25
REMARK    6  A    between atoms: O_7  and  C_29
REMARK    7  A    between atoms: C_33  and  C_38
REMARK                            x       y       z     vdW  Elec       q    Type
REMARK                         _______ _______ _______ _____ _____    ______ ____
ROOT
ATOM      1  O   UNL     1     109.818 127.174 137.862  0.00  0.00    +0.000 OA
ATOM      2  O   UNL     1     110.402 125.375 136.266  0.00  0.00    +0.000 OA
ATOM      3  O   UNL     1     109.664 126.030 135.213  0.00  0.00    +0.000 OA
ATOM      4  C   UNL     1     110.479 125.939 137.576  0.00  0.00    +0.000 A 
ATOM      5  C   UNL     1     108.776 127.917 136.030  0.00  0.00    +0.000 A 
ATOM      6  C   UNL     1     109.741 126.609 136.551  0.00  0.00    +0.000 A 
ATOM      7  C   UNL     1     110.207 125.975 136.798  0.00  0.00    +0.000 A 
ATOM      8  C   UNL     1     110.284 126.539 138.108  0.00  0.00    +0.000 A 
ATOM      9  C   UNL     1     109.546 127.210 137.084  0.00  0.00    +0.000 A 
ATOM     10  C   UNL     1     109.062 127.876 136.839  0.00  0.00    +0.000 A 
ATOM     11  C   UNL     1     108.979 127.292 135.476  0.00  0.00    +0.000 A 
ATOM     12  C   UNL     1     109.465 126.634 135.739  0.00  0.00    +0.000 A 
ENDROOT
BRANCH   8  14
ATOM     13  O   UNL     1     111.371 126.399 141.221  0.00  0.00    +0.000 OA
ATOM     14  C   UNL     1     110.556 126.504 138.887  0.00  0.00    +0.000 A 
ATOM     15  C   UNL     1     110.197 125.994 139.427  0.00  0.00    +0.000 A 
ATOM     16  C   UNL     1     111.187 126.979 139.125  0.00  0.00    +0.000 A 
ATOM     17  C   UNL     1     110.468 125.959 140.204  0.00  0.00    +0.000 A 
ATOM     18  C   UNL     1     111.458 126.944 139.904  0.00  0.00    +0.000 A 
ATOM     19  C   UNL     1     111.099 126.434 140.443  0.00  0.00    +0.000 A 
ENDBRANCH   8  14
BRANCH   4  20
ATOM     20  O   UNL     1     110.945 125.305 137.823  0.00  0.00    +0.000 OA
BRANCH  20  28
ATOM     21  O   UNL     1     112.109 125.770 137.137  0.00  0.00    +0.000 OA
ATOM     22  O   UNL     1     112.919 123.441 136.932  0.00  0.00    +0.000 OA
ATOM     23  O   UNL     1     111.485 123.752 137.686  0.00  0.00    +0.000 OA
ATOM     24  C   UNL     1     113.097 124.838 136.692  0.00  0.00    +0.000 C 
ATOM     25  C   UNL     1     112.649 124.217 137.001  0.00  0.00    +0.000 C 
ATOM     26  C   UNL     1     111.932 124.373 137.377  0.00  0.00    +0.000 C 
ATOM     27  C   UNL     1     112.827 125.615 136.760  0.00  0.00    +0.000 C 
ATOM     28  C   UNL     1     111.662 125.150 137.446  0.00  0.00    +0.000 C 
ATOM     29  C   UNL     1     113.274 126.235 136.452  0.00  0.00    +0.000 C 
BRANCH  24  30
ATOM     30  O   UNL     1     113.814 124.682 136.315  0.00  0.00    +0.000 OA
BRANCH  30  32
ATOM     31  O   UNL     1     114.662 124.514 137.452  0.00  0.00    +0.000 OA
ATOM     32  C   UNL     1     114.525 124.832 136.704  0.00  0.00    +0.000 C 
ATOM     33  C   UNL     1     115.102 125.299 136.344  0.00  0.00    +0.000 C 
ENDBRANCH  30  32
ENDBRANCH  24  30
ENDBRANCH  20  28
ENDBRANCH   4  20
BRANCH   5  34
ATOM     34  O   UNL     1     108.311 128.554 135.787  0.00  0.00    +0.000 OA
BRANCH  34  43
ATOM     35  O   UNL     1     109.383 129.308 135.219  0.00  0.00    +0.000 OA
ATOM     36  O   UNL     1     108.276 131.409 135.914  0.00  0.00    +0.000 OA
ATOM     37  O   UNL     1     109.718 131.462 135.113  0.00  0.00    +0.000 OA
ATOM     38  O   UNL     1     107.572 129.955 136.251  0.00  0.00    +0.000 OA
ATOM     39  C   UNL     1     108.645 130.709 135.682  0.00  0.00    +0.000 C 
ATOM     40  C   UNL     1     109.366 130.735 135.282  0.00  0.00    +0.000 C 
ATOM     41  C   UNL     1     108.293 129.981 135.850  0.00  0.00    +0.000 C 
ATOM     42  C   UNL     1     109.735 130.035 135.050  0.00  0.00    +0.000 C 
ATOM     43  C   UNL     1     108.663 129.281 135.619  0.00  0.00    +0.000 C 
ATOM     44  C   UNL     1     110.456 130.061 134.650  0.00  0.00    +0.000 C 
ENDBRANCH  34  43
ENDBRANCH   5  34
TORSDOF 7
ENDMDL
MODEL 3
REMARK VINA RESULT:     -10.1      3.075      5.098
REMARK  Name = 44258971
REMARK  7 active torsions:
REMARK  status: ('A' for Active; 'I' for Inactive)
REMARK    1  A    between atoms: O_3  and  C_16
REMARK    2  A    between atoms: O_3  and  C_30
REMARK    3  A    between atoms: O_4  and  C_20
REMARK    4  A    between atoms: O_4  and  C_28
REMARK    5  A    between atoms: O_7  and  C_25
REMARK    6  A    between atoms: O_7  and  C_29
REMARK    7  A    between atoms: C_33  and  C_38
REMARK                            x       y       z     vdW  Elec       q    Type
REMARK                         _______ _______ _______ _____ _____    ______ ____
ROOT
ATOM      1  O   UNL     1     113.617 128.438 136.858  0.00  0.00    +0.000 OA
ATOM      2  O   UNL     1     111.842 129.599 138.133  0.00  0.00    +0.000 OA
ATOM      3  O   UNL     1     111.476 128.372 138.797  0.00  0.00    +0.000 OA
ATOM      4  C   UNL     1     112.901 129.634 137.174  0.00  0.00    +0.000 A 
ATOM      5  C   UNL     1     112.807 126.731 138.051  0.00  0.00    +0.000 A 
ATOM      6  C   UNL     1     112.558 128.404 137.817  0.00  0.00    +0.000 A 
ATOM      7  C   UNL     1     112.434 129.212 137.708  0.00  0.00    +0.000 A 
ATOM      8  C   UNL     1     113.492 129.246 136.749  0.00  0.00    +0.000 A 
ATOM      9  C   UNL     1     113.151 128.016 137.392  0.00  0.00    +0.000 A 
ATOM     10  C   UNL     1     113.290 127.175 137.496  0.00  0.00    +0.000 A 
ATOM     11  C   UNL     1     112.191 127.135 138.494  0.00  0.00    +0.000 A 
ATOM     12  C   UNL     1     112.066 127.976 138.376  0.00  0.00    +0.000 A 
ENDROOT
BRANCH   8  14
ATOM     13  O   UNL     1     115.359 130.932 134.612  0.00  0.00    +0.000 OA
ATOM     14  C   UNL     1     113.959 129.668 136.214  0.00  0.00    +0.000 A 
ATOM     15  C   UNL     1     114.516 130.210 136.491  0.00  0.00    +0.000 A 
ATOM     16  C   UNL     1     113.869 129.547 135.404  0.00  0.00    +0.000 A 
ATOM     17  C   UNL     1     114.982 130.631 135.958  0.00  0.00    +0.000 A 
ATOM     18  C   UNL     1     114.336 129.969 134.869  0.00  0.00    +0.000 A 
ATOM     19  C   UNL     1     114.892 130.511 135.146  0.00  0.00    +0.000 A 
ENDBRANCH   8  14
BRANCH   4  20
ATOM     20  O   UNL     1     112.776 130.442 137.065  0.00  0.00    +0.000 OA
BRANCH  20  28
ATOM     21  O   UNL     1     111.580 130.289 136.297  0.00  0.00    +0.000 OA
ATOM     22  O   UNL     1     110.702 132.399 137.245  0.00  0.00    +0.000 OA
ATOM     23  O   UNL     1     112.190 131.849 137.697  0.00  0.00    +0.000 OA
ATOM     24  C   UNL     1     110.543 131.268 136.387  0.00  0.00    +0.000 C 
ATOM     25  C   UNL     1     110.995 131.696 136.930  0.00  0.00    +0.000 C 
ATOM     26  C   UNL     1     111.738 131.420 137.155  0.00  0.00    +0.000 C 
ATOM     27  C   UNL     1     110.836 130.564 136.071  0.00  0.00    +0.000 C 
ATOM     28  C   UNL     1     112.031 130.717 136.839  0.00  0.00    +0.000 C 
ATOM     29  C   UNL     1     110.384 130.137 135.530  0.00  0.00    +0.000 C 
BRANCH  24  30
ATOM     30  O   UNL     1     109.799 131.544 136.162  0.00  0.00    +0.000 OA
BRANCH  30  32
ATOM     31  O   UNL     1     108.924 130.624 136.817  0.00  0.00    +0.000 OA
ATOM     32  C   UNL     1     109.143 131.399 136.640  0.00  0.00    +0.000 C 
ATOM     33  C   UNL     1     108.705 132.030 136.942  0.00  0.00    +0.000 C 
ENDBRANCH  30  32
ENDBRANCH  24  30
ENDBRANCH  20  28
ENDBRANCH   4  20
BRANCH   5  34
ATOM     34  O   UNL     1     112.935 125.923 138.157  0.00  0.00    +0.000 OA
BRANCH  34  43
ATOM     35  O   UNL     1     111.874 125.478 137.310  0.00  0.00    +0.000 OA
ATOM     36  O   UNL     1     113.267 123.574 136.563  0.00  0.00    +0.000 OA
ATOM     37  O   UNL     1     111.741 123.764 135.965  0.00  0.00    +0.000 OA
ATOM     38  O   UNL     1     113.864 124.654 137.659  0.00  0.00    +0.000 OA
ATOM     39  C   UNL     1     112.803 124.209 136.812  0.00  0.00    +0.000 C 
ATOM     40  C   UNL     1     112.040 124.304 136.513  0.00  0.00    +0.000 C 
ATOM     41  C   UNL     1     113.101 124.749 137.360  0.00  0.00    +0.000 C 
ATOM     42  C   UNL     1     111.575 124.939 136.762  0.00  0.00    +0.000 C 
ATOM     43  C   UNL     1     112.637 125.384 137.609  0.00  0.00    +0.000 C 
ATOM     44  C   UNL     1     110.812 125.034 136.463  0.00  0.00    +0.000 C 
ENDBRANCH  34  43
ENDBRANCH   5  34
TORSDOF 7
ENDMDL
MODEL 4
REMARK VINA RESULT:     -10.0      1.832      6.145
REMARK  Name = 44258971
REMARK  7 active torsions:
REMARK  status: ('A' for Active; 'I' for Inactive)
REMARK    1  A    between atoms: O_3  and  C_16
REMARK    2  A    between atoms: O_3  and  C_30
REMARK    3  A    between atoms: O_4  and  C_20
REMARK    4  A    between atoms: O_4  and  C_28
REMARK    5  A    between atoms: O_7  and  C_25
REMARK    6  A    between atoms: O_7  and  C_29
REMARK    7  A    between atoms: C_33  and  C_38
REMARK                            x       y       z     vdW  Elec       q    Type
REMARK                         _______ _______ _______ _____ _____    ______ ____
ROOT
ATOM      1  O   UNL     1     112.279 128.492 138.434  0.00  0.00    +0.000 OA
ATOM      2  O   UNL     1     113.667 128.600 140.480  0.00  0.00    +0.000 OA
ATOM      3  O   UNL     1     113.616 127.165 140.625  0.00  0.00    +0.000 OA
ATOM      4  C   UNL     1     113.007 129.257 139.397  0.00  0.00    +0.000 A 
ATOM      5  C   UNL     1     112.397 126.320 138.946  0.00  0.00    +0.000 A 
ATOM      6  C   UNL     1     112.939 127.835 139.517  0.00  0.00    +0.000 A 
ATOM      7  C   UNL     1     113.205 128.564 139.798  0.00  0.00    +0.000 A 
ATOM      8  C   UNL     1     112.544 129.221 138.715  0.00  0.00    +0.000 A 
ATOM      9  C   UNL     1     112.476 127.799 138.835  0.00  0.00    +0.000 A 
ATOM     10  C   UNL     1     112.194 127.045 138.532  0.00  0.00    +0.000 A 
ATOM     11  C   UNL     1     112.879 126.358 139.656  0.00  0.00    +0.000 A 
ATOM     12  C   UNL     1     113.152 127.120 139.943  0.00  0.00    +0.000 A 
ENDROOT
BRANCH   8  14
ATOM     13  O   UNL     1     111.753 131.995 137.111  0.00  0.00    +0.000 OA
ATOM     14  C   UNL     1     112.346 129.915 138.314  0.00  0.00    +0.000 A 
ATOM     15  C   UNL     1     111.582 130.222 138.372  0.00  0.00    +0.000 A 
ATOM     16  C   UNL     1     112.912 130.301 137.855  0.00  0.00    +0.000 A 
ATOM     17  C   UNL     1     111.385 130.915 137.971  0.00  0.00    +0.000 A 
ATOM     18  C   UNL     1     112.714 130.995 137.454  0.00  0.00    +0.000 A 
ATOM     19  C   UNL     1     111.951 131.302 137.512  0.00  0.00    +0.000 A 
ENDBRANCH   8  14
BRANCH   4  20
ATOM     20  O   UNL     1     113.272 129.987 139.678  0.00  0.00    +0.000 OA
BRANCH  20  28
ATOM     21  O   UNL     1     112.340 130.019 140.760  0.00  0.00    +0.000 OA
ATOM     22  O   UNL     1     113.910 131.411 142.071  0.00  0.00    +0.000 OA
ATOM     23  O   UNL     1     114.319 130.915 140.552  0.00  0.00    +0.000 OA
ATOM     24  C   UNL     1     112.658 130.731 141.957  0.00  0.00    +0.000 C 
ATOM     25  C   UNL     1     113.387 130.947 141.634  0.00  0.00    +0.000 C 
ATOM     26  C   UNL     1     113.590 130.699 140.875  0.00  0.00    +0.000 C 
ATOM     27  C   UNL     1     112.135 130.267 141.520  0.00  0.00    +0.000 C 
ATOM     28  C   UNL     1     113.067 130.234 140.438  0.00  0.00    +0.000 C 
ATOM     29  C   UNL     1     111.407 130.051 141.843  0.00  0.00    +0.000 C 
BRANCH  24  30
ATOM     30  O   UNL     1     112.454 130.979 142.717  0.00  0.00    +0.000 OA
BRANCH  30  32
ATOM     31  O   UNL     1     111.590 132.046 142.325  0.00  0.00    +0.000 OA
ATOM     32  C   UNL     1     112.158 131.739 142.837  0.00  0.00    +0.000 C 
ATOM     33  C   UNL     1     112.430 132.193 143.470  0.00  0.00    +0.000 C 
ENDBRANCH  30  32
ENDBRANCH  24  30
ENDBRANCH  20  28
ENDBRANCH   4  20
BRANCH   5  34
ATOM     34  O   UNL     1     112.130 125.593 138.662  0.00  0.00    +0.000 OA
BRANCH  34  43
ATOM     35  O   UNL     1     113.330 125.274 137.955  0.00  0.00    +0.000 OA
ATOM     36  O   UNL     1     112.002 124.094 136.231  0.00  0.00    +0.000 OA
ATOM     37  O   UNL     1     113.646 124.169 136.099  0.00  0.00    +0.000 OA
ATOM     38  O   UNL     1     111.245 124.806 137.513  0.00  0.00    +0.000 OA
ATOM     39  C   UNL     1     112.445 124.487 136.806  0.00  0.00    +0.000 C 
ATOM     40  C   UNL     1     113.267 124.525 136.740  0.00  0.00    +0.000 C 
ATOM     41  C   UNL     1     112.067 124.844 137.447  0.00  0.00    +0.000 C 
ATOM     42  C   UNL     1     113.709 124.918 137.314  0.00  0.00    +0.000 C 
ATOM     43  C   UNL     1     112.509 125.237 138.022  0.00  0.00    +0.000 C 
ATOM     44  C   UNL     1     114.531 124.956 137.248  0.00  0.00    +0.000 C 
ENDBRANCH  34  43
ENDBRANCH   5  34
TORSDOF 7
ENDMDL
MODEL 5
REMARK VINA RESULT:     -10.0      1.550      3.060
REMARK  Name = 44258971
REMARK  7 active torsions:
REMARK  status: ('A' for Active; 'I' for Inactive)
REMARK    1  A    between atoms: O_3  and  C_16
REMARK    2  A    between atoms: O_3  and  C_30
REMARK    3  A    between atoms: O_4  and  C_20
REMARK    4  A    between atoms: O_4  and  C_28
REMARK    5  A    between atoms: O_7  and  C_25
REMARK    6  A    between atoms: O_7  and  C_29
REMARK    7  A    between atoms: C_33  and  C_38
REMARK                            x       y       z     vdW  Elec       q    Type
REMARK                         _______ _______ _______ _____ _____    ______ ____
ROOT
ATOM      1  O   UNL     1     112.926 128.772 138.066  0.00  0.00    +0.000 OA
ATOM      2  O   UNL     1     112.022 126.569 138.741  0.00  0.00    +0.000 OA
ATOM      3  O   UNL     1     112.711 126.644 140.007  0.00  0.00    +0.000 OA
ATOM      4  C   UNL     1     112.128 127.621 137.780  0.00  0.00    +0.000 A 
ATOM      5  C   UNL     1     113.847 128.572 140.091  0.00  0.00    +0.000 A 
ATOM      6  C   UNL     1     112.820 127.720 139.027  0.00  0.00    +0.000 A 
ATOM      7  C   UNL     1     112.324 127.304 138.517  0.00  0.00    +0.000 A 
ATOM      8  C   UNL     1     112.429 128.356 137.555  0.00  0.00    +0.000 A 
ATOM      9  C   UNL     1     113.122 128.455 138.801  0.00  0.00    +0.000 A 
ATOM     10  C   UNL     1     113.640 128.898 139.324  0.00  0.00    +0.000 A 
ATOM     11  C   UNL     1     113.534 127.807 140.326  0.00  0.00    +0.000 A 
ATOM     12  C   UNL     1     113.017 127.379 139.790  0.00  0.00    +0.000 A 
ENDROOT
BRANCH   8  14
ATOM     13  O   UNL     1     111.646 129.626 134.612  0.00  0.00    +0.000 OA
ATOM     14  C   UNL     1     112.233 128.674 136.819  0.00  0.00    +0.000 A 
ATOM     15  C   UNL     1     111.486 129.001 136.697  0.00  0.00    +0.000 A 
ATOM     16  C   UNL     1     112.785 128.664 136.206  0.00  0.00    +0.000 A 
ATOM     17  C   UNL     1     111.290 129.318 135.961  0.00  0.00    +0.000 A 
ATOM     18  C   UNL     1     112.589 128.981 135.470  0.00  0.00    +0.000 A 
ATOM     19  C   UNL     1     111.841 129.309 135.347  0.00  0.00    +0.000 A 
ENDBRANCH   8  14
BRANCH   4  20
ATOM     20  O   UNL     1     111.631 127.205 137.270  0.00  0.00    +0.000 OA
BRANCH  20  28
ATOM     21  O   UNL     1     112.639 126.263 136.898  0.00  0.00    +0.000 OA
ATOM     22  O   UNL     1     110.892 124.565 136.465  0.00  0.00    +0.000 OA
ATOM     23  O   UNL     1     110.466 126.073 136.981  0.00  0.00    +0.000 OA
ATOM     24  C   UNL     1     112.270 124.942 136.495  0.00  0.00    +0.000 C 
ATOM     25  C   UNL     1     111.474 125.130 136.609  0.00  0.00    +0.000 C 
ATOM     26  C   UNL     1     111.262 125.885 136.867  0.00  0.00    +0.000 C 
ATOM     27  C   UNL     1     112.852 125.508 136.640  0.00  0.00    +0.000 C 
ATOM     28  C   UNL     1     111.844 126.451 137.012  0.00  0.00    +0.000 C 
ATOM     29  C   UNL     1     113.647 125.320 136.526  0.00  0.00    +0.000 C 
BRANCH  24  30
ATOM     30  O   UNL     1     112.482 124.188 136.237  0.00  0.00    +0.000 OA
BRANCH  30  32
ATOM     31  O   UNL     1     113.336 123.571 137.201  0.00  0.00    +0.000 OA
ATOM     32  C   UNL     1     112.624 123.589 136.785  0.00  0.00    +0.000 C 
ATOM     33  C   UNL     1     112.055 123.008 136.918  0.00  0.00    +0.000 C 
ENDBRANCH  30  32
ENDBRANCH  24  30
ENDBRANCH  20  28
ENDBRANCH   4  20
BRANCH   5  34
ATOM     34  O   UNL     1     114.344 128.992 140.599  0.00  0.00    +0.000 OA
BRANCH  34  43
ATOM     35  O   UNL     1     113.332 129.642 141.370  0.00  0.00    +0.000 OA
ATOM     36  O   UNL     1     114.684 131.715 141.400  0.00  0.00    +0.000 OA
ATOM     37  O   UNL     1     113.220 131.673 142.161  0.00  0.00    +0.000 OA
ATOM     38  O   UNL     1     115.245 130.374 140.619  0.00  0.00    +0.000 OA
ATOM     39  C   UNL     1     114.233 131.024 141.390  0.00  0.00    +0.000 C 
ATOM     40  C   UNL     1     113.501 131.003 141.770  0.00  0.00    +0.000 C 
ATOM     41  C   UNL     1     114.514 130.353 140.999  0.00  0.00    +0.000 C 
ATOM     42  C   UNL     1     113.051 130.312 141.760  0.00  0.00    +0.000 C 
ATOM     43  C   UNL     1     114.063 129.662 140.990  0.00  0.00    +0.000 C 
ATOM     44  C   UNL     1     112.319 130.291 142.141  0.00  0.00    +0.000 C 
ENDBRANCH  34  43
ENDBRANCH   5  34
TORSDOF 7
ENDMDL
MODEL 6
REMARK VINA RESULT:     -10.0      3.014      5.260
REMARK  Name = 44258971
REMARK  7 active torsions:
REMARK  status: ('A' for Active; 'I' for Inactive)
REMARK    1  A    between atoms: O_3  and  C_16
REMARK    2  A    between atoms: O_3  and  C_30
REMARK    3  A    between atoms: O_4  and  C_20
REMARK    4  A    between atoms: O_4  and  C_28
REMARK    5  A    between atoms: O_7  and  C_25
REMARK    6  A    between atoms: O_7  and  C_29
REMARK    7  A    between atoms: C_33  and  C_38
REMARK                            x       y       z     vdW  Elec       q    Type
REMARK                         _______ _______ _______ _____ _____    ______ ____
ROOT
ATOM      1  O   UNL     1     112.123 128.716 137.397  0.00  0.00    +0.000 OA
ATOM      2  O   UNL     1     109.923 129.812 137.687  0.00  0.00    +0.000 OA
ATOM      3  O   UNL     1     109.326 128.567 138.104  0.00  0.00    +0.000 OA
ATOM      4  C   UNL     1     111.307 129.887 137.337  0.00  0.00    +0.000 A 
ATOM      5  C   UNL     1     110.900 126.973 138.074  0.00  0.00    +0.000 A 
ATOM      6  C   UNL     1     110.740 128.641 137.747  0.00  0.00    +0.000 A 
ATOM      7  C   UNL     1     110.656 129.446 137.590  0.00  0.00    +0.000 A 
ATOM      8  C   UNL     1     112.040 129.521 137.241  0.00  0.00    +0.000 A 
ATOM      9  C   UNL     1     111.474 128.275 137.650  0.00  0.00    +0.000 A 
ATOM     10  C   UNL     1     111.573 127.437 137.810  0.00  0.00    +0.000 A 
ATOM     11  C   UNL     1     110.136 127.354 138.175  0.00  0.00    +0.000 A 
ATOM     12  C   UNL     1     110.056 128.193 138.010  0.00  0.00    +0.000 A 
ENDROOT
BRANCH   8  14
ATOM     13  O   UNL     1     114.639 131.284 136.228  0.00  0.00    +0.000 OA
ATOM     14  C   UNL     1     112.690 129.962 136.987  0.00  0.00    +0.000 A 
ATOM     15  C   UNL     1     112.979 129.869 136.220  0.00  0.00    +0.000 A 
ATOM     16  C   UNL     1     113.051 130.497 137.502  0.00  0.00    +0.000 A 
ATOM     17  C   UNL     1     113.628 130.309 135.967  0.00  0.00    +0.000 A 
ATOM     18  C   UNL     1     113.702 130.938 137.248  0.00  0.00    +0.000 A 
ATOM     19  C   UNL     1     113.990 130.844 136.481  0.00  0.00    +0.000 A 
ENDBRANCH   8  14
BRANCH   4  20
ATOM     20  O   UNL     1     111.223 130.693 137.180  0.00  0.00    +0.000 OA
BRANCH  20  28
ATOM     21  O   UNL     1     110.523 130.483 135.953  0.00  0.00    +0.000 OA
ATOM     22  O   UNL     1     109.361 132.648 136.246  0.00  0.00    +0.000 OA
ATOM     23  O   UNL     1     110.449 132.137 137.376  0.00  0.00    +0.000 OA
ATOM     24  C   UNL     1     109.591 131.461 135.485  0.00  0.00    +0.000 C 
ATOM     25  C   UNL     1     109.748 131.927 136.148  0.00  0.00    +0.000 C 
ATOM     26  C   UNL     1     110.292 131.670 136.713  0.00  0.00    +0.000 C 
ATOM     27  C   UNL     1     109.979 130.739 135.387  0.00  0.00    +0.000 C 
ATOM     28  C   UNL     1     110.679 130.949 136.615  0.00  0.00    +0.000 C 
ATOM     29  C   UNL     1     109.822 130.274 134.725  0.00  0.00    +0.000 C 
BRANCH  24  30
ATOM     30  O   UNL     1     109.048 131.717 134.920  0.00  0.00    +0.000 OA
BRANCH  30  32
ATOM     31  O   UNL     1     107.958 130.892 135.336  0.00  0.00    +0.000 OA
ATOM     32  C   UNL     1     108.240 131.612 135.047  0.00  0.00    +0.000 C 
ATOM     33  C   UNL     1     107.713 132.226 134.887  0.00  0.00    +0.000 C 
ENDBRANCH  30  32
ENDBRANCH  24  30
ENDBRANCH  20  28
ENDBRANCH   4  20
BRANCH   5  34
ATOM     34  O   UNL     1     110.987 126.167 138.230  0.00  0.00    +0.000 OA
BRANCH  34  43
ATOM     35  O   UNL     1     110.748 125.759 136.881  0.00  0.00    +0.000 OA
ATOM     36  O   UNL     1     112.247 123.816 137.202  0.00  0.00    +0.000 OA
ATOM     37  O   UNL     1     111.508 124.057 135.746  0.00  0.00    +0.000 OA
ATOM     38  O   UNL     1     111.987 124.872 138.443  0.00  0.00    +0.000 OA
ATOM     39  C   UNL     1     111.748 124.464 137.095  0.00  0.00    +0.000 C 
ATOM     40  C   UNL     1     111.378 124.584 136.367  0.00  0.00    +0.000 C 
ATOM     41  C   UNL     1     111.617 124.992 137.716  0.00  0.00    +0.000 C 
ATOM     42  C   UNL     1     110.878 125.232 136.260  0.00  0.00    +0.000 C 
ATOM     43  C   UNL     1     111.117 125.640 137.609  0.00  0.00    +0.000 C 
ATOM     44  C   UNL     1     110.508 125.352 135.533  0.00  0.00    +0.000 C 
ENDBRANCH  34  43
ENDBRANCH   5  34
TORSDOF 7
ENDMDL
MODEL 7
REMARK VINA RESULT:      -9.9      3.195      5.024
REMARK  Name = 44258971
REMARK  7 active torsions:
REMARK  status: ('A' for Active; 'I' for Inactive)
REMARK    1  A    between atoms: O_3  and  C_16
REMARK    2  A    between atoms: O_3  and  C_30
REMARK    3  A    between atoms: O_4  and  C_20
REMARK    4  A    between atoms: O_4  and  C_28
REMARK    5  A    between atoms: O_7  and  C_25
REMARK    6  A    between atoms: O_7  and  C_29
REMARK    7  A    between atoms: C_33  and  C_38
REMARK                            x       y       z     vdW  Elec       q    Type
REMARK                         _______ _______ _______ _____ _____    ______ ____
ROOT
ATOM      1  O   UNL     1     112.050 130.429 136.678  0.00  0.00    +0.000 OA
ATOM      2  O   UNL     1     111.496 128.383 137.956  0.00  0.00    +0.000 OA
ATOM      3  O   UNL     1     110.217 128.934 138.336  0.00  0.00    +0.000 OA
ATOM      4  C   UNL     1     112.403 129.122 137.135  0.00  0.00    +0.000 A 
ATOM      5  C   UNL     1     110.023 130.977 137.440  0.00  0.00    +0.000 A 
ATOM      6  C   UNL     1     111.143 129.690 137.498  0.00  0.00    +0.000 A 
ATOM      7  C   UNL     1     111.680 129.065 137.530  0.00  0.00    +0.000 A 
ATOM      8  C   UNL     1     112.588 129.804 136.710  0.00  0.00    +0.000 A 
ATOM      9  C   UNL     1     111.328 130.373 137.072  0.00  0.00    +0.000 A 
ATOM     10  C   UNL     1     110.777 131.030 137.031  0.00  0.00    +0.000 A 
ATOM     11  C   UNL     1     109.830 130.267 137.883  0.00  0.00    +0.000 A 
ATOM     12  C   UNL     1     110.394 129.620 137.913  0.00  0.00    +0.000 A 
ENDROOT
BRANCH   8  14
ATOM     13  O   UNL     1     115.478 130.029 135.132  0.00  0.00    +0.000 OA
ATOM     14  C   UNL     1     113.311 129.860 136.315  0.00  0.00    +0.000 A 
ATOM     15  C   UNL     1     113.997 130.045 136.735  0.00  0.00    +0.000 A 
ATOM     16  C   UNL     1     113.347 129.731 135.501  0.00  0.00    +0.000 A 
ATOM     17  C   UNL     1     114.718 130.102 136.340  0.00  0.00    +0.000 A 
ATOM     18  C   UNL     1     114.070 129.787 135.107  0.00  0.00    +0.000 A 
ATOM     19  C   UNL     1     114.756 129.973 135.526  0.00  0.00    +0.000 A 
ENDBRANCH   8  14
BRANCH   4  20
ATOM     20  O   UNL     1     112.941 128.496 137.167  0.00  0.00    +0.000 OA
BRANCH  20  28
ATOM     21  O   UNL     1     112.188 127.675 136.272  0.00  0.00    +0.000 OA
ATOM     22  O   UNL     1     113.116 125.651 137.349  0.00  0.00    +0.000 OA
ATOM     23  O   UNL     1     113.560 127.146 137.885  0.00  0.00    +0.000 OA
ATOM     24  C   UNL     1     112.276 126.252 136.362  0.00  0.00    +0.000 C 
ATOM     25  C   UNL     1     112.807 126.325 136.990  0.00  0.00    +0.000 C 
ATOM     26  C   UNL     1     113.028 127.073 137.258  0.00  0.00    +0.000 C 
ATOM     27  C   UNL     1     111.966 126.927 136.003  0.00  0.00    +0.000 C 
ATOM     28  C   UNL     1     112.719 127.748 136.899  0.00  0.00    +0.000 C 
ATOM     29  C   UNL     1     111.436 126.854 135.376  0.00  0.00    +0.000 C 
BRANCH  24  30
ATOM     30  O   UNL     1     112.055 125.504 136.095  0.00  0.00    +0.000 OA
BRANCH  30  32
ATOM     31  O   UNL     1     110.760 125.401 136.689  0.00  0.00    +0.000 OA
ATOM     32  C   UNL     1     111.493 125.067 136.509  0.00  0.00    +0.000 C 
ATOM     33  C   UNL     1     111.661 124.294 136.744  0.00  0.00    +0.000 C 
ENDBRANCH  30  32
ENDBRANCH  24  30
ENDBRANCH  20  28
ENDBRANCH   4  20
BRANCH   5  34
ATOM     34  O   UNL     1     109.488 131.604 137.406  0.00  0.00    +0.000 OA
BRANCH  34  43
ATOM     35  O   UNL     1     109.183 131.594 136.010  0.00  0.00    +0.000 OA
ATOM     36  O   UNL     1     106.776 131.844 136.533  0.00  0.00    +0.000 OA
ATOM     37  O   UNL     1     107.274 131.750 134.962  0.00  0.00    +0.000 OA
ATOM     38  O   UNL     1     107.884 131.771 137.754  0.00  0.00    +0.000 OA
ATOM     39  C   UNL     1     107.578 131.760 136.358  0.00  0.00    +0.000 C 
ATOM     40  C   UNL     1     107.827 131.714 135.573  0.00  0.00    +0.000 C 
ATOM     41  C   UNL     1     108.133 131.724 136.969  0.00  0.00    +0.000 C 
ATOM     42  C   UNL     1     108.629 131.631 135.399  0.00  0.00    +0.000 C 
ATOM     43  C   UNL     1     108.935 131.641 136.795  0.00  0.00    +0.000 C 
ATOM     44  C   UNL     1     108.878 131.584 134.613  0.00  0.00    +0.000 C 
ENDBRANCH  34  43
ENDBRANCH   5  34
TORSDOF 7
ENDMDL
MODEL 8
REMARK VINA RESULT:      -9.9      1.673      5.201
REMARK  Name = 44258971
REMARK  7 active torsions:
REMARK  status: ('A' for Active; 'I' for Inactive)
REMARK    1  A    between atoms: O_3  and  C_16
REMARK    2  A    between atoms: O_3  and  C_30
REMARK    3  A    between atoms: O_4  and  C_20
REMARK    4  A    between atoms: O_4  and  C_28
REMARK    5  A    between atoms: O_7  and  C_25
REMARK    6  A    between atoms: O_7  and  C_29
REMARK    7  A    between atoms: C_33  and  C_38
REMARK                            x       y       z     vdW  Elec       q    Type
REMARK                         _______ _______ _______ _____ _____    ______ ____
ROOT
ATOM      1  O   UNL     1     111.943 126.590 136.225  0.00  0.00    +0.000 OA
ATOM      2  O   UNL     1     113.357 127.909 137.769  0.00  0.00    +0.000 OA
ATOM      3  O   UNL     1     112.924 129.142 137.158  0.00  0.00    +0.000 OA
ATOM      4  C   UNL     1     112.873 126.646 137.309  0.00  0.00    +0.000 A 
ATOM      5  C   UNL     1     111.483 128.657 135.513  0.00  0.00    +0.000 A 
ATOM      6  C   UNL     1     112.427 127.853 136.686  0.00  0.00    +0.000 A 
ATOM      7  C   UNL     1     112.886 127.470 137.255  0.00  0.00    +0.000 A 
ATOM      8  C   UNL     1     112.401 126.207 136.794  0.00  0.00    +0.000 A 
ATOM      9  C   UNL     1     111.955 127.413 136.171  0.00  0.00    +0.000 A 
ATOM     10  C   UNL     1     111.474 127.800 135.574  0.00  0.00    +0.000 A 
ATOM     11  C   UNL     1     111.974 129.115 136.049  0.00  0.00    +0.000 A 
ATOM     12  C   UNL     1     112.449 128.710 136.639  0.00  0.00    +0.000 A 
ENDROOT
BRANCH   8  14
ATOM     13  O   UNL     1     112.351 122.914 137.011  0.00  0.00    +0.000 OA
ATOM     14  C   UNL     1     112.389 125.383 136.849  0.00  0.00    +0.000 A 
ATOM     15  C   UNL     1     111.733 125.001 137.173  0.00  0.00    +0.000 A 
ATOM     16  C   UNL     1     113.032 124.942 136.579  0.00  0.00    +0.000 A 
ATOM     17  C   UNL     1     111.721 124.178 137.227  0.00  0.00    +0.000 A 
ATOM     18  C   UNL     1     113.019 124.118 136.633  0.00  0.00    +0.000 A 
ATOM     19  C   UNL     1     112.363 123.736 136.957  0.00  0.00    +0.000 A 
ENDBRANCH   8  14
BRANCH   4  20
ATOM     20  O   UNL     1     113.332 126.263 137.878  0.00  0.00    +0.000 OA
BRANCH  20  28
ATOM     21  O   UNL     1     112.473 126.597 138.970  0.00  0.00    +0.000 OA
ATOM     22  O   UNL     1     114.424 126.642 140.491  0.00  0.00    +0.000 OA
ATOM     23  O   UNL     1     114.633 126.293 138.892  0.00  0.00    +0.000 OA
ATOM     24  C   UNL     1     113.018 126.786 140.277  0.00  0.00    +0.000 C 
ATOM     25  C   UNL     1     113.774 126.627 139.984  0.00  0.00    +0.000 C 
ATOM     26  C   UNL     1     113.877 126.452 139.185  0.00  0.00    +0.000 C 
ATOM     27  C   UNL     1     112.368 126.772 139.770  0.00  0.00    +0.000 C 
ATOM     28  C   UNL     1     113.227 126.437 138.678  0.00  0.00    +0.000 C 
ATOM     29  C   UNL     1     111.614 126.931 140.062  0.00  0.00    +0.000 C 
BRANCH  24  30
ATOM     30  O   UNL     1     112.915 126.961 141.076  0.00  0.00    +0.000 OA
BRANCH  30  32
ATOM     31  O   UNL     1     113.421 128.296 141.127  0.00  0.00    +0.000 OA
ATOM     32  C   UNL     1     112.839 127.744 141.321  0.00  0.00    +0.000 C 
ATOM     33  C   UNL     1     112.182 127.977 141.761  0.00  0.00    +0.000 C 
ENDBRANCH  30  32
ENDBRANCH  24  30
ENDBRANCH  20  28
ENDBRANCH   4  20
BRANCH   5  34
ATOM     34  O   UNL     1     111.023 129.037 134.943  0.00  0.00    +0.000 OA
BRANCH  34  43
ATOM     35  O   UNL     1     109.730 128.721 135.464  0.00  0.00    +0.000 OA
ATOM     36  O   UNL     1     108.968 131.024 134.970  0.00  0.00    +0.000 OA
ATOM     37  O   UNL     1     107.930 129.940 135.656  0.00  0.00    +0.000 OA
ATOM     38  O   UNL     1     110.515 130.571 134.613  0.00  0.00    +0.000 OA
ATOM     39  C   UNL     1     109.222 130.256 135.135  0.00  0.00    +0.000 C 
ATOM     40  C   UNL     1     108.703 129.714 135.478  0.00  0.00    +0.000 C 
ATOM     41  C   UNL     1     109.996 130.030 134.956  0.00  0.00    +0.000 C 
ATOM     42  C   UNL     1     108.957 128.947 135.643  0.00  0.00    +0.000 C 
ATOM     43  C   UNL     1     110.250 129.262 135.121  0.00  0.00    +0.000 C 
ATOM     44  C   UNL     1     108.438 128.405 135.986  0.00  0.00    +0.000 C 
ENDBRANCH  34  43
ENDBRANCH   5  34
TORSDOF 7
ENDMDL
MODEL 9
REMARK VINA RESULT:      -9.8      2.752      5.580
REMARK  Name = 44258971
REMARK  7 active torsions:
REMARK  status: ('A' for Active; 'I' for Inactive)
REMARK    1  A    between atoms: O_3  and  C_16
REMARK    2  A    between atoms: O_3  and  C_30
REMARK    3  A    between atoms: O_4  and  C_20
REMARK    4  A    between atoms: O_4  and  C_28
REMARK    5  A    between atoms: O_7  and  C_25
REMARK    6  A    between atoms: O_7  and  C_29
REMARK    7  A    between atoms: C_33  and  C_38
REMARK                            x       y       z     vdW  Elec       q    Type
REMARK                         _______ _______ _______ _____ _____    ______ ____
ROOT
ATOM      1  O   UNL     1     110.974 128.512 137.415  0.00  0.00    +0.000 OA
ATOM      2  O   UNL     1     111.441 129.263 139.727  0.00  0.00    +0.000 OA
ATOM      3  O   UNL     1     110.273 130.109 139.718  0.00  0.00    +0.000 OA
ATOM      4  C   UNL     1     111.789 128.472 138.589  0.00  0.00    +0.000 A 
ATOM      5  C   UNL     1     109.259 129.909 137.730  0.00  0.00    +0.000 A 
ATOM      6  C   UNL     1     110.626 129.303 138.554  0.00  0.00    +0.000 A 
ATOM      7  C   UNL     1     111.285 129.013 138.957  0.00  0.00    +0.000 A 
ATOM      8  C   UNL     1     111.634 128.222 137.818  0.00  0.00    +0.000 A 
ATOM      9  C   UNL     1     110.471 129.052 137.782  0.00  0.00    +0.000 A 
ATOM     10  C   UNL     1     109.788 129.347 137.353  0.00  0.00    +0.000 A 
ATOM     11  C   UNL     1     109.421 130.170 138.533  0.00  0.00    +0.000 A 
ATOM     12  C   UNL     1     110.109 129.864 138.947  0.00  0.00    +0.000 A 
ENDROOT
BRANCH   8  14
ATOM     13  O   UNL     1     113.648 126.061 136.349  0.00  0.00    +0.000 OA
ATOM     14  C   UNL     1     112.138 127.682 137.451  0.00  0.00    +0.000 A 
ATOM     15  C   UNL     1     112.649 127.934 136.854  0.00  0.00    +0.000 A 
ATOM     16  C   UNL     1     112.130 126.889 137.680  0.00  0.00    +0.000 A 
ATOM     17  C   UNL     1     113.152 127.394 136.487  0.00  0.00    +0.000 A 
ATOM     18  C   UNL     1     112.634 126.349 137.312  0.00  0.00    +0.000 A 
ATOM     19  C   UNL     1     113.145 126.601 136.716  0.00  0.00    +0.000 A 
ENDBRANCH   8  14
BRANCH   4  20
ATOM     20  O   UNL     1     112.448 128.183 138.992  0.00  0.00    +0.000 OA
BRANCH  20  28
ATOM     21  O   UNL     1     113.209 129.380 138.821  0.00  0.00    +0.000 OA
ATOM     22  O   UNL     1     114.424 128.909 140.924  0.00  0.00    +0.000 OA
ATOM     23  O   UNL     1     113.259 127.868 140.394  0.00  0.00    +0.000 OA
ATOM     24  C   UNL     1     114.197 129.744 139.787  0.00  0.00    +0.000 C 
ATOM     25  C   UNL     1     114.019 129.066 140.223  0.00  0.00    +0.000 C 
ATOM     26  C   UNL     1     113.436 128.546 139.958  0.00  0.00    +0.000 C 
ATOM     27  C   UNL     1     113.792 129.901 139.085  0.00  0.00    +0.000 C 
ATOM     28  C   UNL     1     113.031 128.703 139.256  0.00  0.00    +0.000 C 
ATOM     29  C   UNL     1     113.970 130.578 138.650  0.00  0.00    +0.000 C 
BRANCH  24  30
ATOM     30  O   UNL     1     114.780 130.263 140.052  0.00  0.00    +0.000 OA
BRANCH  30  32
ATOM     31  O   UNL     1     113.817 131.112 140.679  0.00  0.00    +0.000 OA
ATOM     32  C   UNL     1     114.594 130.844 140.607  0.00  0.00    +0.000 C 
ATOM     33  C   UNL     1     115.184 131.157 141.091  0.00  0.00    +0.000 C 
ENDBRANCH  30  32
ENDBRANCH  24  30
ENDBRANCH  20  28
ENDBRANCH   4  20
BRANCH   5  34
ATOM     34  O   UNL     1     108.601 130.197 137.324  0.00  0.00    +0.000 OA
BRANCH  34  43
ATOM     35  O   UNL     1     109.222 131.418 136.917  0.00  0.00    +0.000 OA
ATOM     36  O   UNL     1     107.895 131.399 134.828  0.00  0.00    +0.000 OA
ATOM     37  O   UNL     1     108.959 132.626 135.119  0.00  0.00    +0.000 OA
ATOM     38  O   UNL     1     107.717 130.184 135.931  0.00  0.00    +0.000 OA
ATOM     39  C   UNL     1     108.338 131.405 135.525  0.00  0.00    +0.000 C 
ATOM     40  C   UNL     1     108.870 132.019 135.670  0.00  0.00    +0.000 C 
ATOM     41  C   UNL     1     108.249 130.798 136.077  0.00  0.00    +0.000 C 
ATOM     42  C   UNL     1     109.312 132.025 136.366  0.00  0.00    +0.000 C 
ATOM     43  C   UNL     1     108.691 130.804 136.773  0.00  0.00    +0.000 C 
ATOM     44  C   UNL     1     109.844 132.639 136.512  0.00  0.00    +0.000 C 
ENDBRANCH  34  43
ENDBRANCH   5  34
TORSDOF 7
ENDMDL
MODEL 10
REMARK VINA RESULT:      -9.7      1.726      2.538
REMARK  Name = 44258971
REMARK  7 active torsions:
REMARK  status: ('A' for Active; 'I' for Inactive)
REMARK    1  A    between atoms: O_3  and  C_16
REMARK    2  A    between atoms: O_3  and  C_30
REMARK    3  A    between atoms: O_4  and  C_20
REMARK    4  A    between atoms: O_4  and  C_28
REMARK    5  A    between atoms: O_7  and  C_25
REMARK    6  A    between atoms: O_7  and  C_29
REMARK    7  A    between atoms: C_33  and  C_38
REMARK                            x       y       z     vdW  Elec       q    Type
REMARK                         _______ _______ _______ _____ _____    ______ ____
ROOT
ATOM      1  O   UNL     1     113.007 126.479 139.015  0.00  0.00    +0.000 OA
ATOM      2  O   UNL     1     113.201 128.705 137.952  0.00  0.00    +0.000 OA
ATOM      3  O   UNL     1     112.902 129.360 139.203  0.00  0.00    +0.000 OA
ATOM      4  C   UNL     1     113.254 127.281 137.858  0.00  0.00    +0.000 A 
ATOM      5  C   UNL     1     112.578 127.793 140.770  0.00  0.00    +0.000 A 
ATOM      6  C   UNL     1     112.955 127.904 139.109  0.00  0.00    +0.000 A 
ATOM      7  C   UNL     1     113.136 127.963 138.307  0.00  0.00    +0.000 A 
ATOM      8  C   UNL     1     113.189 126.539 138.212  0.00  0.00    +0.000 A 
ATOM      9  C   UNL     1     112.890 127.161 139.464  0.00  0.00    +0.000 A 
ATOM     10  C   UNL     1     112.701 127.085 140.298  0.00  0.00    +0.000 A 
ATOM     11  C   UNL     1     112.646 128.566 140.401  0.00  0.00    +0.000 A 
ATOM     12  C   UNL     1     112.835 128.621 139.565  0.00  0.00    +0.000 A 
ENDROOT
BRANCH   8  14
ATOM     13  O   UNL     1     113.657 123.809 136.417  0.00  0.00    +0.000 OA
ATOM     14  C   UNL     1     113.306 125.856 137.763  0.00  0.00    +0.000 A 
ATOM     15  C   UNL     1     114.068 125.639 137.533  0.00  0.00    +0.000 A 
ATOM     16  C   UNL     1     112.661 125.390 137.545  0.00  0.00    +0.000 A 
ATOM     17  C   UNL     1     114.185 124.957 137.084  0.00  0.00    +0.000 A 
ATOM     18  C   UNL     1     112.778 124.707 137.096  0.00  0.00    +0.000 A 
ATOM     19  C   UNL     1     113.540 124.491 136.866  0.00  0.00    +0.000 A 
ENDBRANCH   8  14
BRANCH   4  20
ATOM     20  O   UNL     1     113.435 127.340 137.055  0.00  0.00    +0.000 OA
BRANCH  20  28
ATOM     21  O   UNL     1     112.102 127.649 136.645  0.00  0.00    +0.000 OA
ATOM     22  O   UNL     1     112.990 129.039 134.801  0.00  0.00    +0.000 OA
ATOM     23  O   UNL     1     114.028 128.267 135.825  0.00  0.00    +0.000 OA
ATOM     24  C   UNL     1     111.879 128.498 135.518  0.00  0.00    +0.000 C 
ATOM     25  C   UNL     1     112.694 128.576 135.415  0.00  0.00    +0.000 C 
ATOM     26  C   UNL     1     113.212 128.190 135.928  0.00  0.00    +0.000 C 
ATOM     27  C   UNL     1     111.582 128.035 136.133  0.00  0.00    +0.000 C 
ATOM     28  C   UNL     1     112.916 127.726 136.543  0.00  0.00    +0.000 C 
ATOM     29  C   UNL     1     110.768 127.958 136.235  0.00  0.00    +0.000 C 
BRANCH  24  30
ATOM     30  O   UNL     1     111.361 128.885 135.005  0.00  0.00    +0.000 OA
BRANCH  30  32
ATOM     31  O   UNL     1     111.403 130.146 135.674  0.00  0.00    +0.000 OA
ATOM     32  C   UNL     1     110.987 129.580 135.242  0.00  0.00    +0.000 C 
ATOM     33  C   UNL     1     110.196 129.710 135.048  0.00  0.00    +0.000 C 
ENDBRANCH  30  32
ENDBRANCH  24  30
ENDBRANCH  20  28
ENDBRANCH   4  20
BRANCH   5  34
ATOM     34  O   UNL     1     112.397 127.729 141.573  0.00  0.00    +0.000 OA
BRANCH  34  43
ATOM     35  O   UNL     1     111.006 127.430 141.433  0.00  0.00    +0.000 OA
ATOM     36  O   UNL     1     110.500 128.873 143.379  0.00  0.00    +0.000 OA
ATOM     37  O   UNL     1     109.278 128.093 142.590  0.00  0.00    +0.000 OA
ATOM     38  O   UNL     1     112.059 128.691 142.870  0.00  0.00    +0.000 OA
ATOM     39  C   UNL     1     110.669 128.392 142.730  0.00  0.00    +0.000 C 
ATOM     40  C   UNL     1     110.058 128.002 142.336  0.00  0.00    +0.000 C 
ATOM     41  C   UNL     1     111.448 128.301 142.475  0.00  0.00    +0.000 C 
ATOM     42  C   UNL     1     110.227 127.521 141.687  0.00  0.00    +0.000 C 
ATOM     43  C   UNL     1     111.617 127.820 141.827  0.00  0.00    +0.000 C 
ATOM     44  C   UNL     1     109.616 127.131 141.292  0.00  0.00    +0.000 C 
ENDBRANCH  34  43
ENDBRANCH   5  34
TORSDOF 7
ENDMDL
