MODEL 1
REMARK VINA RESULT:     -10.0      0.000      0.000
REMARK  Name = 131835908
REMARK  11 active torsions:
REMARK  status: ('A' for Active; 'I' for Inactive)
REMARK    1  A    between atoms: O_2  and  C_17
REMARK    2  A    between atoms: O_2  and  C_19
REMARK    3  A    between atoms: C_16  and  C_18
REMARK    4  A    between atoms: C_22  and  C_23
REMARK    5  A    between atoms: C_24  and  C_29
REMARK    6  A    between atoms: C_29  and  C_34
REMARK    7  A    between atoms: C_31  and  C_32
REMARK    8  A    between atoms: C_32  and  C_39
REMARK    9  A    between atoms: C_36  and  C_38
REMARK   10  A    between atoms: C_38  and  C_40
REMARK   11  A    between atoms: C_40  and  C_43
REMARK                            x       y       z     vdW  Elec       q    Type
REMARK                         _______ _______ _______ _____ _____    ______ ____
ROOT
ATOM      1  O   UNL     1     112.014 126.007 137.951  0.00  0.00    +0.000 OA
ATOM      2  O   UNL     1     114.188 126.186 139.122  0.00  0.00    +0.000 OA
ATOM      3  O   UNL     1     113.275 124.508 135.797  0.00  0.00    +0.000 OA
ATOM      4  O   UNL     1     114.759 124.630 136.595  0.00  0.00    +0.000 OA
ATOM      5  C   UNL     1     112.063 126.404 138.673  0.00  0.00    +0.000 A 
ATOM      6  C   UNL     1     112.787 126.464 139.063  0.00  0.00    +0.000 A 
ATOM      7  C   UNL     1     112.690 125.669 137.620  0.00  0.00    +0.000 A 
ATOM      8  C   UNL     1     113.415 125.729 138.010  0.00  0.00    +0.000 A 
ATOM      9  C   UNL     1     113.463 126.126 138.731  0.00  0.00    +0.000 A 
ATOM     10  C   UNL     1     112.626 125.258 136.868  0.00  0.00    +0.000 A 
ATOM     11  C   UNL     1     114.126 125.381 137.675  0.00  0.00    +0.000 A 
ATOM     12  C   UNL     1     113.326 124.905 136.518  0.00  0.00    +0.000 A 
ATOM     13  C   UNL     1     114.081 124.967 136.924  0.00  0.00    +0.000 A 
ENDROOT
BRANCH   5  18
ATOM     14  O   UNL     1     111.001 125.466 139.520  0.00  0.00    +0.000 OA
ATOM     15  C   UNL     1     110.034 127.417 139.667  0.00  0.00    +0.000 A 
ATOM     16  C   UNL     1     110.180 126.611 139.759  0.00  0.00    +0.000 A 
ATOM     17  C   UNL     1     110.565 127.887 139.243  0.00  0.00    +0.000 A 
ATOM     18  C   UNL     1     111.386 126.742 139.004  0.00  0.00    +0.000 A 
ATOM     19  C   UNL     1     110.856 126.273 139.427  0.00  0.00    +0.000 A 
ATOM     20  C   UNL     1     111.241 127.549 138.912  0.00  0.00    +0.000 A 
BRANCH  15  21
ATOM     21  O   UNL     1     109.359 127.754 139.998  0.00  0.00    +0.000 OA
BRANCH  21  30
ATOM     22  O   UNL     1     109.917 128.295 141.197  0.00  0.00    +0.000 OA
ATOM     23  O   UNL     1     107.991 127.426 142.486  0.00  0.00    +0.000 OA
ATOM     24  O   UNL     1     109.191 128.256 143.255  0.00  0.00    +0.000 OA
ATOM     25  O   UNL     1     108.075 127.175 140.857  0.00  0.00    +0.000 OA
ATOM     26  C   UNL     1     108.633 127.715 142.056  0.00  0.00    +0.000 C 
ATOM     27  C   UNL     1     109.233 128.131 142.441  0.00  0.00    +0.000 C 
ATOM     28  C   UNL     1     108.674 127.590 141.242  0.00  0.00    +0.000 C 
ATOM     29  C   UNL     1     109.874 128.420 142.011  0.00  0.00    +0.000 C 
ATOM     30  C   UNL     1     109.316 127.879 140.812  0.00  0.00    +0.000 C 
BRANCH  29  33
ATOM     31  O   UNL     1     110.532 129.654 142.307  0.00  0.00    +0.000 OA
ATOM     32  O   UNL     1     111.017 128.434 142.869  0.00  0.00    +0.000 OA
ATOM     33  C   UNL     1     110.475 128.836 142.396  0.00  0.00    +0.000 C 
ENDBRANCH  29  33
ENDBRANCH  21  30
ENDBRANCH  15  21
ENDBRANCH   5  18
BRANCH   6  34
ATOM     34  C   UNL     1     112.836 126.861 139.784  0.00  0.00    +0.000 C 
BRANCH  34  35
ATOM     35  C   UNL     1     113.411 127.440 139.898  0.00  0.00    +0.000 C 
ATOM     36  C   UNL     1     113.660 127.631 140.662  0.00  0.00    +0.000 C 
ATOM     37  C   UNL     1     113.333 127.241 141.312  0.00  0.00    +0.000 C 
BRANCH  36  38
ATOM     38  C   UNL     1     114.235 128.210 140.776  0.00  0.00    +0.000 C 
BRANCH  38  39
ATOM     39  C   UNL     1     114.015 129.001 140.857  0.00  0.00    +0.000 C 
BRANCH  39  40
ATOM     40  C   UNL     1     114.558 129.600 140.697  0.00  0.00    +0.000 C 
ATOM     41  C   UNL     1     114.397 130.376 140.926  0.00  0.00    +0.000 C 
ATOM     42  C   UNL     1     114.941 130.975 140.766  0.00  0.00    +0.000 C 
ATOM     43  C   UNL     1     113.690 130.553 141.314  0.00  0.00    +0.000 C 
ENDBRANCH  39  40
ENDBRANCH  38  39
ENDBRANCH  36  38
ENDBRANCH  34  35
ENDBRANCH   6  34
BRANCH  10  44
ATOM     44  C   UNL     1     111.898 125.203 136.485  0.00  0.00    +0.000 C 
BRANCH  44  45
ATOM     45  C   UNL     1     111.730 125.697 135.846  0.00  0.00    +0.000 C 
ATOM     46  C   UNL     1     110.987 125.668 135.487  0.00  0.00    +0.000 C 
ATOM     47  C   UNL     1     110.819 126.162 134.848  0.00  0.00    +0.000 C 
ATOM     48  C   UNL     1     110.413 125.146 135.767  0.00  0.00    +0.000 C 
ENDBRANCH  44  45
ENDBRANCH  10  44
TORSDOF 11
ENDMDL
MODEL 2
REMARK VINA RESULT:     -10.0      3.209      5.662
REMARK  Name = 131835908
REMARK  11 active torsions:
REMARK  status: ('A' for Active; 'I' for Inactive)
REMARK    1  A    between atoms: O_2  and  C_17
REMARK    2  A    between atoms: O_2  and  C_19
REMARK    3  A    between atoms: C_16  and  C_18
REMARK    4  A    between atoms: C_22  and  C_23
REMARK    5  A    between atoms: C_24  and  C_29
REMARK    6  A    between atoms: C_29  and  C_34
REMARK    7  A    between atoms: C_31  and  C_32
REMARK    8  A    between atoms: C_32  and  C_39
REMARK    9  A    between atoms: C_36  and  C_38
REMARK   10  A    between atoms: C_38  and  C_40
REMARK   11  A    between atoms: C_40  and  C_43
REMARK                            x       y       z     vdW  Elec       q    Type
REMARK                         _______ _______ _______ _____ _____    ______ ____
ROOT
ATOM      1  O   UNL     1     111.218 130.057 137.163  0.00  0.00    +0.000 OA
ATOM      2  O   UNL     1     111.282 128.271 135.451  0.00  0.00    +0.000 OA
ATOM      3  O   UNL     1     108.991 131.328 135.782  0.00  0.00    +0.000 OA
ATOM      4  O   UNL     1     109.035 130.109 134.613  0.00  0.00    +0.000 OA
ATOM      5  C   UNL     1     111.775 129.451 137.220  0.00  0.00    +0.000 A 
ATOM      6  C   UNL     1     111.796 128.856 136.650  0.00  0.00    +0.000 A 
ATOM      7  C   UNL     1     110.682 130.068 136.536  0.00  0.00    +0.000 A 
ATOM      8  C   UNL     1     110.704 129.472 135.965  0.00  0.00    +0.000 A 
ATOM      9  C   UNL     1     111.261 128.867 136.022  0.00  0.00    +0.000 A 
ATOM     10  C   UNL     1     110.107 130.705 136.488  0.00  0.00    +0.000 A 
ATOM     11  C   UNL     1     110.152 129.472 135.306  0.00  0.00    +0.000 A 
ATOM     12  C   UNL     1     109.547 130.721 135.837  0.00  0.00    +0.000 A 
ATOM     13  C   UNL     1     109.569 130.101 135.242  0.00  0.00    +0.000 A 
ENDROOT
BRANCH   5  18
ATOM     14  O   UNL     1     113.116 130.412 137.177  0.00  0.00    +0.000 OA
ATOM     15  C   UNL     1     113.381 129.420 139.103  0.00  0.00    +0.000 A 
ATOM     16  C   UNL     1     113.516 129.910 138.454  0.00  0.00    +0.000 A 
ATOM     17  C   UNL     1     112.710 128.939 139.125  0.00  0.00    +0.000 A 
ATOM     18  C   UNL     1     112.311 129.441 137.848  0.00  0.00    +0.000 A 
ATOM     19  C   UNL     1     112.980 129.921 137.826  0.00  0.00    +0.000 A 
ATOM     20  C   UNL     1     112.175 128.949 138.497  0.00  0.00    +0.000 A 
BRANCH  15  21
ATOM     21  O   UNL     1     113.916 129.409 139.730  0.00  0.00    +0.000 OA
BRANCH  21  30
ATOM     22  O   UNL     1     113.111 129.989 140.758  0.00  0.00    +0.000 OA
ATOM     23  O   UNL     1     115.006 131.435 141.425  0.00  0.00    +0.000 OA
ATOM     24  O   UNL     1     113.570 131.533 142.232  0.00  0.00    +0.000 OA
ATOM     25  O   UNL     1     115.179 130.373 140.175  0.00  0.00    +0.000 OA
ATOM     26  C   UNL     1     114.374 130.953 141.203  0.00  0.00    +0.000 C 
ATOM     27  C   UNL     1     113.657 131.002 141.606  0.00  0.00    +0.000 C 
ATOM     28  C   UNL     1     114.462 130.422 140.577  0.00  0.00    +0.000 C 
ATOM     29  C   UNL     1     113.025 130.520 141.384  0.00  0.00    +0.000 C 
ATOM     30  C   UNL     1     113.830 129.940 140.355  0.00  0.00    +0.000 C 
BRANCH  29  33
ATOM     31  O   UNL     1     111.745 131.129 141.561  0.00  0.00    +0.000 OA
ATOM     32  O   UNL     1     112.151 130.058 142.415  0.00  0.00    +0.000 OA
ATOM     33  C   UNL     1     112.307 130.569 141.787  0.00  0.00    +0.000 C 
ENDBRANCH  29  33
ENDBRANCH  21  30
ENDBRANCH  15  21
ENDBRANCH   5  18
BRANCH   6  34
ATOM     34  C   UNL     1     112.353 128.250 136.706  0.00  0.00    +0.000 C 
BRANCH  34  35
ATOM     35  C   UNL     1     112.140 127.475 136.524  0.00  0.00    +0.000 C 
ATOM     36  C   UNL     1     112.722 126.900 136.415  0.00  0.00    +0.000 C 
ATOM     37  C   UNL     1     113.519 127.102 136.488  0.00  0.00    +0.000 C 
BRANCH  36  38
ATOM     38  C   UNL     1     112.508 126.125 136.233  0.00  0.00    +0.000 C 
BRANCH  38  39
ATOM     39  C   UNL     1     112.801 125.499 136.683  0.00  0.00    +0.000 C 
BRANCH  39  40
ATOM     40  C   UNL     1     112.367 124.801 136.752  0.00  0.00    +0.000 C 
ATOM     41  C   UNL     1     112.739 124.106 136.993  0.00  0.00    +0.000 C 
ATOM     42  C   UNL     1     112.306 123.407 137.061  0.00  0.00    +0.000 C 
ATOM     43  C   UNL     1     113.547 124.109 137.165  0.00  0.00    +0.000 C 
ENDBRANCH  39  40
ENDBRANCH  38  39
ENDBRANCH  36  38
ENDBRANCH  34  35
ENDBRANCH   6  34
BRANCH  10  44
ATOM     44  C   UNL     1     110.092 131.295 137.062  0.00  0.00    +0.000 C 
BRANCH  44  45
ATOM     45  C   UNL     1     110.279 132.073 136.860  0.00  0.00    +0.000 C 
ATOM     46  C   UNL     1     110.291 132.659 137.440  0.00  0.00    +0.000 C 
ATOM     47  C   UNL     1     110.478 133.436 137.238  0.00  0.00    +0.000 C 
ATOM     48  C   UNL     1     110.116 132.467 138.223  0.00  0.00    +0.000 C 
ENDBRANCH  44  45
ENDBRANCH  10  44
TORSDOF 11
ENDMDL
MODEL 3
REMARK VINA RESULT:      -9.9      1.905      3.863
REMARK  Name = 131835908
REMARK  11 active torsions:
REMARK  status: ('A' for Active; 'I' for Inactive)
REMARK    1  A    between atoms: O_2  and  C_17
REMARK    2  A    between atoms: O_2  and  C_19
REMARK    3  A    between atoms: C_16  and  C_18
REMARK    4  A    between atoms: C_22  and  C_23
REMARK    5  A    between atoms: C_24  and  C_29
REMARK    6  A    between atoms: C_29  and  C_34
REMARK    7  A    between atoms: C_31  and  C_32
REMARK    8  A    between atoms: C_32  and  C_39
REMARK    9  A    between atoms: C_36  and  C_38
REMARK   10  A    between atoms: C_38  and  C_40
REMARK   11  A    between atoms: C_40  and  C_43
REMARK                            x       y       z     vdW  Elec       q    Type
REMARK                         _______ _______ _______ _____ _____    ______ ____
ROOT
ATOM      1  O   UNL     1     112.496 126.307 137.995  0.00  0.00    +0.000 OA
ATOM      2  O   UNL     1     110.139 126.963 137.614  0.00  0.00    +0.000 OA
ATOM      3  O   UNL     1     112.267 124.234 135.963  0.00  0.00    +0.000 OA
ATOM      4  O   UNL     1     110.659 124.682 135.703  0.00  0.00    +0.000 OA
ATOM      5  C   UNL     1     112.163 126.924 138.431  0.00  0.00    +0.000 A 
ATOM      6  C   UNL     1     111.378 127.143 138.304  0.00  0.00    +0.000 A 
ATOM      7  C   UNL     1     112.043 125.909 137.432  0.00  0.00    +0.000 A 
ATOM      8  C   UNL     1     111.257 126.128 137.305  0.00  0.00    +0.000 A 
ATOM      9  C   UNL     1     110.925 126.745 137.742  0.00  0.00    +0.000 A 
ATOM     10  C   UNL     1     112.400 125.268 136.985  0.00  0.00    +0.000 A 
ATOM     11  C   UNL     1     110.774 125.721 136.722  0.00  0.00    +0.000 A 
ATOM     12  C   UNL     1     111.933 124.850 136.398  0.00  0.00    +0.000 A 
ATOM     13  C   UNL     1     111.115 125.078 136.265  0.00  0.00    +0.000 A 
ENDROOT
BRANCH   5  18
ATOM     14  O   UNL     1     112.346 126.289 139.944  0.00  0.00    +0.000 OA
ATOM     15  C   UNL     1     113.523 128.118 140.120  0.00  0.00    +0.000 A 
ATOM     16  C   UNL     1     113.161 127.403 140.313  0.00  0.00    +0.000 A 
ATOM     17  C   UNL     1     113.432 128.436 139.364  0.00  0.00    +0.000 A 
ATOM     18  C   UNL     1     112.617 127.322 138.994  0.00  0.00    +0.000 A 
ATOM     19  C   UNL     1     112.708 127.005 139.750  0.00  0.00    +0.000 A 
ATOM     20  C   UNL     1     112.979 128.038 138.801  0.00  0.00    +0.000 A 
BRANCH  15  21
ATOM     21  O   UNL     1     113.976 128.516 140.682  0.00  0.00    +0.000 OA
BRANCH  21  30
ATOM     22  O   UNL     1     112.964 129.193 141.431  0.00  0.00    +0.000 OA
ATOM     23  O   UNL     1     114.266 131.293 141.291  0.00  0.00    +0.000 OA
ATOM     24  O   UNL     1     112.820 131.270 142.086  0.00  0.00    +0.000 OA
ATOM     25  O   UNL     1     114.844 129.916 140.589  0.00  0.00    +0.000 OA
ATOM     26  C   UNL     1     113.832 130.593 141.338  0.00  0.00    +0.000 C 
ATOM     27  C   UNL     1     113.110 130.582 141.735  0.00  0.00    +0.000 C 
ATOM     28  C   UNL     1     114.122 129.905 140.986  0.00  0.00    +0.000 C 
ATOM     29  C   UNL     1     112.676 129.881 141.781  0.00  0.00    +0.000 C 
ATOM     30  C   UNL     1     113.688 129.205 141.033  0.00  0.00    +0.000 C 
BRANCH  29  33
ATOM     31  O   UNL     1     111.903 129.542 142.935  0.00  0.00    +0.000 OA
ATOM     32  O   UNL     1     111.280 130.184 141.821  0.00  0.00    +0.000 OA
ATOM     33  C   UNL     1     111.952 129.870 142.179  0.00  0.00    +0.000 C 
ENDBRANCH  29  33
ENDBRANCH  21  30
ENDBRANCH  15  21
ENDBRANCH   5  18
BRANCH   6  34
ATOM     34  C   UNL     1     111.046 127.759 138.740  0.00  0.00    +0.000 C 
BRANCH  34  35
ATOM     35  C   UNL     1     110.631 128.360 138.356  0.00  0.00    +0.000 C 
ATOM     36  C   UNL     1     110.073 128.805 138.768  0.00  0.00    +0.000 C 
ATOM     37  C   UNL     1     109.928 128.650 139.567  0.00  0.00    +0.000 C 
BRANCH  36  38
ATOM     38  C   UNL     1     109.658 129.406 138.384  0.00  0.00    +0.000 C 
BRANCH  38  39
ATOM     39  C   UNL     1     109.786 130.194 138.592  0.00  0.00    +0.000 C 
BRANCH  39  40
ATOM     40  C   UNL     1     109.389 130.796 138.192  0.00  0.00    +0.000 C 
ATOM     41  C   UNL     1     109.584 131.584 138.333  0.00  0.00    +0.000 C 
ATOM     42  C   UNL     1     109.187 132.187 137.933  0.00  0.00    +0.000 C 
ATOM     43  C   UNL     1     110.178 131.771 138.876  0.00  0.00    +0.000 C 
ENDBRANCH  39  40
ENDBRANCH  38  39
ENDBRANCH  36  38
ENDBRANCH  34  35
ENDBRANCH   6  34
BRANCH  10  44
ATOM     44  C   UNL     1     113.185 125.057 137.118  0.00  0.00    +0.000 C 
BRANCH  44  45
ATOM     45  C   UNL     1     113.764 125.248 136.563  0.00  0.00    +0.000 C 
ATOM     46  C   UNL     1     114.557 125.078 136.718  0.00  0.00    +0.000 C 
ATOM     47  C   UNL     1     115.136 125.270 136.163  0.00  0.00    +0.000 C 
ATOM     48  C   UNL     1     114.770 124.716 137.428  0.00  0.00    +0.000 C 
ENDBRANCH  44  45
ENDBRANCH  10  44
TORSDOF 11
ENDMDL
MODEL 4
REMARK VINA RESULT:      -9.7      1.730      2.015
REMARK  Name = 131835908
REMARK  11 active torsions:
REMARK  status: ('A' for Active; 'I' for Inactive)
REMARK    1  A    between atoms: O_2  and  C_17
REMARK    2  A    between atoms: O_2  and  C_19
REMARK    3  A    between atoms: C_16  and  C_18
REMARK    4  A    between atoms: C_22  and  C_23
REMARK    5  A    between atoms: C_24  and  C_29
REMARK    6  A    between atoms: C_29  and  C_34
REMARK    7  A    between atoms: C_31  and  C_32
REMARK    8  A    between atoms: C_32  and  C_39
REMARK    9  A    between atoms: C_36  and  C_38
REMARK   10  A    between atoms: C_38  and  C_40
REMARK   11  A    between atoms: C_40  and  C_43
REMARK                            x       y       z     vdW  Elec       q    Type
REMARK                         _______ _______ _______ _____ _____    ______ ____
ROOT
ATOM      1  O   UNL     1     111.992 127.080 137.473  0.00  0.00    +0.000 OA
ATOM      2  O   UNL     1     113.499 126.492 139.347  0.00  0.00    +0.000 OA
ATOM      3  O   UNL     1     112.939 124.776 135.964  0.00  0.00    +0.000 OA
ATOM      4  O   UNL     1     113.967 124.375 137.243  0.00  0.00    +0.000 OA
ATOM      5  C   UNL     1     112.009 127.548 138.153  0.00  0.00    +0.000 A 
ATOM      6  C   UNL     1     112.510 127.352 138.777  0.00  0.00    +0.000 A 
ATOM      7  C   UNL     1     112.478 126.415 137.419  0.00  0.00    +0.000 A 
ATOM      8  C   UNL     1     112.981 126.219 138.044  0.00  0.00    +0.000 A 
ATOM      9  C   UNL     1     112.996 126.688 138.722  0.00  0.00    +0.000 A 
ATOM     10  C   UNL     1     112.452 125.936 136.706  0.00  0.00    +0.000 A 
ATOM     11  C   UNL     1     113.492 125.530 137.999  0.00  0.00    +0.000 A 
ATOM     12  C   UNL     1     112.957 125.243 136.644  0.00  0.00    +0.000 A 
ATOM     13  C   UNL     1     113.480 125.039 137.295  0.00  0.00    +0.000 A 
ENDROOT
BRANCH   5  18
ATOM     14  O   UNL     1     110.439 127.385 138.638  0.00  0.00    +0.000 OA
ATOM     15  C   UNL     1     110.549 129.541 138.316  0.00  0.00    +0.000 A 
ATOM     16  C   UNL     1     110.252 128.795 138.504  0.00  0.00    +0.000 A 
ATOM     17  C   UNL     1     111.334 129.623 138.073  0.00  0.00    +0.000 A 
ATOM     18  C   UNL     1     111.522 128.213 138.207  0.00  0.00    +0.000 A 
ATOM     19  C   UNL     1     110.738 128.131 138.449  0.00  0.00    +0.000 A 
ATOM     20  C   UNL     1     111.820 128.959 138.019  0.00  0.00    +0.000 A 
BRANCH  15  21
ATOM     21  O   UNL     1     110.063 130.205 138.370  0.00  0.00    +0.000 OA
BRANCH  21  30
ATOM     22  O   UNL     1     110.320 130.609 139.717  0.00  0.00    +0.000 OA
ATOM     23  O   UNL     1     107.891 130.896 140.093  0.00  0.00    +0.000 OA
ATOM     24  O   UNL     1     108.957 131.205 141.314  0.00  0.00    +0.000 OA
ATOM     25  O   UNL     1     108.444 130.397 138.621  0.00  0.00    +0.000 OA
ATOM     26  C   UNL     1     108.701 130.801 139.968  0.00  0.00    +0.000 C 
ATOM     27  C   UNL     1     109.233 130.954 140.578  0.00  0.00    +0.000 C 
ATOM     28  C   UNL     1     108.977 130.550 139.231  0.00  0.00    +0.000 C 
ATOM     29  C   UNL     1     110.043 130.859 140.452  0.00  0.00    +0.000 C 
ATOM     30  C   UNL     1     109.786 130.455 139.106  0.00  0.00    +0.000 C 
BRANCH  29  33
ATOM     31  O   UNL     1     110.723 130.438 141.636  0.00  0.00    +0.000 OA
ATOM     32  O   UNL     1     110.963 131.740 141.099  0.00  0.00    +0.000 OA
ATOM     33  C   UNL     1     110.577 131.013 141.063  0.00  0.00    +0.000 C 
ENDBRANCH  29  33
ENDBRANCH  21  30
ENDBRANCH  15  21
ENDBRANCH   5  18
BRANCH   6  34
ATOM     34  C   UNL     1     112.527 127.820 139.456  0.00  0.00    +0.000 C 
BRANCH  34  35
ATOM     35  C   UNL     1     113.231 128.176 139.696  0.00  0.00    +0.000 C 
ATOM     36  C   UNL     1     113.336 128.393 140.485  0.00  0.00    +0.000 C 
ATOM     37  C   UNL     1     112.736 128.254 141.035  0.00  0.00    +0.000 C 
BRANCH  36  38
ATOM     38  C   UNL     1     114.040 128.749 140.724  0.00  0.00    +0.000 C 
BRANCH  38  39
ATOM     39  C   UNL     1     114.075 129.567 140.830  0.00  0.00    +0.000 C 
BRANCH  39  40
ATOM     40  C   UNL     1     114.759 129.981 140.629  0.00  0.00    +0.000 C 
ATOM     41  C   UNL     1     114.870 130.751 140.900  0.00  0.00    +0.000 C 
ATOM     42  C   UNL     1     115.555 131.166 140.699  0.00  0.00    +0.000 C 
ATOM     43  C   UNL     1     114.296 131.109 141.374  0.00  0.00    +0.000 C 
ENDBRANCH  39  40
ENDBRANCH  38  39
ENDBRANCH  36  38
ENDBRANCH  34  35
ENDBRANCH   6  34
BRANCH  10  44
ATOM     44  C   UNL     1     111.948 126.138 136.087  0.00  0.00    +0.000 C 
BRANCH  44  45
ATOM     45  C   UNL     1     111.295 125.665 135.915  0.00  0.00    +0.000 C 
ATOM     46  C   UNL     1     110.760 125.897 135.331  0.00  0.00    +0.000 C 
ATOM     47  C   UNL     1     110.107 125.423 135.158  0.00  0.00    +0.000 C 
ATOM     48  C   UNL     1     110.877 126.603 134.920  0.00  0.00    +0.000 C 
ENDBRANCH  44  45
ENDBRANCH  10  44
TORSDOF 11
ENDMDL
MODEL 5
REMARK VINA RESULT:      -9.6      2.939      4.092
REMARK  Name = 131835908
REMARK  11 active torsions:
REMARK  status: ('A' for Active; 'I' for Inactive)
REMARK    1  A    between atoms: O_2  and  C_17
REMARK    2  A    between atoms: O_2  and  C_19
REMARK    3  A    between atoms: C_16  and  C_18
REMARK    4  A    between atoms: C_22  and  C_23
REMARK    5  A    between atoms: C_24  and  C_29
REMARK    6  A    between atoms: C_29  and  C_34
REMARK    7  A    between atoms: C_31  and  C_32
REMARK    8  A    between atoms: C_32  and  C_39
REMARK    9  A    between atoms: C_36  and  C_38
REMARK   10  A    between atoms: C_38  and  C_40
REMARK   11  A    between atoms: C_40  and  C_43
REMARK                            x       y       z     vdW  Elec       q    Type
REMARK                         _______ _______ _______ _____ _____    ______ ____
ROOT
ATOM      1  O   UNL     1     112.123 127.354 137.076  0.00  0.00    +0.000 OA
ATOM      2  O   UNL     1     113.652 126.952 138.981  0.00  0.00    +0.000 OA
ATOM      3  O   UNL     1     112.697 124.698 136.030  0.00  0.00    +0.000 OA
ATOM      4  O   UNL     1     113.741 124.423 137.330  0.00  0.00    +0.000 OA
ATOM      5  C   UNL     1     112.234 127.939 137.647  0.00  0.00    +0.000 A 
ATOM      6  C   UNL     1     112.743 127.806 138.282  0.00  0.00    +0.000 A 
ATOM      7  C   UNL     1     112.522 126.634 137.141  0.00  0.00    +0.000 A 
ATOM      8  C   UNL     1     113.032 126.500 137.776  0.00  0.00    +0.000 A 
ATOM      9  C   UNL     1     113.142 127.086 138.346  0.00  0.00    +0.000 A 
ATOM     10  C   UNL     1     112.398 126.033 136.540  0.00  0.00    +0.000 A 
ATOM     11  C   UNL     1     113.452 125.755 137.854  0.00  0.00    +0.000 A 
ATOM     12  C   UNL     1     112.810 125.282 136.602  0.00  0.00    +0.000 A 
ATOM     13  C   UNL     1     113.341 125.142 137.263  0.00  0.00    +0.000 A 
ENDROOT
BRANCH   5  18
ATOM     14  O   UNL     1     112.809 129.115 136.641  0.00  0.00    +0.000 OA
ATOM     15  C   UNL     1     111.038 130.098 137.454  0.00  0.00    +0.000 A 
ATOM     16  C   UNL     1     111.724 129.966 137.016  0.00  0.00    +0.000 A 
ATOM     17  C   UNL     1     110.750 129.510 137.957  0.00  0.00    +0.000 A 
ATOM     18  C   UNL     1     111.835 128.659 137.583  0.00  0.00    +0.000 A 
ATOM     19  C   UNL     1     112.123 129.246 137.080  0.00  0.00    +0.000 A 
ATOM     20  C   UNL     1     111.149 128.791 138.021  0.00  0.00    +0.000 A 
BRANCH  15  21
ATOM     21  O   UNL     1     110.640 130.817 137.389  0.00  0.00    +0.000 OA
BRANCH  21  30
ATOM     22  O   UNL     1     109.583 130.307 136.574  0.00  0.00    +0.000 OA
ATOM     23  O   UNL     1     109.401 132.498 135.438  0.00  0.00    +0.000 OA
ATOM     24  O   UNL     1     108.404 131.257 135.002  0.00  0.00    +0.000 OA
ATOM     25  O   UNL     1     110.519 132.278 136.632  0.00  0.00    +0.000 OA
ATOM     26  C   UNL     1     109.462 131.767 135.817  0.00  0.00    +0.000 C 
ATOM     27  C   UNL     1     108.964 131.148 135.599  0.00  0.00    +0.000 C 
ATOM     28  C   UNL     1     110.021 131.658 136.414  0.00  0.00    +0.000 C 
ATOM     29  C   UNL     1     109.024 130.417 135.977  0.00  0.00    +0.000 C 
ATOM     30  C   UNL     1     110.081 130.928 136.793  0.00  0.00    +0.000 C 
BRANCH  29  33
ATOM     31  O   UNL     1     108.767 129.257 135.184  0.00  0.00    +0.000 OA
ATOM     32  O   UNL     1     107.787 129.715 136.116  0.00  0.00    +0.000 OA
ATOM     33  C   UNL     1     108.526 129.796 135.759  0.00  0.00    +0.000 C 
ENDBRANCH  29  33
ENDBRANCH  21  30
ENDBRANCH  15  21
ENDBRANCH   5  18
BRANCH   6  34
ATOM     34  C   UNL     1     112.855 128.391 138.853  0.00  0.00    +0.000 C 
BRANCH  34  35
ATOM     35  C   UNL     1     112.788 128.205 139.653  0.00  0.00    +0.000 C 
ATOM     36  C   UNL     1     113.112 128.707 140.222  0.00  0.00    +0.000 C 
ATOM     37  C   UNL     1     113.504 129.396 139.990  0.00  0.00    +0.000 C 
BRANCH  36  38
ATOM     38  C   UNL     1     113.045 128.521 141.023  0.00  0.00    +0.000 C 
BRANCH  38  39
ATOM     39  C   UNL     1     112.606 129.007 141.525  0.00  0.00    +0.000 C 
BRANCH  39  40
ATOM     40  C   UNL     1     112.285 128.700 142.219  0.00  0.00    +0.000 C 
ATOM     41  C   UNL     1     111.972 129.208 142.788  0.00  0.00    +0.000 C 
ATOM     42  C   UNL     1     111.651 128.902 143.484  0.00  0.00    +0.000 C 
ATOM     43  C   UNL     1     111.981 130.024 142.663  0.00  0.00    +0.000 C 
ENDBRANCH  39  40
ENDBRANCH  38  39
ENDBRANCH  36  38
ENDBRANCH  34  35
ENDBRANCH   6  34
BRANCH  10  44
ATOM     44  C   UNL     1     111.887 126.175 135.909  0.00  0.00    +0.000 C 
BRANCH  44  45
ATOM     45  C   UNL     1     111.164 125.780 135.866  0.00  0.00    +0.000 C 
ATOM     46  C   UNL     1     110.634 125.955 135.258  0.00  0.00    +0.000 C 
ATOM     47  C   UNL     1     109.911 125.560 135.215  0.00  0.00    +0.000 C 
ATOM     48  C   UNL     1     110.827 126.524 134.693  0.00  0.00    +0.000 C 
ENDBRANCH  44  45
ENDBRANCH  10  44
TORSDOF 11
ENDMDL
MODEL 6
REMARK VINA RESULT:      -9.5      1.836      4.171
REMARK  Name = 131835908
REMARK  11 active torsions:
REMARK  status: ('A' for Active; 'I' for Inactive)
REMARK    1  A    between atoms: O_2  and  C_17
REMARK    2  A    between atoms: O_2  and  C_19
REMARK    3  A    between atoms: C_16  and  C_18
REMARK    4  A    between atoms: C_22  and  C_23
REMARK    5  A    between atoms: C_24  and  C_29
REMARK    6  A    between atoms: C_29  and  C_34
REMARK    7  A    between atoms: C_31  and  C_32
REMARK    8  A    between atoms: C_32  and  C_39
REMARK    9  A    between atoms: C_36  and  C_38
REMARK   10  A    between atoms: C_38  and  C_40
REMARK   11  A    between atoms: C_40  and  C_43
REMARK                            x       y       z     vdW  Elec       q    Type
REMARK                         _______ _______ _______ _____ _____    ______ ____
ROOT
ATOM      1  O   UNL     1     112.474 126.753 137.914  0.00  0.00    +0.000 OA
ATOM      2  O   UNL     1     110.268 127.779 137.457  0.00  0.00    +0.000 OA
ATOM      3  O   UNL     1     111.893 124.615 136.024  0.00  0.00    +0.000 OA
ATOM      4  O   UNL     1     110.387 125.315 135.712  0.00  0.00    +0.000 OA
ATOM      5  C   UNL     1     112.253 127.447 138.302  0.00  0.00    +0.000 A 
ATOM      6  C   UNL     1     111.518 127.789 138.150  0.00  0.00    +0.000 A 
ATOM      7  C   UNL     1     111.959 126.402 137.373  0.00  0.00    +0.000 A 
ATOM      8  C   UNL     1     111.224 126.744 137.221  0.00  0.00    +0.000 A 
ATOM      9  C   UNL     1     111.004 127.437 137.610  0.00  0.00    +0.000 A 
ATOM     10  C   UNL     1     112.201 125.679 136.975  0.00  0.00    +0.000 A 
ATOM     11  C   UNL     1     110.679 126.387 136.660  0.00  0.00    +0.000 A 
ATOM     12  C   UNL     1     111.669 125.309 136.411  0.00  0.00    +0.000 A 
ATOM     13  C   UNL     1     110.903 125.665 136.253  0.00  0.00    +0.000 A 
ENDROOT
BRANCH   5  18
ATOM     14  O   UNL     1     112.430 126.805 139.812  0.00  0.00    +0.000 OA
ATOM     15  C   UNL     1     113.797 128.502 139.924  0.00  0.00    +0.000 A 
ATOM     16  C   UNL     1     113.370 127.829 140.138  0.00  0.00    +0.000 A 
ATOM     17  C   UNL     1     113.709 128.824 139.169  0.00  0.00    +0.000 A 
ATOM     18  C   UNL     1     112.768 127.799 138.843  0.00  0.00    +0.000 A 
ATOM     19  C   UNL     1     112.856 127.478 139.597  0.00  0.00    +0.000 A 
ATOM     20  C   UNL     1     113.194 128.472 138.629  0.00  0.00    +0.000 A 
BRANCH  15  21
ATOM     21  O   UNL     1     114.311 128.853 140.464  0.00  0.00    +0.000 OA
BRANCH  21  30
ATOM     22  O   UNL     1     113.374 129.624 141.220  0.00  0.00    +0.000 OA
ATOM     23  O   UNL     1     114.925 131.553 141.173  0.00  0.00    +0.000 OA
ATOM     24  O   UNL     1     113.472 131.681 141.944  0.00  0.00    +0.000 OA
ATOM     25  O   UNL     1     115.345 130.139 140.433  0.00  0.00    +0.000 OA
ATOM     26  C   UNL     1     114.408 130.910 141.189  0.00  0.00    +0.000 C 
ATOM     27  C   UNL     1     113.682 130.974 141.574  0.00  0.00    +0.000 C 
ATOM     28  C   UNL     1     114.619 130.203 140.818  0.00  0.00    +0.000 C 
ATOM     29  C   UNL     1     113.165 130.332 141.589  0.00  0.00    +0.000 C 
ATOM     30  C   UNL     1     114.102 129.560 140.834  0.00  0.00    +0.000 C 
BRANCH  29  33
ATOM     31  O   UNL     1     112.289 129.946 142.651  0.00  0.00    +0.000 OA
ATOM     32  O   UNL     1     111.861 130.908 141.685  0.00  0.00    +0.000 OA
ATOM     33  C   UNL     1     112.438 130.396 141.975  0.00  0.00    +0.000 C 
ENDBRANCH  29  33
ENDBRANCH  21  30
ENDBRANCH  15  21
ENDBRANCH   5  18
BRANCH   6  34
ATOM     34  C   UNL     1     111.297 128.483 138.538  0.00  0.00    +0.000 C 
BRANCH  34  35
ATOM     35  C   UNL     1     110.530 128.567 138.829  0.00  0.00    +0.000 C 
ATOM     36  C   UNL     1     110.229 129.318 138.989  0.00  0.00    +0.000 C 
ATOM     37  C   UNL     1     110.696 129.986 138.858  0.00  0.00    +0.000 C 
BRANCH  36  38
ATOM     38  C   UNL     1     109.462 129.402 139.279  0.00  0.00    +0.000 C 
BRANCH  38  39
ATOM     39  C   UNL     1     109.337 129.540 140.083  0.00  0.00    +0.000 C 
BRANCH  39  40
ATOM     40  C   UNL     1     108.653 129.926 140.334  0.00  0.00    +0.000 C 
ATOM     41  C   UNL     1     108.386 129.830 141.109  0.00  0.00    +0.000 C 
ATOM     42  C   UNL     1     107.702 130.216 141.361  0.00  0.00    +0.000 C 
ATOM     43  C   UNL     1     108.805 129.348 141.633  0.00  0.00    +0.000 C 
ENDBRANCH  39  40
ENDBRANCH  38  39
ENDBRANCH  36  38
ENDBRANCH  34  35
ENDBRANCH   6  34
BRANCH  10  44
ATOM     44  C   UNL     1     112.937 125.344 137.133  0.00  0.00    +0.000 C 
BRANCH  44  45
ATOM     45  C   UNL     1     113.544 125.401 136.577  0.00  0.00    +0.000 C 
ATOM     46  C   UNL     1     114.296 125.111 136.756  0.00  0.00    +0.000 C 
ATOM     47  C   UNL     1     114.903 125.167 136.201  0.00  0.00    +0.000 C 
ATOM     48  C   UNL     1     114.440 124.765 137.491  0.00  0.00    +0.000 C 
ENDBRANCH  44  45
ENDBRANCH  10  44
TORSDOF 11
ENDMDL
MODEL 7
REMARK VINA RESULT:      -9.5      3.429      5.564
REMARK  Name = 131835908
REMARK  11 active torsions:
REMARK  status: ('A' for Active; 'I' for Inactive)
REMARK    1  A    between atoms: O_2  and  C_17
REMARK    2  A    between atoms: O_2  and  C_19
REMARK    3  A    between atoms: C_16  and  C_18
REMARK    4  A    between atoms: C_22  and  C_23
REMARK    5  A    between atoms: C_24  and  C_29
REMARK    6  A    between atoms: C_29  and  C_34
REMARK    7  A    between atoms: C_31  and  C_32
REMARK    8  A    between atoms: C_32  and  C_39
REMARK    9  A    between atoms: C_36  and  C_38
REMARK   10  A    between atoms: C_38  and  C_40
REMARK   11  A    between atoms: C_40  and  C_43
REMARK                            x       y       z     vdW  Elec       q    Type
REMARK                         _______ _______ _______ _____ _____    ______ ____
ROOT
ATOM      1  O   UNL     1     111.119 128.979 136.061  0.00  0.00    +0.000 OA
ATOM      2  O   UNL     1     111.901 131.216 136.776  0.00  0.00    +0.000 OA
ATOM      3  O   UNL     1     108.526 130.094 135.342  0.00  0.00    +0.000 OA
ATOM      4  O   UNL     1     109.060 131.620 135.830  0.00  0.00    +0.000 OA
ATOM      5  C   UNL     1     111.884 129.074 136.355  0.00  0.00    +0.000 A 
ATOM      6  C   UNL     1     112.145 129.819 136.593  0.00  0.00    +0.000 A 
ATOM      7  C   UNL     1     110.615 129.629 136.005  0.00  0.00    +0.000 A 
ATOM      8  C   UNL     1     110.876 130.376 136.243  0.00  0.00    +0.000 A 
ATOM      9  C   UNL     1     111.640 130.470 136.537  0.00  0.00    +0.000 A 
ATOM     10  C   UNL     1     109.820 129.517 135.697  0.00  0.00    +0.000 A 
ATOM     11  C   UNL     1     110.360 131.061 136.190  0.00  0.00    +0.000 A 
ATOM     12  C   UNL     1     109.291 130.191 135.636  0.00  0.00    +0.000 A 
ATOM     13  C   UNL     1     109.562 130.968 135.884  0.00  0.00    +0.000 A 
ENDROOT
BRANCH   5  18
ATOM     14  O   UNL     1     112.700 128.545 135.022  0.00  0.00    +0.000 OA
ATOM     15  C   UNL     1     113.396 127.121 136.523  0.00  0.00    +0.000 A 
ATOM     16  C   UNL     1     113.300 127.508 135.801  0.00  0.00    +0.000 A 
ATOM     17  C   UNL     1     112.988 127.386 137.190  0.00  0.00    +0.000 A 
ATOM     18  C   UNL     1     112.388 128.423 136.411  0.00  0.00    +0.000 A 
ATOM     19  C   UNL     1     112.796 128.159 135.745  0.00  0.00    +0.000 A 
ATOM     20  C   UNL     1     112.484 128.037 137.134  0.00  0.00    +0.000 A 
BRANCH  15  21
ATOM     21  O   UNL     1     113.900 126.471 136.579  0.00  0.00    +0.000 OA
BRANCH  21  30
ATOM     22  O   UNL     1     112.807 125.558 136.466  0.00  0.00    +0.000 OA
ATOM     23  O   UNL     1     114.209 123.761 137.431  0.00  0.00    +0.000 OA
ATOM     24  O   UNL     1     112.649 123.446 136.995  0.00  0.00    +0.000 OA
ATOM     25  O   UNL     1     114.835 125.274 137.222  0.00  0.00    +0.000 OA
ATOM     26  C   UNL     1     113.742 124.360 137.109  0.00  0.00    +0.000 C 
ATOM     27  C   UNL     1     112.963 124.202 136.892  0.00  0.00    +0.000 C 
ATOM     28  C   UNL     1     114.055 125.116 137.005  0.00  0.00    +0.000 C 
ATOM     29  C   UNL     1     112.495 124.801 136.570  0.00  0.00    +0.000 C 
ATOM     30  C   UNL     1     113.588 125.715 136.684  0.00  0.00    +0.000 C 
BRANCH  29  33
ATOM     31  O   UNL     1     111.536 124.448 135.571  0.00  0.00    +0.000 OA
ATOM     32  O   UNL     1     111.114 124.683 136.915  0.00  0.00    +0.000 OA
ATOM     33  C   UNL     1     111.714 124.644 136.352  0.00  0.00    +0.000 C 
ENDBRANCH  29  33
ENDBRANCH  21  30
ENDBRANCH  15  21
ENDBRANCH   5  18
BRANCH   6  34
ATOM     34  C   UNL     1     112.910 129.915 136.888  0.00  0.00    +0.000 C 
BRANCH  34  35
ATOM     35  C   UNL     1     113.029 130.286 137.614  0.00  0.00    +0.000 C 
ATOM     36  C   UNL     1     113.778 130.568 137.815  0.00  0.00    +0.000 C 
ATOM     37  C   UNL     1     114.408 130.478 137.288  0.00  0.00    +0.000 C 
BRANCH  36  38
ATOM     38  C   UNL     1     113.898 130.940 138.541  0.00  0.00    +0.000 C 
BRANCH  38  39
ATOM     39  C   UNL     1     114.274 130.537 139.155  0.00  0.00    +0.000 C 
BRANCH  39  40
ATOM     40  C   UNL     1     114.575 130.954 139.799  0.00  0.00    +0.000 C 
ATOM     41  C   UNL     1     114.737 130.560 140.505  0.00  0.00    +0.000 C 
ATOM     42  C   UNL     1     115.038 130.977 141.151  0.00  0.00    +0.000 C 
ATOM     43  C   UNL     1     114.598 129.748 140.567  0.00  0.00    +0.000 C 
ENDBRANCH  39  40
ENDBRANCH  38  39
ENDBRANCH  36  38
ENDBRANCH  34  35
ENDBRANCH   6  34
BRANCH  10  44
ATOM     44  C   UNL     1     109.568 128.769 135.461  0.00  0.00    +0.000 C 
BRANCH  44  45
ATOM     45  C   UNL     1     109.079 128.324 135.955  0.00  0.00    +0.000 C 
ATOM     46  C   UNL     1     108.908 127.539 135.767  0.00  0.00    +0.000 C 
ATOM     47  C   UNL     1     108.419 127.094 136.260  0.00  0.00    +0.000 C 
ATOM     48  C   UNL     1     109.225 127.200 135.085  0.00  0.00    +0.000 C 
ENDBRANCH  44  45
ENDBRANCH  10  44
TORSDOF 11
ENDMDL
MODEL 8
REMARK VINA RESULT:      -9.3      6.034      8.902
REMARK  Name = 131835908
REMARK  11 active torsions:
REMARK  status: ('A' for Active; 'I' for Inactive)
REMARK    1  A    between atoms: O_2  and  C_17
REMARK    2  A    between atoms: O_2  and  C_19
REMARK    3  A    between atoms: C_16  and  C_18
REMARK    4  A    between atoms: C_22  and  C_23
REMARK    5  A    between atoms: C_24  and  C_29
REMARK    6  A    between atoms: C_29  and  C_34
REMARK    7  A    between atoms: C_31  and  C_32
REMARK    8  A    between atoms: C_32  and  C_39
REMARK    9  A    between atoms: C_36  and  C_38
REMARK   10  A    between atoms: C_38  and  C_40
REMARK   11  A    between atoms: C_40  and  C_43
REMARK                            x       y       z     vdW  Elec       q    Type
REMARK                         _______ _______ _______ _____ _____    ______ ____
ROOT
ATOM      1  O   UNL     1     105.692 126.517 144.353  0.00  0.00    +0.000 OA
ATOM      2  O   UNL     1     105.902 124.155 143.642  0.00  0.00    +0.000 OA
ATOM      3  O   UNL     1     104.901 125.664 147.022  0.00  0.00    +0.000 OA
ATOM      4  O   UNL     1     105.043 124.052 146.538  0.00  0.00    +0.000 OA
ATOM      5  C   UNL     1     105.921 126.336 143.581  0.00  0.00    +0.000 A 
ATOM      6  C   UNL     1     105.991 125.550 143.344  0.00  0.00    +0.000 A 
ATOM      7  C   UNL     1     105.533 125.910 144.888  0.00  0.00    +0.000 A 
ATOM      8  C   UNL     1     105.603 125.122 144.651  0.00  0.00    +0.000 A 
ATOM      9  C   UNL     1     105.832 124.943 143.879  0.00  0.00    +0.000 A 
ATOM     10  C   UNL     1     105.296 126.110 145.689  0.00  0.00    +0.000 A 
ATOM     11  C   UNL     1     105.440 124.480 145.199  0.00  0.00    +0.000 A 
ATOM     12  C   UNL     1     105.129 125.482 146.251  0.00  0.00    +0.000 A 
ATOM     13  C   UNL     1     105.202 124.662 146.005  0.00  0.00    +0.000 A 
ENDROOT
BRANCH   5  18
ATOM     14  O   UNL     1     107.439 126.977 143.486  0.00  0.00    +0.000 OA
ATOM     15  C   UNL     1     106.398 128.159 141.975  0.00  0.00    +0.000 A 
ATOM     16  C   UNL     1     106.998 127.871 142.463  0.00  0.00    +0.000 A 
ATOM     17  C   UNL     1     105.639 127.839 142.022  0.00  0.00    +0.000 A 
ATOM     18  C   UNL     1     106.080 126.945 143.045  0.00  0.00    +0.000 A 
ATOM     19  C   UNL     1     106.839 127.264 142.998  0.00  0.00    +0.000 A 
ATOM     20  C   UNL     1     105.480 127.232 142.557  0.00  0.00    +0.000 A 
BRANCH  15  21
ATOM     21  O   UNL     1     106.557 128.766 141.440  0.00  0.00    +0.000 OA
BRANCH  21  30
ATOM     22  O   UNL     1     106.186 129.836 142.311  0.00  0.00    +0.000 OA
ATOM     23  O   UNL     1     107.960 131.253 141.328  0.00  0.00    +0.000 OA
ATOM     24  O   UNL     1     106.997 131.851 142.527  0.00  0.00    +0.000 OA
ATOM     25  O   UNL     1     107.740 129.711 140.784  0.00  0.00    +0.000 OA
ATOM     26  C   UNL     1     107.369 130.781 141.656  0.00  0.00    +0.000 C 
ATOM     27  C   UNL     1     106.888 131.079 142.255  0.00  0.00    +0.000 C 
ATOM     28  C   UNL     1     107.259 130.009 141.383  0.00  0.00    +0.000 C 
ATOM     29  C   UNL     1     106.296 130.607 142.583  0.00  0.00    +0.000 C 
ATOM     30  C   UNL     1     106.668 129.537 141.711  0.00  0.00    +0.000 C 
BRANCH  29  33
ATOM     31  O   UNL     1     106.068 130.879 143.967  0.00  0.00    +0.000 OA
ATOM     32  O   UNL     1     105.079 131.230 142.998  0.00  0.00    +0.000 OA
ATOM     33  C   UNL     1     105.814 130.906 143.183  0.00  0.00    +0.000 C 
ENDBRANCH  29  33
ENDBRANCH  21  30
ENDBRANCH  15  21
ENDBRANCH   5  18
BRANCH   6  34
ATOM     34  C   UNL     1     106.220 125.369 142.572  0.00  0.00    +0.000 C 
BRANCH  34  35
ATOM     35  C   UNL     1     105.765 124.854 142.117  0.00  0.00    +0.000 C 
ATOM     36  C   UNL     1     106.087 124.507 141.440  0.00  0.00    +0.000 C 
ATOM     37  C   UNL     1     106.864 124.676 141.220  0.00  0.00    +0.000 C 
BRANCH  36  38
ATOM     38  C   UNL     1     105.632 123.992 140.985  0.00  0.00    +0.000 C 
BRANCH  38  39
ATOM     39  C   UNL     1     105.286 124.256 140.284  0.00  0.00    +0.000 C 
BRANCH  39  40
ATOM     40  C   UNL     1     104.819 123.745 139.836  0.00  0.00    +0.000 C 
ATOM     41  C   UNL     1     104.385 124.035 139.198  0.00  0.00    +0.000 C 
ATOM     42  C   UNL     1     103.917 123.523 138.750  0.00  0.00    +0.000 C 
ATOM     43  C   UNL     1     104.418 124.838 139.007  0.00  0.00    +0.000 C 
ENDBRANCH  39  40
ENDBRANCH  38  39
ENDBRANCH  36  38
ENDBRANCH  34  35
ENDBRANCH   6  34
BRANCH  10  44
ATOM     44  C   UNL     1     105.229 126.899 145.918  0.00  0.00    +0.000 C 
BRANCH  44  45
ATOM     45  C   UNL     1     105.780 127.227 146.436  0.00  0.00    +0.000 C 
ATOM     46  C   UNL     1     105.736 128.027 146.634  0.00  0.00    +0.000 C 
ATOM     47  C   UNL     1     106.286 128.355 147.153  0.00  0.00    +0.000 C 
ATOM     48  C   UNL     1     105.140 128.499 146.311  0.00  0.00    +0.000 C 
ENDBRANCH  44  45
ENDBRANCH  10  44
TORSDOF 11
ENDMDL
MODEL 9
REMARK VINA RESULT:      -9.3      2.520      5.336
REMARK  Name = 131835908
REMARK  11 active torsions:
REMARK  status: ('A' for Active; 'I' for Inactive)
REMARK    1  A    between atoms: O_2  and  C_17
REMARK    2  A    between atoms: O_2  and  C_19
REMARK    3  A    between atoms: C_16  and  C_18
REMARK    4  A    between atoms: C_22  and  C_23
REMARK    5  A    between atoms: C_24  and  C_29
REMARK    6  A    between atoms: C_29  and  C_34
REMARK    7  A    between atoms: C_31  and  C_32
REMARK    8  A    between atoms: C_32  and  C_39
REMARK    9  A    between atoms: C_36  and  C_38
REMARK   10  A    between atoms: C_38  and  C_40
REMARK   11  A    between atoms: C_40  and  C_43
REMARK                            x       y       z     vdW  Elec       q    Type
REMARK                         _______ _______ _______ _____ _____    ______ ____
ROOT
ATOM      1  O   UNL     1     111.570 129.421 137.427  0.00  0.00    +0.000 OA
ATOM      2  O   UNL     1     111.803 131.256 139.072  0.00  0.00    +0.000 OA
ATOM      3  O   UNL     1     109.963 131.137 135.710  0.00  0.00    +0.000 OA
ATOM      4  O   UNL     1     110.122 132.390 136.832  0.00  0.00    +0.000 OA
ATOM      5  C   UNL     1     112.003 129.302 138.120  0.00  0.00    +0.000 A 
ATOM      6  C   UNL     1     112.080 129.913 138.668  0.00  0.00    +0.000 A 
ATOM      7  C   UNL     1     111.215 130.151 137.283  0.00  0.00    +0.000 A 
ATOM      8  C   UNL     1     111.293 130.763 137.832  0.00  0.00    +0.000 A 
ATOM      9  C   UNL     1     111.725 130.644 138.524  0.00  0.00    +0.000 A 
ATOM     10  C   UNL     1     110.767 130.262 136.558  0.00  0.00    +0.000 A 
ATOM     11  C   UNL     1     110.927 131.529 137.693  0.00  0.00    +0.000 A 
ATOM     12  C   UNL     1     110.395 131.021 136.403  0.00  0.00    +0.000 A 
ATOM     13  C   UNL     1     110.476 131.658 136.974  0.00  0.00    +0.000 A 
ENDROOT
BRANCH   5  18
ATOM     14  O   UNL     1     113.470 128.950 137.450  0.00  0.00    +0.000 OA
ATOM     15  C   UNL     1     113.068 127.110 138.553  0.00  0.00    +0.000 A 
ATOM     16  C   UNL     1     113.446 127.665 138.074  0.00  0.00    +0.000 A 
ATOM     17  C   UNL     1     112.335 127.286 138.888  0.00  0.00    +0.000 A 
ATOM     18  C   UNL     1     112.358 128.571 138.264  0.00  0.00    +0.000 A 
ATOM     19  C   UNL     1     113.091 128.396 137.930  0.00  0.00    +0.000 A 
ATOM     20  C   UNL     1     111.980 128.016 138.744  0.00  0.00    +0.000 A 
BRANCH  15  21
ATOM     21  O   UNL     1     113.423 126.380 138.697  0.00  0.00    +0.000 OA
BRANCH  21  30
ATOM     22  O   UNL     1     112.727 125.615 137.710  0.00  0.00    +0.000 OA
ATOM     23  O   UNL     1     114.824 124.424 137.155  0.00  0.00    +0.000 OA
ATOM     24  O   UNL     1     113.429 124.056 136.353  0.00  0.00    +0.000 OA
ATOM     25  O   UNL     1     114.821 125.585 138.326  0.00  0.00    +0.000 OA
ATOM     26  C   UNL     1     114.125 124.821 137.340  0.00  0.00    +0.000 C 
ATOM     27  C   UNL     1     113.428 124.637 136.939  0.00  0.00    +0.000 C 
ATOM     28  C   UNL     1     114.124 125.402 137.926  0.00  0.00    +0.000 C 
ATOM     29  C   UNL     1     112.729 125.035 137.124  0.00  0.00    +0.000 C 
ATOM     30  C   UNL     1     113.425 125.799 138.111  0.00  0.00    +0.000 C 
BRANCH  29  33
ATOM     31  O   UNL     1     111.849 125.236 136.017  0.00  0.00    +0.000 OA
ATOM     32  O   UNL     1     111.518 124.284 137.029  0.00  0.00    +0.000 OA
ATOM     33  C   UNL     1     112.031 124.851 136.723  0.00  0.00    +0.000 C 
ENDBRANCH  29  33
ENDBRANCH  21  30
ENDBRANCH  15  21
ENDBRANCH   5  18
BRANCH   6  34
ATOM     34  C   UNL     1     112.513 129.795 139.361  0.00  0.00    +0.000 C 
BRANCH  34  35
ATOM     35  C   UNL     1     112.199 130.024 140.088  0.00  0.00    +0.000 C 
ATOM     36  C   UNL     1     112.691 130.095 140.746  0.00  0.00    +0.000 C 
ATOM     37  C   UNL     1     113.499 129.935 140.677  0.00  0.00    +0.000 C 
BRANCH  36  38
ATOM     38  C   UNL     1     112.378 130.324 141.473  0.00  0.00    +0.000 C 
BRANCH  38  39
ATOM     39  C   UNL     1     112.271 129.766 142.072  0.00  0.00    +0.000 C 
BRANCH  39  40
ATOM     40  C   UNL     1     112.062 130.010 142.831  0.00  0.00    +0.000 C 
ATOM     41  C   UNL     1     111.780 129.462 143.378  0.00  0.00    +0.000 C 
ATOM     42  C   UNL     1     111.571 129.706 144.138  0.00  0.00    +0.000 C 
ATOM     43  C   UNL     1     111.706 128.667 143.165  0.00  0.00    +0.000 C 
ENDBRANCH  39  40
ENDBRANCH  38  39
ENDBRANCH  36  38
ENDBRANCH  34  35
ENDBRANCH   6  34
BRANCH  10  44
ATOM     44  C   UNL     1     110.695 129.646 136.016  0.00  0.00    +0.000 C 
BRANCH  44  45
ATOM     45  C   UNL     1     109.984 129.232 135.954  0.00  0.00    +0.000 C 
ATOM     46  C   UNL     1     109.920 128.598 135.429  0.00  0.00    +0.000 C 
ATOM     47  C   UNL     1     109.209 128.184 135.368  0.00  0.00    +0.000 C 
ATOM     48  C   UNL     1     110.567 128.380 134.966  0.00  0.00    +0.000 C 
ENDBRANCH  44  45
ENDBRANCH  10  44
TORSDOF 11
ENDMDL
MODEL 10
REMARK VINA RESULT:      -9.2      2.347      4.705
REMARK  Name = 131835908
REMARK  11 active torsions:
REMARK  status: ('A' for Active; 'I' for Inactive)
REMARK    1  A    between atoms: O_2  and  C_17
REMARK    2  A    between atoms: O_2  and  C_19
REMARK    3  A    between atoms: C_16  and  C_18
REMARK    4  A    between atoms: C_22  and  C_23
REMARK    5  A    between atoms: C_24  and  C_29
REMARK    6  A    between atoms: C_29  and  C_34
REMARK    7  A    between atoms: C_31  and  C_32
REMARK    8  A    between atoms: C_32  and  C_39
REMARK    9  A    between atoms: C_36  and  C_38
REMARK   10  A    between atoms: C_38  and  C_40
REMARK   11  A    between atoms: C_40  and  C_43
REMARK                            x       y       z     vdW  Elec       q    Type
REMARK                         _______ _______ _______ _____ _____    ______ ____
ROOT
ATOM      1  O   UNL     1     110.010 128.967 138.139  0.00  0.00    +0.000 OA
ATOM      2  O   UNL     1     110.032 127.128 136.482  0.00  0.00    +0.000 OA
ATOM      3  O   UNL     1     108.420 130.604 136.330  0.00  0.00    +0.000 OA
ATOM      4  O   UNL     1     108.435 129.349 135.199  0.00  0.00    +0.000 OA
ATOM      5  C   UNL     1     110.403 128.262 138.310  0.00  0.00    +0.000 A 
ATOM      6  C   UNL     1     110.411 127.650 137.758  0.00  0.00    +0.000 A 
ATOM      7  C   UNL     1     109.624 129.059 137.416  0.00  0.00    +0.000 A 
ATOM      8  C   UNL     1     109.631 128.446 136.863  0.00  0.00    +0.000 A 
ATOM      9  C   UNL     1     110.025 127.741 137.035  0.00  0.00    +0.000 A 
ATOM     10  C   UNL     1     109.217 129.798 137.250  0.00  0.00    +0.000 A 
ATOM     11  C   UNL     1     109.232 128.529 136.107  0.00  0.00    +0.000 A 
ATOM     12  C   UNL     1     108.813 129.899 136.498  0.00  0.00    +0.000 A 
ATOM     13  C   UNL     1     108.821 129.260 135.923  0.00  0.00    +0.000 A 
ENDROOT
BRANCH   5  18
ATOM     14  O   UNL     1     109.549 127.827 139.653  0.00  0.00    +0.000 OA
ATOM     15  C   UNL     1     111.562 127.988 140.480  0.00  0.00    +0.000 A 
ATOM     16  C   UNL     1     110.749 127.862 140.428  0.00  0.00    +0.000 A 
ATOM     17  C   UNL     1     111.990 128.205 139.808  0.00  0.00    +0.000 A 
ATOM     18  C   UNL     1     110.790 128.171 139.034  0.00  0.00    +0.000 A 
ATOM     19  C   UNL     1     110.363 127.953 139.704  0.00  0.00    +0.000 A 
ATOM     20  C   UNL     1     111.604 128.297 139.085  0.00  0.00    +0.000 A 
BRANCH  15  21
ATOM     21  O   UNL     1     111.948 127.896 141.203  0.00  0.00    +0.000 OA
BRANCH  21  30
ATOM     22  O   UNL     1     112.115 129.277 141.530  0.00  0.00    +0.000 OA
ATOM     23  O   UNL     1     111.524 128.791 143.884  0.00  0.00    +0.000 OA
ATOM     24  O   UNL     1     111.888 130.334 143.426  0.00  0.00    +0.000 OA
ATOM     25  O   UNL     1     111.554 127.572 142.772  0.00  0.00    +0.000 OA
ATOM     26  C   UNL     1     111.721 128.953 143.099  0.00  0.00    +0.000 C 
ATOM     27  C   UNL     1     111.903 129.724 142.871  0.00  0.00    +0.000 C 
ATOM     28  C   UNL     1     111.736 128.343 142.544  0.00  0.00    +0.000 C 
ATOM     29  C   UNL     1     112.100 129.886 142.086  0.00  0.00    +0.000 C 
ATOM     30  C   UNL     1     111.933 128.505 141.759  0.00  0.00    +0.000 C 
BRANCH  29  33
ATOM     31  O   UNL     1     113.068 130.911 141.851  0.00  0.00    +0.000 OA
ATOM     32  O   UNL     1     111.681 131.175 141.635  0.00  0.00    +0.000 OA
ATOM     33  C   UNL     1     112.283 130.658 141.857  0.00  0.00    +0.000 C 
ENDBRANCH  29  33
ENDBRANCH  21  30
ENDBRANCH  15  21
ENDBRANCH   5  18
BRANCH   6  34
ATOM     34  C   UNL     1     110.804 126.945 137.929  0.00  0.00    +0.000 C 
BRANCH  34  35
ATOM     35  C   UNL     1     111.352 126.638 137.394  0.00  0.00    +0.000 C 
ATOM     36  C   UNL     1     111.589 125.850 137.453  0.00  0.00    +0.000 C 
ATOM     37  C   UNL     1     111.278 125.368 138.047  0.00  0.00    +0.000 C 
BRANCH  36  38
ATOM     38  C   UNL     1     112.137 125.543 136.918  0.00  0.00    +0.000 C 
BRANCH  38  39
ATOM     39  C   UNL     1     112.918 125.416 137.153  0.00  0.00    +0.000 C 
BRANCH  39  40
ATOM     40  C   UNL     1     113.508 125.317 136.587  0.00  0.00    +0.000 C 
ATOM     41  C   UNL     1     114.286 125.175 136.822  0.00  0.00    +0.000 C 
ATOM     42  C   UNL     1     114.877 125.076 136.256  0.00  0.00    +0.000 C 
ATOM     43  C   UNL     1     114.473 125.132 137.626  0.00  0.00    +0.000 C 
ENDBRANCH  39  40
ENDBRANCH  38  39
ENDBRANCH  36  38
ENDBRANCH  34  35
ENDBRANCH   6  34
BRANCH  10  44
ATOM     44  C   UNL     1     109.215 130.405 137.807  0.00  0.00    +0.000 C 
BRANCH  44  45
ATOM     45  C   UNL     1     109.644 131.095 137.667  0.00  0.00    +0.000 C 
ATOM     46  C   UNL     1     109.692 131.676 138.251  0.00  0.00    +0.000 C 
ATOM     47  C   UNL     1     110.122 132.366 138.112  0.00  0.00    +0.000 C 
ATOM     48  C   UNL     1     109.310 131.567 138.974  0.00  0.00    +0.000 C 
ENDBRANCH  44  45
ENDBRANCH  10  44
TORSDOF 11
ENDMDL
