MODEL 1
REMARK VINA RESULT:      -8.5      0.000      0.000
REMARK  Name = 131835823
REMARK  3 active torsions:
REMARK  status: ('A' for Active; 'I' for Inactive)
REMARK    1  A    between atoms: O_3  and  C_14
REMARK    2  A    between atoms: O_5  and  C_19
REMARK    3  A    between atoms: C_6  and  C_11
REMARK                            x       y       z     vdW  Elec       q    Type
REMARK                         _______ _______ _______ _____ _____    ______ ____
ROOT
ATOM      1  O   UNL     1     103.073 124.715 147.333  0.00  0.00    +0.000 OA
ATOM      2  O   UNL     1     104.959 123.575 146.207  0.00  0.00    +0.000 OA
ATOM      3  O   UNL     1     104.048 122.739 145.464  0.00  0.00    +0.000 OA
ATOM      4  C   UNL     1     104.479 124.552 147.132  0.00  0.00    +0.000 C 
ATOM      5  C   UNL     1     103.849 124.933 147.508  0.00  0.00    +0.000 C 
ATOM      6  C   UNL     1     104.330 123.955 146.582  0.00  0.00    +0.000 C 
ATOM      7  C   UNL     1     103.554 123.737 146.408  0.00  0.00    +0.000 A 
ATOM      8  C   UNL     1     102.925 124.118 146.784  0.00  0.00    +0.000 A 
ATOM      9  C   UNL     1     102.111 123.900 146.611  0.00  0.00    +0.000 A 
ATOM     10  C   UNL     1     103.413 123.113 145.834  0.00  0.00    +0.000 A 
ATOM     11  C   UNL     1     101.951 123.279 146.040  0.00  0.00    +0.000 A 
ATOM     12  C   UNL     1     102.607 122.883 145.649  0.00  0.00    +0.000 A 
ATOM     13  C   UNL     1     101.489 124.286 146.992  0.00  0.00    +0.000 C 
ENDROOT
BRANCH   4  14
ATOM     14  C   UNL     1     105.255 124.770 147.306  0.00  0.00    +0.000 A 
ATOM     15  C   UNL     1     105.643 124.434 147.952  0.00  0.00    +0.000 A 
ATOM     16  C   UNL     1     105.643 125.324 146.834  0.00  0.00    +0.000 A 
ATOM     17  C   UNL     1     106.419 124.651 148.126  0.00  0.00    +0.000 A 
ATOM     18  C   UNL     1     106.420 125.542 147.008  0.00  0.00    +0.000 A 
ATOM     19  C   UNL     1     106.808 125.205 147.654  0.00  0.00    +0.000 A 
BRANCH  17  20
ATOM     20  O   UNL     1     106.807 124.315 148.772  0.00  0.00    +0.000 OA
ATOM     21  C   UNL     1     107.581 124.539 148.950  0.00  0.00    +0.000 C 
ENDBRANCH  17  20
ENDBRANCH   4  14
BRANCH  11  22
ATOM     22  O   UNL     1     101.174 123.063 145.868  0.00  0.00    +0.000 OA
ATOM     23  C   UNL     1     100.980 122.782 145.117  0.00  0.00    +0.000 C 
ENDBRANCH  11  22
TORSDOF 3
ENDMDL
MODEL 2
REMARK VINA RESULT:      -7.8      9.342     10.102
REMARK  Name = 131835823
REMARK  3 active torsions:
REMARK  status: ('A' for Active; 'I' for Inactive)
REMARK    1  A    between atoms: O_3  and  C_14
REMARK    2  A    between atoms: O_5  and  C_19
REMARK    3  A    between atoms: C_6  and  C_11
REMARK                            x       y       z     vdW  Elec       q    Type
REMARK                         _______ _______ _______ _____ _____    ______ ____
ROOT
ATOM      1  O   UNL     1     101.517 131.995 141.836  0.00  0.00    +0.000 OA
ATOM      2  O   UNL     1     103.583 131.618 140.527  0.00  0.00    +0.000 OA
ATOM      3  O   UNL     1     103.816 133.038 140.429  0.00  0.00    +0.000 OA
ATOM      4  C   UNL     1     102.447 131.100 141.222  0.00  0.00    +0.000 C 
ATOM      5  C   UNL     1     101.758 131.226 141.659  0.00  0.00    +0.000 C 
ATOM      6  C   UNL     1     102.895 131.744 140.963  0.00  0.00    +0.000 C 
ATOM      7  C   UNL     1     102.654 132.512 141.141  0.00  0.00    +0.000 A 
ATOM      8  C   UNL     1     101.964 132.638 141.578  0.00  0.00    +0.000 A 
ATOM      9  C   UNL     1     101.703 133.434 141.769  0.00  0.00    +0.000 A 
ATOM     10  C   UNL     1     103.129 133.173 140.865  0.00  0.00    +0.000 A 
ATOM     11  C   UNL     1     102.165 134.107 141.502  0.00  0.00    +0.000 A 
ATOM     12  C   UNL     1     102.883 133.976 141.047  0.00  0.00    +0.000 A 
ATOM     13  C   UNL     1     101.013 133.550 142.206  0.00  0.00    +0.000 C 
ENDROOT
BRANCH   4  14
ATOM     14  C   UNL     1     102.688 130.332 141.045  0.00  0.00    +0.000 A 
ATOM     15  C   UNL     1     103.185 129.925 141.562  0.00  0.00    +0.000 A 
ATOM     16  C   UNL     1     102.432 129.970 140.349  0.00  0.00    +0.000 A 
ATOM     17  C   UNL     1     103.426 129.156 141.385  0.00  0.00    +0.000 A 
ATOM     18  C   UNL     1     102.673 129.200 140.171  0.00  0.00    +0.000 A 
ATOM     19  C   UNL     1     103.170 128.794 140.690  0.00  0.00    +0.000 A 
BRANCH  17  20
ATOM     20  O   UNL     1     103.923 128.749 141.903  0.00  0.00    +0.000 OA
ATOM     21  C   UNL     1     104.543 128.293 141.607  0.00  0.00    +0.000 C 
ENDBRANCH  17  20
ENDBRANCH   4  14
BRANCH  11  22
ATOM     22  O   UNL     1     101.921 134.875 141.681  0.00  0.00    +0.000 OA
ATOM     23  C   UNL     1     102.352 135.520 141.400  0.00  0.00    +0.000 C 
ENDBRANCH  11  22
TORSDOF 3
ENDMDL
MODEL 3
REMARK VINA RESULT:      -7.8      6.823      8.744
REMARK  Name = 131835823
REMARK  3 active torsions:
REMARK  status: ('A' for Active; 'I' for Inactive)
REMARK    1  A    between atoms: O_3  and  C_14
REMARK    2  A    between atoms: O_5  and  C_19
REMARK    3  A    between atoms: C_6  and  C_11
REMARK                            x       y       z     vdW  Elec       q    Type
REMARK                         _______ _______ _______ _____ _____    ______ ____
ROOT
ATOM      1  O   UNL     1     105.517 123.256 139.929  0.00  0.00    +0.000 OA
ATOM      2  O   UNL     1     104.123 125.166 139.199  0.00  0.00    +0.000 OA
ATOM      3  O   UNL     1     104.859 126.067 140.051  0.00  0.00    +0.000 OA
ATOM      4  C   UNL     1     104.447 123.776 139.137  0.00  0.00    +0.000 C 
ATOM      5  C   UNL     1     104.912 123.138 139.380  0.00  0.00    +0.000 C 
ATOM      6  C   UNL     1     104.588 124.529 139.442  0.00  0.00    +0.000 C 
ATOM      7  C   UNL     1     105.192 124.646 139.990  0.00  0.00    +0.000 A 
ATOM      8  C   UNL     1     105.657 124.008 140.234  0.00  0.00    +0.000 A 
ATOM      9  C   UNL     1     106.291 124.118 140.805  0.00  0.00    +0.000 A 
ATOM     10  C   UNL     1     105.329 125.436 140.301  0.00  0.00    +0.000 A 
ATOM     11  C   UNL     1     106.442 124.900 141.126  0.00  0.00    +0.000 A 
ATOM     12  C   UNL     1     105.958 125.564 140.872  0.00  0.00    +0.000 A 
ATOM     13  C   UNL     1     106.750 123.475 141.043  0.00  0.00    +0.000 C 
ENDROOT
BRANCH   4  14
ATOM     14  C   UNL     1     103.842 123.659 138.589  0.00  0.00    +0.000 A 
ATOM     15  C   UNL     1     104.024 123.520 137.796  0.00  0.00    +0.000 A 
ATOM     16  C   UNL     1     103.054 123.681 138.833  0.00  0.00    +0.000 A 
ATOM     17  C   UNL     1     103.420 123.403 137.248  0.00  0.00    +0.000 A 
ATOM     18  C   UNL     1     102.449 123.564 138.284  0.00  0.00    +0.000 A 
ATOM     19  C   UNL     1     102.632 123.425 137.492  0.00  0.00    +0.000 A 
BRANCH  17  20
ATOM     20  O   UNL     1     103.602 123.264 136.455  0.00  0.00    +0.000 OA
ATOM     21  C   UNL     1     103.042 122.920 135.957  0.00  0.00    +0.000 C 
ENDBRANCH  17  20
ENDBRANCH   4  14
BRANCH  11  22
ATOM     22  O   UNL     1     107.048 125.014 141.675  0.00  0.00    +0.000 OA
ATOM     23  C   UNL     1     107.280 125.778 141.879  0.00  0.00    +0.000 C 
ENDBRANCH  11  22
TORSDOF 3
ENDMDL
MODEL 4
REMARK VINA RESULT:      -7.8     12.965     14.338
REMARK  Name = 131835823
REMARK  3 active torsions:
REMARK  status: ('A' for Active; 'I' for Inactive)
REMARK    1  A    between atoms: O_3  and  C_14
REMARK    2  A    between atoms: O_5  and  C_19
REMARK    3  A    between atoms: C_6  and  C_11
REMARK                            x       y       z     vdW  Elec       q    Type
REMARK                         _______ _______ _______ _____ _____    ______ ____
ROOT
ATOM      1  O   UNL     1     113.942 127.849 135.951  0.00  0.00    +0.000 OA
ATOM      2  O   UNL     1     112.931 126.818 137.961  0.00  0.00    +0.000 OA
ATOM      3  O   UNL     1     112.479 128.104 138.430  0.00  0.00    +0.000 OA
ATOM      4  C   UNL     1     113.655 126.689 136.736  0.00  0.00    +0.000 C 
ATOM      5  C   UNL     1     113.992 127.034 136.065  0.00  0.00    +0.000 C 
ATOM      6  C   UNL     1     113.268 127.162 137.291  0.00  0.00    +0.000 C 
ATOM      7  C   UNL     1     113.218 127.976 137.177  0.00  0.00    +0.000 A 
ATOM      8  C   UNL     1     113.555 128.321 136.506  0.00  0.00    +0.000 A 
ATOM      9  C   UNL     1     113.510 129.169 136.376  0.00  0.00    +0.000 A 
ATOM     10  C   UNL     1     112.812 128.457 137.763  0.00  0.00    +0.000 A 
ATOM     11  C   UNL     1     113.108 129.665 136.951  0.00  0.00    +0.000 A 
ATOM     12  C   UNL     1     112.757 129.307 137.649  0.00  0.00    +0.000 A 
ATOM     13  C   UNL     1     113.849 129.504 135.703  0.00  0.00    +0.000 C 
ENDROOT
BRANCH   4  14
ATOM     14  C   UNL     1     113.705 125.874 136.851  0.00  0.00    +0.000 A 
ATOM     15  C   UNL     1     113.112 125.379 136.562  0.00  0.00    +0.000 A 
ATOM     16  C   UNL     1     114.349 125.554 137.254  0.00  0.00    +0.000 A 
ATOM     17  C   UNL     1     113.162 124.564 136.676  0.00  0.00    +0.000 A 
ATOM     18  C   UNL     1     114.400 124.737 137.369  0.00  0.00    +0.000 A 
ATOM     19  C   UNL     1     113.806 124.243 137.080  0.00  0.00    +0.000 A 
BRANCH  17  20
ATOM     20  O   UNL     1     112.569 124.069 136.387  0.00  0.00    +0.000 OA
ATOM     21  C   UNL     1     112.151 123.581 136.903  0.00  0.00    +0.000 C 
ENDBRANCH  17  20
ENDBRANCH   4  14
BRANCH  11  22
ATOM     22  O   UNL     1     113.059 130.480 136.833  0.00  0.00    +0.000 OA
ATOM     23  C   UNL     1     112.692 130.957 137.398  0.00  0.00    +0.000 C 
ENDBRANCH  11  22
TORSDOF 3
ENDMDL
MODEL 5
REMARK VINA RESULT:      -7.7      8.033      8.954
REMARK  Name = 131835823
REMARK  3 active torsions:
REMARK  status: ('A' for Active; 'I' for Inactive)
REMARK    1  A    between atoms: O_3  and  C_14
REMARK    2  A    between atoms: O_5  and  C_19
REMARK    3  A    between atoms: C_6  and  C_11
REMARK                            x       y       z     vdW  Elec       q    Type
REMARK                         _______ _______ _______ _____ _____    ______ ____
ROOT
ATOM      1  O   UNL     1     103.478 130.335 143.157  0.00  0.00    +0.000 OA
ATOM      2  O   UNL     1     102.360 130.530 140.958  0.00  0.00    +0.000 OA
ATOM      3  O   UNL     1     103.041 129.354 140.475  0.00  0.00    +0.000 OA
ATOM      4  C   UNL     1     102.574 131.016 142.285  0.00  0.00    +0.000 C 
ATOM      5  C   UNL     1     102.948 130.951 143.018  0.00  0.00    +0.000 C 
ATOM      6  C   UNL     1     102.733 130.465 141.691  0.00  0.00    +0.000 C 
ATOM      7  C   UNL     1     103.263 129.849 141.831  0.00  0.00    +0.000 A 
ATOM      8  C   UNL     1     103.636 129.784 142.565  0.00  0.00    +0.000 A 
ATOM      9  C   UNL     1     104.191 129.147 142.722  0.00  0.00    +0.000 A 
ATOM     10  C   UNL     1     103.419 129.281 141.205  0.00  0.00    +0.000 A 
ATOM     11  C   UNL     1     104.359 128.570 142.108  0.00  0.00    +0.000 A 
ATOM     12  C   UNL     1     103.971 128.638 141.344  0.00  0.00    +0.000 A 
ATOM     13  C   UNL     1     104.559 129.090 143.458  0.00  0.00    +0.000 C 
ENDROOT
BRANCH   4  14
ATOM     14  C   UNL     1     102.044 131.632 142.145  0.00  0.00    +0.000 A 
ATOM     15  C   UNL     1     102.315 132.350 141.842  0.00  0.00    +0.000 A 
ATOM     16  C   UNL     1     101.242 131.530 142.309  0.00  0.00    +0.000 A 
ATOM     17  C   UNL     1     101.784 132.965 141.703  0.00  0.00    +0.000 A 
ATOM     18  C   UNL     1     100.710 132.146 142.170  0.00  0.00    +0.000 A 
ATOM     19  C   UNL     1     100.982 132.864 141.867  0.00  0.00    +0.000 A 
BRANCH  17  20
ATOM     20  O   UNL     1     102.055 133.683 141.399  0.00  0.00    +0.000 OA
ATOM     21  C   UNL     1     101.615 134.372 141.512  0.00  0.00    +0.000 C 
ENDBRANCH  17  20
ENDBRANCH   4  14
BRANCH  11  22
ATOM     22  O   UNL     1     104.891 127.955 142.250  0.00  0.00    +0.000 OA
ATOM     23  C   UNL     1     105.085 127.429 141.645  0.00  0.00    +0.000 C 
ENDBRANCH  11  22
TORSDOF 3
ENDMDL
MODEL 6
REMARK VINA RESULT:      -7.7     11.809     12.842
REMARK  Name = 131835823
REMARK  3 active torsions:
REMARK  status: ('A' for Active; 'I' for Inactive)
REMARK    1  A    between atoms: O_3  and  C_14
REMARK    2  A    between atoms: O_5  and  C_19
REMARK    3  A    between atoms: C_6  and  C_11
REMARK                            x       y       z     vdW  Elec       q    Type
REMARK                         _______ _______ _______ _____ _____    ______ ____
ROOT
ATOM      1  O   UNL     1     110.529 125.393 135.299  0.00  0.00    +0.000 OA
ATOM      2  O   UNL     1     111.361 125.671 137.613  0.00  0.00    +0.000 OA
ATOM      3  O   UNL     1     110.374 126.689 137.877  0.00  0.00    +0.000 OA
ATOM      4  C   UNL     1     111.440 125.029 136.339  0.00  0.00    +0.000 C 
ATOM      5  C   UNL     1     111.162 124.936 135.567  0.00  0.00    +0.000 C 
ATOM      6  C   UNL     1     111.084 125.578 136.842  0.00  0.00    +0.000 C 
ATOM      7  C   UNL     1     110.452 126.035 136.574  0.00  0.00    +0.000 A 
ATOM      8  C   UNL     1     110.174 125.942 135.801  0.00  0.00    +0.000 A 
ATOM      9  C   UNL     1     109.515 126.412 135.510  0.00  0.00    +0.000 A 
ATOM     10  C   UNL     1     110.090 126.604 137.107  0.00  0.00    +0.000 A 
ATOM     11  C   UNL     1     109.142 126.985 136.029  0.00  0.00    +0.000 A 
ATOM     12  C   UNL     1     109.431 127.082 136.833  0.00  0.00    +0.000 A 
ATOM     13  C   UNL     1     109.245 126.312 134.737  0.00  0.00    +0.000 C 
ENDROOT
BRANCH   4  14
ATOM     14  C   UNL     1     112.072 124.573 136.607  0.00  0.00    +0.000 A 
ATOM     15  C   UNL     1     112.845 124.846 136.519  0.00  0.00    +0.000 A 
ATOM     16  C   UNL     1     111.931 123.842 136.964  0.00  0.00    +0.000 A 
ATOM     17  C   UNL     1     113.477 124.390 136.787  0.00  0.00    +0.000 A 
ATOM     18  C   UNL     1     112.564 123.385 137.233  0.00  0.00    +0.000 A 
ATOM     19  C   UNL     1     113.337 123.660 137.144  0.00  0.00    +0.000 A 
BRANCH  17  20
ATOM     20  O   UNL     1     114.251 124.663 136.699  0.00  0.00    +0.000 OA
ATOM     21  C   UNL     1     114.749 124.712 137.355  0.00  0.00    +0.000 C 
ENDBRANCH  17  20
ENDBRANCH   4  14
BRANCH  11  22
ATOM     22  O   UNL     1     108.509 127.440 135.758  0.00  0.00    +0.000 OA
ATOM     23  C   UNL     1     108.522 128.260 135.849  0.00  0.00    +0.000 C 
ENDBRANCH  11  22
TORSDOF 3
ENDMDL
MODEL 7
REMARK VINA RESULT:      -7.7     12.927     14.064
REMARK  Name = 131835823
REMARK  3 active torsions:
REMARK  status: ('A' for Active; 'I' for Inactive)
REMARK    1  A    between atoms: O_3  and  C_14
REMARK    2  A    between atoms: O_5  and  C_19
REMARK    3  A    between atoms: C_6  and  C_11
REMARK                            x       y       z     vdW  Elec       q    Type
REMARK                         _______ _______ _______ _____ _____    ______ ____
ROOT
ATOM      1  O   UNL     1     111.742 126.808 135.941  0.00  0.00    +0.000 OA
ATOM      2  O   UNL     1     114.052 126.999 136.809  0.00  0.00    +0.000 OA
ATOM      3  O   UNL     1     114.094 125.585 137.089  0.00  0.00    +0.000 OA
ATOM      4  C   UNL     1     112.890 127.606 136.241  0.00  0.00    +0.000 C 
ATOM      5  C   UNL     1     112.119 127.542 135.952  0.00  0.00    +0.000 C 
ATOM      6  C   UNL     1     113.282 126.935 136.519  0.00  0.00    +0.000 C 
ATOM      7  C   UNL     1     112.905 126.202 136.509  0.00  0.00    +0.000 A 
ATOM      8  C   UNL     1     112.134 126.139 136.220  0.00  0.00    +0.000 A 
ATOM      9  C   UNL     1     111.730 125.380 136.203  0.00  0.00    +0.000 A 
ATOM     10  C   UNL     1     113.324 125.511 136.802  0.00  0.00    +0.000 A 
ATOM     11  C   UNL     1     112.134 124.679 136.492  0.00  0.00    +0.000 A 
ATOM     12  C   UNL     1     112.937 124.745 136.793  0.00  0.00    +0.000 A 
ATOM     13  C   UNL     1     110.960 125.326 135.912  0.00  0.00    +0.000 C 
ENDROOT
BRANCH   4  14
ATOM     14  C   UNL     1     113.267 128.339 136.252  0.00  0.00    +0.000 A 
ATOM     15  C   UNL     1     113.155 128.852 136.888  0.00  0.00    +0.000 A 
ATOM     16  C   UNL     1     113.756 128.560 135.625  0.00  0.00    +0.000 A 
ATOM     17  C   UNL     1     113.532 129.585 136.898  0.00  0.00    +0.000 A 
ATOM     18  C   UNL     1     114.134 129.294 135.635  0.00  0.00    +0.000 A 
ATOM     19  C   UNL     1     114.021 129.806 136.272  0.00  0.00    +0.000 A 
BRANCH  17  20
ATOM     20  O   UNL     1     113.420 130.098 137.535  0.00  0.00    +0.000 OA
ATOM     21  C   UNL     1     114.047 130.559 137.809  0.00  0.00    +0.000 C 
ENDBRANCH  17  20
ENDBRANCH   4  14
BRANCH  11  22
ATOM     22  O   UNL     1     111.754 123.946 136.480  0.00  0.00    +0.000 OA
ATOM     23  C   UNL     1     112.020 123.336 136.968  0.00  0.00    +0.000 C 
ENDBRANCH  11  22
TORSDOF 3
ENDMDL
MODEL 8
REMARK VINA RESULT:      -7.6     12.588     13.771
REMARK  Name = 131835823
REMARK  3 active torsions:
REMARK  status: ('A' for Active; 'I' for Inactive)
REMARK    1  A    between atoms: O_3  and  C_14
REMARK    2  A    between atoms: O_5  and  C_19
REMARK    3  A    between atoms: C_6  and  C_11
REMARK                            x       y       z     vdW  Elec       q    Type
REMARK                         _______ _______ _______ _____ _____    ______ ____
ROOT
ATOM      1  O   UNL     1     111.468 124.902 136.320  0.00  0.00    +0.000 OA
ATOM      2  O   UNL     1     112.074 127.287 136.064  0.00  0.00    +0.000 OA
ATOM      3  O   UNL     1     113.417 127.025 136.521  0.00  0.00    +0.000 OA
ATOM      4  C   UNL     1     111.109 126.239 135.964  0.00  0.00    +0.000 C 
ATOM      5  C   UNL     1     110.906 125.443 136.049  0.00  0.00    +0.000 C 
ATOM      6  C   UNL     1     111.872 126.492 136.149  0.00  0.00    +0.000 C 
ATOM      7  C   UNL     1     112.432 125.951 136.420  0.00  0.00    +0.000 A 
ATOM      8  C   UNL     1     112.230 125.155 136.505  0.00  0.00    +0.000 A 
ATOM      9  C   UNL     1     112.805 124.582 136.786  0.00  0.00    +0.000 A 
ATOM     10  C   UNL     1     113.224 126.228 136.610  0.00  0.00    +0.000 A 
ATOM     11  C   UNL     1     113.601 124.840 136.981  0.00  0.00    +0.000 A 
ATOM     12  C   UNL     1     113.812 125.669 136.892  0.00  0.00    +0.000 A 
ATOM     13  C   UNL     1     112.594 123.788 136.869  0.00  0.00    +0.000 C 
ENDROOT
BRANCH   4  14
ATOM     14  C   UNL     1     110.549 126.780 135.693  0.00  0.00    +0.000 A 
ATOM     15  C   UNL     1     110.075 127.188 136.231  0.00  0.00    +0.000 A 
ATOM     16  C   UNL     1     110.461 126.913 134.884  0.00  0.00    +0.000 A 
ATOM     17  C   UNL     1     109.515 127.729 135.961  0.00  0.00    +0.000 A 
ATOM     18  C   UNL     1     109.900 127.454 134.612  0.00  0.00    +0.000 A 
ATOM     19  C   UNL     1     109.427 127.862 135.151  0.00  0.00    +0.000 A 
BRANCH  17  20
ATOM     20  O   UNL     1     109.041 128.137 136.499  0.00  0.00    +0.000 OA
ATOM     21  C   UNL     1     109.022 128.962 136.490  0.00  0.00    +0.000 C 
ENDBRANCH  17  20
ENDBRANCH   4  14
BRANCH  11  22
ATOM     22  O   UNL     1     114.159 124.296 137.251  0.00  0.00    +0.000 OA
ATOM     23  C   UNL     1     114.939 124.535 137.380  0.00  0.00    +0.000 C 
ENDBRANCH  11  22
TORSDOF 3
ENDMDL
MODEL 9
REMARK VINA RESULT:      -7.5      3.243      3.761
REMARK  Name = 131835823
REMARK  3 active torsions:
REMARK  status: ('A' for Active; 'I' for Inactive)
REMARK    1  A    between atoms: O_3  and  C_14
REMARK    2  A    between atoms: O_5  and  C_19
REMARK    3  A    between atoms: C_6  and  C_11
REMARK                            x       y       z     vdW  Elec       q    Type
REMARK                         _______ _______ _______ _____ _____    ______ ____
ROOT
ATOM      1  O   UNL     1     106.244 127.046 145.976  0.00  0.00    +0.000 OA
ATOM      2  O   UNL     1     106.672 124.611 145.861  0.00  0.00    +0.000 OA
ATOM      3  O   UNL     1     106.301 124.582 144.468  0.00  0.00    +0.000 OA
ATOM      4  C   UNL     1     106.644 125.828 146.609  0.00  0.00    +0.000 C 
ATOM      5  C   UNL     1     106.502 126.641 146.647  0.00  0.00    +0.000 C 
ATOM      6  C   UNL     1     106.529 125.423 145.899  0.00  0.00    +0.000 C 
ATOM      7  C   UNL     1     106.272 125.828 145.229  0.00  0.00    +0.000 A 
ATOM      8  C   UNL     1     106.129 126.641 145.267  0.00  0.00    +0.000 A 
ATOM      9  C   UNL     1     105.861 127.074 144.575  0.00  0.00    +0.000 A 
ATOM     10  C   UNL     1     106.156 125.394 144.496  0.00  0.00    +0.000 A 
ATOM     11  C   UNL     1     105.740 126.657 143.834  0.00  0.00    +0.000 A 
ATOM     12  C   UNL     1     105.888 125.811 143.794  0.00  0.00    +0.000 A 
ATOM     13  C   UNL     1     105.721 127.886 144.623  0.00  0.00    +0.000 C 
ENDROOT
BRANCH   4  14
ATOM     14  C   UNL     1     106.901 125.423 147.279  0.00  0.00    +0.000 A 
ATOM     15  C   UNL     1     106.355 125.042 147.767  0.00  0.00    +0.000 A 
ATOM     16  C   UNL     1     107.705 125.399 147.463  0.00  0.00    +0.000 A 
ATOM     17  C   UNL     1     106.612 124.637 148.437  0.00  0.00    +0.000 A 
ATOM     18  C   UNL     1     107.963 124.993 148.134  0.00  0.00    +0.000 A 
ATOM     19  C   UNL     1     107.416 124.613 148.621  0.00  0.00    +0.000 A 
BRANCH  17  20
ATOM     20  O   UNL     1     106.066 124.256 148.925  0.00  0.00    +0.000 OA
ATOM     21  C   UNL     1     105.799 124.625 149.612  0.00  0.00    +0.000 C 
ENDBRANCH  17  20
ENDBRANCH   4  14
BRANCH  11  22
ATOM     22  O   UNL     1     105.482 127.065 143.165  0.00  0.00    +0.000 OA
ATOM     23  C   UNL     1     105.605 126.745 142.414  0.00  0.00    +0.000 C 
ENDBRANCH  11  22
TORSDOF 3
ENDMDL
MODEL 10
REMARK VINA RESULT:      -7.5      1.056      4.394
REMARK  Name = 131835823
REMARK  3 active torsions:
REMARK  status: ('A' for Active; 'I' for Inactive)
REMARK    1  A    between atoms: O_3  and  C_14
REMARK    2  A    between atoms: O_5  and  C_19
REMARK    3  A    between atoms: C_6  and  C_11
REMARK                            x       y       z     vdW  Elec       q    Type
REMARK                         _______ _______ _______ _____ _____    ______ ____
ROOT
ATOM      1  O   UNL     1     103.352 125.460 147.842  0.00  0.00    +0.000 OA
ATOM      2  O   UNL     1     103.785 123.531 146.353  0.00  0.00    +0.000 OA
ATOM      3  O   UNL     1     105.188 123.859 146.287  0.00  0.00    +0.000 OA
ATOM      4  C   UNL     1     102.876 124.321 147.121  0.00  0.00    +0.000 C 
ATOM      5  C   UNL     1     102.731 124.964 147.618  0.00  0.00    +0.000 C 
ATOM      6  C   UNL     1     103.641 124.174 146.849  0.00  0.00    +0.000 C 
ATOM      7  C   UNL     1     104.261 124.669 147.073  0.00  0.00    +0.000 A 
ATOM      8  C   UNL     1     104.116 125.312 147.570  0.00  0.00    +0.000 A 
ATOM      9  C   UNL     1     104.755 125.836 147.810  0.00  0.00    +0.000 A 
ATOM     10  C   UNL     1     105.053 124.505 146.783  0.00  0.00    +0.000 A 
ATOM     11  C   UNL     1     105.553 125.687 147.530  0.00  0.00    +0.000 A 
ATOM     12  C   UNL     1     105.703 125.017 147.013  0.00  0.00    +0.000 A 
ATOM     13  C   UNL     1     104.601 126.476 148.307  0.00  0.00    +0.000 C 
ENDROOT
BRANCH   4  14
ATOM     14  C   UNL     1     102.256 123.826 146.897  0.00  0.00    +0.000 A 
ATOM     15  C   UNL     1     101.897 123.920 146.160  0.00  0.00    +0.000 A 
ATOM     16  C   UNL     1     101.994 123.235 147.410  0.00  0.00    +0.000 A 
ATOM     17  C   UNL     1     101.277 123.425 145.936  0.00  0.00    +0.000 A 
ATOM     18  C   UNL     1     101.373 122.739 147.186  0.00  0.00    +0.000 A 
ATOM     19  C   UNL     1     101.015 122.835 146.449  0.00  0.00    +0.000 A 
BRANCH  17  20
ATOM     20  O   UNL     1     100.918 123.520 145.199  0.00  0.00    +0.000 OA
ATOM     21  C   UNL     1     100.711 122.859 144.753  0.00  0.00    +0.000 C 
ENDBRANCH  17  20
ENDBRANCH   4  14
BRANCH  11  22
ATOM     22  O   UNL     1     106.171 126.184 147.756  0.00  0.00    +0.000 OA
ATOM     23  C   UNL     1     106.914 126.104 147.405  0.00  0.00    +0.000 C 
ENDBRANCH  11  22
TORSDOF 3
ENDMDL
