MODEL 1
REMARK VINA RESULT:     -11.5      0.000      0.000
REMARK  Name = 44259247
REMARK  6 active torsions:
REMARK  status: ('A' for Active; 'I' for Inactive)
REMARK    1  A    between atoms: O_3  and  C_22
REMARK    2  A    between atoms: O_3  and  C_27
REMARK    3  A    between atoms: O_6  and  C_25
REMARK    4  A    between atoms: O_6  and  C_29
REMARK    5  A    between atoms: C_17  and  C_27
REMARK    6  A    between atoms: C_36  and  C_38
REMARK                            x       y       z     vdW  Elec       q    Type
REMARK                         _______ _______ _______ _____ _____    ______ ____
ROOT
ATOM      1  O   UNL     1     107.295 125.712 140.532  0.00  0.00    +0.000 OA
ENDROOT
BRANCH   1   6
ATOM      2  O   UNL     1     105.017 124.369 139.311  0.00  0.00    +0.000 OA
ATOM      3  O   UNL     1     105.921 123.546 141.929  0.00  0.00    +0.000 OA
ATOM      4  O   UNL     1     104.796 122.904 141.293  0.00  0.00    +0.000 OA
ATOM      5  O   UNL     1     103.753 122.739 140.025  0.00  0.00    +0.000 OA
ATOM      6  C   UNL     1     106.701 125.140 140.562  0.00  0.00    +0.000 A 
ATOM      7  C   UNL     1     106.155 125.050 139.905  0.00  0.00    +0.000 A 
ATOM      8  C   UNL     1     106.624 124.631 141.250  0.00  0.00    +0.000 A 
ATOM      9  C   UNL     1     105.539 124.452 139.945  0.00  0.00    +0.000 A 
ATOM     10  C   UNL     1     106.002 124.039 141.272  0.00  0.00    +0.000 A 
ATOM     11  C   UNL     1     105.466 123.963 140.606  0.00  0.00    +0.000 A 
ATOM     12  C   UNL     1     104.871 123.393 140.633  0.00  0.00    +0.000 A 
ATOM     13  C   UNL     1     104.422 123.798 139.338  0.00  0.00    +0.000 A 
ATOM     14  C   UNL     1     104.349 123.310 139.999  0.00  0.00    +0.000 A 
BRANCH  13  17
ATOM     15  O   UNL     1     103.915 123.016 136.636  0.00  0.00    +0.000 OA
ATOM     16  O   UNL     1     102.337 123.468 136.802  0.00  0.00    +0.000 OA
ATOM     17  C   UNL     1     103.901 123.716 138.704  0.00  0.00    +0.000 A 
ATOM     18  C   UNL     1     104.168 123.408 137.987  0.00  0.00    +0.000 A 
ATOM     19  C   UNL     1     103.112 123.942 138.787  0.00  0.00    +0.000 A 
ATOM     20  C   UNL     1     103.647 123.325 137.353  0.00  0.00    +0.000 A 
ATOM     21  C   UNL     1     102.590 123.859 138.152  0.00  0.00    +0.000 A 
ATOM     22  C   UNL     1     102.858 123.551 137.436  0.00  0.00    +0.000 A 
ENDBRANCH  13  17
ENDBRANCH   1   6
BRANCH   1  31
ATOM     23  O   UNL     1     106.681 126.708 141.351  0.00  0.00    +0.000 OA
ATOM     24  O   UNL     1     107.514 127.990 142.909  0.00  0.00    +0.000 OA
ATOM     25  O   UNL     1     108.853 127.137 142.459  0.00  0.00    +0.000 OA
ATOM     26  O   UNL     1     108.743 125.997 141.270  0.00  0.00    +0.000 OA
ATOM     27  C   UNL     1     106.735 127.278 141.945  0.00  0.00    +0.000 C 
ATOM     28  C   UNL     1     107.460 127.421 142.315  0.00  0.00    +0.000 C 
ATOM     29  C   UNL     1     108.128 126.994 142.089  0.00  0.00    +0.000 C 
ATOM     30  C   UNL     1     108.074 126.424 141.495  0.00  0.00    +0.000 C 
ATOM     31  C   UNL     1     107.350 126.282 141.126  0.00  0.00    +0.000 C 
BRANCH  27  32
ATOM     32  C   UNL     1     106.067 127.705 142.171  0.00  0.00    +0.000 C 
BRANCH  32  33
ATOM     33  O   UNL     1     105.438 127.796 141.645  0.00  0.00    +0.000 OA
BRANCH  33  39
ATOM     34  O   UNL     1     104.821 128.723 142.540  0.00  0.00    +0.000 OA
ATOM     35  O   UNL     1     104.236 128.058 140.545  0.00  0.00    +0.000 OA
ATOM     36  O   UNL     1     103.018 129.116 140.890  0.00  0.00    +0.000 OA
ATOM     37  O   UNL     1     103.002 129.912 142.335  0.00  0.00    +0.000 OA
ATOM     38  C   UNL     1     104.228 128.456 141.268  0.00  0.00    +0.000 C 
ATOM     39  C   UNL     1     104.829 128.325 141.818  0.00  0.00    +0.000 C 
ATOM     40  C   UNL     1     103.619 128.985 141.440  0.00  0.00    +0.000 C 
ATOM     41  C   UNL     1     103.611 129.383 142.162  0.00  0.00    +0.000 C 
ATOM     42  C   UNL     1     104.212 129.252 142.712  0.00  0.00    +0.000 C 
ATOM     43  C   UNL     1     104.203 129.651 143.435  0.00  0.00    +0.000 C 
ENDBRANCH  33  39
ENDBRANCH  32  33
ENDBRANCH  27  32
ENDBRANCH   1  31
TORSDOF 6
ENDMDL
MODEL 2
REMARK VINA RESULT:     -11.4      6.916      9.021
REMARK  Name = 44259247
REMARK  6 active torsions:
REMARK  status: ('A' for Active; 'I' for Inactive)
REMARK    1  A    between atoms: O_3  and  C_22
REMARK    2  A    between atoms: O_3  and  C_27
REMARK    3  A    between atoms: O_6  and  C_25
REMARK    4  A    between atoms: O_6  and  C_29
REMARK    5  A    between atoms: C_17  and  C_27
REMARK    6  A    between atoms: C_36  and  C_38
REMARK                            x       y       z     vdW  Elec       q    Type
REMARK                         _______ _______ _______ _____ _____    ______ ____
ROOT
ATOM      1  O   UNL     1     109.063 128.312 136.640  0.00  0.00    +0.000 OA
ENDROOT
BRANCH   1   6
ATOM      2  O   UNL     1     111.364 126.529 136.754  0.00  0.00    +0.000 OA
ATOM      3  O   UNL     1     109.187 125.932 134.950  0.00  0.00    +0.000 OA
ATOM      4  O   UNL     1     110.342 125.073 135.033  0.00  0.00    +0.000 OA
ATOM      5  O   UNL     1     111.816 124.689 135.669  0.00  0.00    +0.000 OA
ATOM      6  C   UNL     1     109.457 127.633 136.382  0.00  0.00    +0.000 A 
ATOM      7  C   UNL     1     110.225 127.429 136.710  0.00  0.00    +0.000 A 
ATOM      8  C   UNL     1     109.102 127.128 135.785  0.00  0.00    +0.000 A 
ATOM      9  C   UNL     1     110.627 126.721 136.436  0.00  0.00    +0.000 A 
ATOM     10  C   UNL     1     109.520 126.424 135.523  0.00  0.00    +0.000 A 
ATOM     11  C   UNL     1     110.286 126.236 135.862  0.00  0.00    +0.000 A 
ATOM     12  C   UNL     1     110.682 125.558 135.606  0.00  0.00    +0.000 A 
ATOM     13  C   UNL     1     111.760 125.852 136.498  0.00  0.00    +0.000 A 
ATOM     14  C   UNL     1     111.419 125.367 135.924  0.00  0.00    +0.000 A 
BRANCH  13  17
ATOM     15  O   UNL     1     114.608 126.087 136.462  0.00  0.00    +0.000 OA
ATOM     16  O   UNL     1     114.707 125.085 137.769  0.00  0.00    +0.000 OA
ATOM     17  C   UNL     1     112.496 125.660 136.816  0.00  0.00    +0.000 A 
ATOM     18  C   UNL     1     113.184 125.969 136.480  0.00  0.00    +0.000 A 
ATOM     19  C   UNL     1     112.546 125.159 137.469  0.00  0.00    +0.000 A 
ATOM     20  C   UNL     1     113.921 125.778 136.798  0.00  0.00    +0.000 A 
ATOM     21  C   UNL     1     113.284 124.968 137.787  0.00  0.00    +0.000 A 
ATOM     22  C   UNL     1     113.970 125.277 137.451  0.00  0.00    +0.000 A 
ENDBRANCH  13  17
ENDBRANCH   1   6
BRANCH   1  31
ATOM     23  O   UNL     1     110.016 129.304 136.253  0.00  0.00    +0.000 OA
ATOM     24  O   UNL     1     109.748 131.237 135.275  0.00  0.00    +0.000 OA
ATOM     25  O   UNL     1     108.185 130.715 135.367  0.00  0.00    +0.000 OA
ATOM     26  O   UNL     1     107.843 129.252 136.050  0.00  0.00    +0.000 OA
ATOM     27  C   UNL     1     110.187 130.035 135.912  0.00  0.00    +0.000 C 
ATOM     28  C   UNL     1     109.577 130.506 135.616  0.00  0.00    +0.000 C 
ATOM     29  C   UNL     1     108.796 130.244 135.663  0.00  0.00    +0.000 C 
ATOM     30  C   UNL     1     108.625 129.513 136.004  0.00  0.00    +0.000 C 
ATOM     31  C   UNL     1     109.234 129.043 136.299  0.00  0.00    +0.000 C 
BRANCH  27  32
ATOM     32  C   UNL     1     110.968 130.296 135.866  0.00  0.00    +0.000 C 
BRANCH  32  33
ATOM     33  O   UNL     1     111.446 130.291 136.538  0.00  0.00    +0.000 OA
BRANCH  33  39
ATOM     34  O   UNL     1     112.626 129.825 135.880  0.00  0.00    +0.000 OA
ATOM     35  O   UNL     1     112.371 131.218 137.542  0.00  0.00    +0.000 OA
ATOM     36  O   UNL     1     114.014 131.215 137.386  0.00  0.00    +0.000 OA
ATOM     37  O   UNL     1     114.731 130.286 136.227  0.00  0.00    +0.000 OA
ATOM     38  C   UNL     1     112.730 130.753 136.961  0.00  0.00    +0.000 C 
ATOM     39  C   UNL     1     112.267 130.289 136.460  0.00  0.00    +0.000 C 
ATOM     40  C   UNL     1     113.551 130.752 136.884  0.00  0.00    +0.000 C 
ATOM     41  C   UNL     1     113.909 130.287 136.304  0.00  0.00    +0.000 C 
ATOM     42  C   UNL     1     113.447 129.824 135.803  0.00  0.00    +0.000 C 
ATOM     43  C   UNL     1     113.806 129.359 135.223  0.00  0.00    +0.000 C 
ENDBRANCH  33  39
ENDBRANCH  32  33
ENDBRANCH  27  32
ENDBRANCH   1  31
TORSDOF 6
ENDMDL
MODEL 3
REMARK VINA RESULT:     -11.3      6.710      8.362
REMARK  Name = 44259247
REMARK  6 active torsions:
REMARK  status: ('A' for Active; 'I' for Inactive)
REMARK    1  A    between atoms: O_3  and  C_22
REMARK    2  A    between atoms: O_3  and  C_27
REMARK    3  A    between atoms: O_6  and  C_25
REMARK    4  A    between atoms: O_6  and  C_29
REMARK    5  A    between atoms: C_17  and  C_27
REMARK    6  A    between atoms: C_36  and  C_38
REMARK                            x       y       z     vdW  Elec       q    Type
REMARK                         _______ _______ _______ _____ _____    ______ ____
ROOT
ATOM      1  O   UNL     1     110.356 128.742 135.123  0.00  0.00    +0.000 OA
ENDROOT
BRANCH   1   6
ATOM      2  O   UNL     1     112.113 126.676 136.186  0.00  0.00    +0.000 OA
ATOM      3  O   UNL     1     109.626 125.920 134.924  0.00  0.00    +0.000 OA
ATOM      4  O   UNL     1     110.521 124.925 135.462  0.00  0.00    +0.000 OA
ATOM      5  O   UNL     1     111.920 124.502 136.228  0.00  0.00    +0.000 OA
ATOM      6  C   UNL     1     110.522 127.945 135.264  0.00  0.00    +0.000 A 
ATOM      7  C   UNL     1     111.249 127.719 135.662  0.00  0.00    +0.000 A 
ATOM      8  C   UNL     1     109.969 127.337 135.012  0.00  0.00    +0.000 A 
ATOM      9  C   UNL     1     111.413 126.888 135.803  0.00  0.00    +0.000 A 
ATOM     10  C   UNL     1     110.150 126.511 135.162  0.00  0.00    +0.000 A 
ATOM     11  C   UNL     1     110.882 126.304 135.562  0.00  0.00    +0.000 A 
ATOM     12  C   UNL     1     111.051 125.509 135.703  0.00  0.00    +0.000 A 
ATOM     13  C   UNL     1     112.281 125.881 136.328  0.00  0.00    +0.000 A 
ATOM     14  C   UNL     1     111.750 125.297 136.086  0.00  0.00    +0.000 A 
BRANCH  13  17
ATOM     15  O   UNL     1     115.055 125.199 136.217  0.00  0.00    +0.000 OA
ATOM     16  O   UNL     1     115.080 125.035 137.858  0.00  0.00    +0.000 OA
ATOM     17  C   UNL     1     112.981 125.669 136.710  0.00  0.00    +0.000 A 
ATOM     18  C   UNL     1     113.668 125.540 136.273  0.00  0.00    +0.000 A 
ATOM     19  C   UNL     1     112.993 125.587 137.531  0.00  0.00    +0.000 A 
ATOM     20  C   UNL     1     114.368 125.328 136.655  0.00  0.00    +0.000 A 
ATOM     21  C   UNL     1     113.694 125.375 137.914  0.00  0.00    +0.000 A 
ATOM     22  C   UNL     1     114.380 125.246 137.475  0.00  0.00    +0.000 A 
ENDBRANCH  13  17
ENDBRANCH   1   6
BRANCH   1  31
ATOM     23  O   UNL     1     110.143 129.205 136.458  0.00  0.00    +0.000 OA
ATOM     24  O   UNL     1     108.569 130.462 137.300  0.00  0.00    +0.000 OA
ATOM     25  O   UNL     1     108.101 130.395 135.719  0.00  0.00    +0.000 OA
ATOM     26  O   UNL     1     108.995 129.534 134.631  0.00  0.00    +0.000 OA
ATOM     27  C   UNL     1     109.696 129.636 137.002  0.00  0.00    +0.000 C 
ATOM     28  C   UNL     1     109.015 130.032 136.756  0.00  0.00    +0.000 C 
ATOM     29  C   UNL     1     108.782 129.998 135.965  0.00  0.00    +0.000 C 
ATOM     30  C   UNL     1     109.229 129.568 135.421  0.00  0.00    +0.000 C 
ATOM     31  C   UNL     1     109.909 129.172 135.667  0.00  0.00    +0.000 C 
BRANCH  27  32
ATOM     32  C   UNL     1     109.930 129.670 137.793  0.00  0.00    +0.000 C 
BRANCH  32  33
ATOM     33  O   UNL     1     110.678 129.955 137.991  0.00  0.00    +0.000 OA
BRANCH  33  39
ATOM     34  O   UNL     1     110.942 129.002 139.022  0.00  0.00    +0.000 OA
ATOM     35  O   UNL     1     111.481 131.110 138.853  0.00  0.00    +0.000 OA
ATOM     36  O   UNL     1     112.147 130.734 140.315  0.00  0.00    +0.000 OA
ATOM     37  O   UNL     1     112.009 129.203 140.915  0.00  0.00    +0.000 OA
ATOM     38  C   UNL     1     111.412 130.344 139.153  0.00  0.00    +0.000 C 
ATOM     39  C   UNL     1     111.011 129.766 138.722  0.00  0.00    +0.000 C 
ATOM     40  C   UNL     1     111.745 130.156 139.884  0.00  0.00    +0.000 C 
ATOM     41  C   UNL     1     111.676 129.391 140.184  0.00  0.00    +0.000 C 
ATOM     42  C   UNL     1     111.274 128.814 139.752  0.00  0.00    +0.000 C 
ATOM     43  C   UNL     1     111.205 128.048 140.053  0.00  0.00    +0.000 C 
ENDBRANCH  33  39
ENDBRANCH  32  33
ENDBRANCH  27  32
ENDBRANCH   1  31
TORSDOF 6
ENDMDL
MODEL 4
REMARK VINA RESULT:     -11.3      6.757      8.123
REMARK  Name = 44259247
REMARK  6 active torsions:
REMARK  status: ('A' for Active; 'I' for Inactive)
REMARK    1  A    between atoms: O_3  and  C_22
REMARK    2  A    between atoms: O_3  and  C_27
REMARK    3  A    between atoms: O_6  and  C_25
REMARK    4  A    between atoms: O_6  and  C_29
REMARK    5  A    between atoms: C_17  and  C_27
REMARK    6  A    between atoms: C_36  and  C_38
REMARK                            x       y       z     vdW  Elec       q    Type
REMARK                         _______ _______ _______ _____ _____    ______ ____
ROOT
ATOM      1  O   UNL     1     112.773 129.482 135.480  0.00  0.00    +0.000 OA
ENDROOT
BRANCH   1   6
ATOM      2  O   UNL     1     111.917 126.754 136.034  0.00  0.00    +0.000 OA
ATOM      3  O   UNL     1     110.143 128.544 134.621  0.00  0.00    +0.000 OA
ATOM      4  O   UNL     1     109.754 127.187 134.913  0.00  0.00    +0.000 OA
ATOM      5  O   UNL     1     110.063 125.702 135.563  0.00  0.00    +0.000 OA
ATOM      6  C   UNL     1     112.204 128.886 135.429  0.00  0.00    +0.000 A 
ATOM      7  C   UNL     1     112.360 128.111 135.766  0.00  0.00    +0.000 A 
ATOM      8  C   UNL     1     111.453 129.036 135.040  0.00  0.00    +0.000 A 
ATOM      9  C   UNL     1     111.762 127.496 135.709  0.00  0.00    +0.000 A 
ATOM     10  C   UNL     1     110.867 128.409 134.992  0.00  0.00    +0.000 A 
ATOM     11  C   UNL     1     111.041 127.641 135.335  0.00  0.00    +0.000 A 
ATOM     12  C   UNL     1     110.475 127.043 135.286  0.00  0.00    +0.000 A 
ATOM     13  C   UNL     1     111.351 126.156 135.985  0.00  0.00    +0.000 A 
ATOM     14  C   UNL     1     110.629 126.301 135.611  0.00  0.00    +0.000 A 
BRANCH  13  17
ATOM     15  O   UNL     1     111.436 124.415 138.251  0.00  0.00    +0.000 OA
ATOM     16  O   UNL     1     111.969 123.187 137.286  0.00  0.00    +0.000 OA
ATOM     17  C   UNL     1     111.505 125.414 136.310  0.00  0.00    +0.000 A 
ATOM     18  C   UNL     1     111.394 125.286 137.118  0.00  0.00    +0.000 A 
ATOM     19  C   UNL     1     111.772 124.800 135.828  0.00  0.00    +0.000 A 
ATOM     20  C   UNL     1     111.548 124.544 137.444  0.00  0.00    +0.000 A 
ATOM     21  C   UNL     1     111.927 124.057 136.154  0.00  0.00    +0.000 A 
ATOM     22  C   UNL     1     111.815 123.930 136.961  0.00  0.00    +0.000 A 
ENDBRANCH  13  17
ENDBRANCH   1   6
BRANCH   1  31
ATOM     23  O   UNL     1     112.255 130.096 136.661  0.00  0.00    +0.000 OA
ATOM     24  O   UNL     1     113.274 131.049 138.340  0.00  0.00    +0.000 OA
ATOM     25  O   UNL     1     114.560 130.604 137.407  0.00  0.00    +0.000 OA
ATOM     26  O   UNL     1     114.310 129.821 135.977  0.00  0.00    +0.000 OA
ATOM     27  C   UNL     1     112.380 130.488 137.376  0.00  0.00    +0.000 C 
ATOM     28  C   UNL     1     113.149 130.657 137.625  0.00  0.00    +0.000 C 
ATOM     29  C   UNL     1     113.791 130.435 137.158  0.00  0.00    +0.000 C 
ATOM     30  C   UNL     1     113.666 130.043 136.443  0.00  0.00    +0.000 C 
ATOM     31  C   UNL     1     112.898 129.874 136.195  0.00  0.00    +0.000 C 
BRANCH  27  32
ATOM     32  C   UNL     1     111.737 130.710 137.843  0.00  0.00    +0.000 C 
BRANCH  32  33
ATOM     33  O   UNL     1     111.083 131.076 137.499  0.00  0.00    +0.000 OA
BRANCH  33  39
ATOM     34  O   UNL     1     110.181 130.558 138.478  0.00  0.00    +0.000 OA
ATOM     35  O   UNL     1     110.047 132.327 137.207  0.00  0.00    +0.000 OA
ATOM     36  O   UNL     1     108.627 132.433 138.040  0.00  0.00    +0.000 OA
ATOM     37  O   UNL     1     108.243 131.290 139.166  0.00  0.00    +0.000 OA
ATOM     38  C   UNL     1     109.855 131.754 137.770  0.00  0.00    +0.000 C 
ATOM     39  C   UNL     1     110.373 131.129 137.916  0.00  0.00    +0.000 C 
ATOM     40  C   UNL     1     109.145 131.808 138.186  0.00  0.00    +0.000 C 
ATOM     41  C   UNL     1     108.954 131.236 138.749  0.00  0.00    +0.000 C 
ATOM     42  C   UNL     1     109.472 130.611 138.895  0.00  0.00    +0.000 C 
ATOM     43  C   UNL     1     109.279 130.039 139.458  0.00  0.00    +0.000 C 
ENDBRANCH  33  39
ENDBRANCH  32  33
ENDBRANCH  27  32
ENDBRANCH   1  31
TORSDOF 6
ENDMDL
MODEL 5
REMARK VINA RESULT:     -11.2      6.272      8.646
REMARK  Name = 44259247
REMARK  6 active torsions:
REMARK  status: ('A' for Active; 'I' for Inactive)
REMARK    1  A    between atoms: O_3  and  C_22
REMARK    2  A    between atoms: O_3  and  C_27
REMARK    3  A    between atoms: O_6  and  C_25
REMARK    4  A    between atoms: O_6  and  C_29
REMARK    5  A    between atoms: C_17  and  C_27
REMARK    6  A    between atoms: C_36  and  C_38
REMARK                            x       y       z     vdW  Elec       q    Type
REMARK                         _______ _______ _______ _____ _____    ______ ____
ROOT
ATOM      1  O   UNL     1     110.930 127.502 135.554  0.00  0.00    +0.000 OA
ENDROOT
BRANCH   1   6
ATOM      2  O   UNL     1     110.144 130.086 136.645  0.00  0.00    +0.000 OA
ATOM      3  O   UNL     1     108.120 128.296 135.622  0.00  0.00    +0.000 OA
ATOM      4  O   UNL     1     107.768 129.583 136.169  0.00  0.00    +0.000 OA
ATOM      5  O   UNL     1     108.183 131.020 136.865  0.00  0.00    +0.000 OA
ATOM      6  C   UNL     1     110.344 128.052 135.742  0.00  0.00    +0.000 A 
ATOM      7  C   UNL     1     110.554 128.802 136.105  0.00  0.00    +0.000 A 
ATOM      8  C   UNL     1     109.518 127.877 135.577  0.00  0.00    +0.000 A 
ATOM      9  C   UNL     1     109.936 129.367 136.297  0.00  0.00    +0.000 A 
ATOM     10  C   UNL     1     108.915 128.455 135.777  0.00  0.00    +0.000 A 
ATOM     11  C   UNL     1     109.144 129.199 136.138  0.00  0.00    +0.000 A 
ATOM     12  C   UNL     1     108.560 129.750 136.328  0.00  0.00    +0.000 A 
ATOM     13  C   UNL     1     109.560 130.637 136.834  0.00  0.00    +0.000 A 
ATOM     14  C   UNL     1     108.768 130.469 136.676  0.00  0.00    +0.000 A 
BRANCH  13  17
ATOM     15  O   UNL     1     110.122 132.185 139.171  0.00  0.00    +0.000 OA
ATOM     16  O   UNL     1     110.390 133.511 138.227  0.00  0.00    +0.000 OA
ATOM     17  C   UNL     1     109.767 131.355 137.182  0.00  0.00    +0.000 A 
ATOM     18  C   UNL     1     109.841 131.411 138.002  0.00  0.00    +0.000 A 
ATOM     19  C   UNL     1     109.901 132.019 136.710  0.00  0.00    +0.000 A 
ATOM     20  C   UNL     1     110.049 132.129 138.351  0.00  0.00    +0.000 A 
ATOM     21  C   UNL     1     110.109 132.738 137.059  0.00  0.00    +0.000 A 
ATOM     22  C   UNL     1     110.183 132.792 137.879  0.00  0.00    +0.000 A 
ENDBRANCH  13  17
ENDBRANCH   1   6
BRANCH   1  31
ATOM     23  O   UNL     1     111.117 126.845 136.809  0.00  0.00    +0.000 OA
ATOM     24  O   UNL     1     111.212 124.721 137.308  0.00  0.00    +0.000 OA
ATOM     25  O   UNL     1     110.979 124.648 135.676  0.00  0.00    +0.000 OA
ATOM     26  O   UNL     1     110.838 126.038 134.799  0.00  0.00    +0.000 OA
ATOM     27  C   UNL     1     111.188 126.150 137.247  0.00  0.00    +0.000 C 
ATOM     28  C   UNL     1     111.142 125.417 136.870  0.00  0.00    +0.000 C 
ATOM     29  C   UNL     1     111.025 125.380 136.054  0.00  0.00    +0.000 C 
ATOM     30  C   UNL     1     110.955 126.076 135.615  0.00  0.00    +0.000 C 
ATOM     31  C   UNL     1     111.001 126.807 135.992  0.00  0.00    +0.000 C 
BRANCH  27  32
ATOM     32  C   UNL     1     111.304 126.186 138.063  0.00  0.00    +0.000 C 
BRANCH  32  33
ATOM     33  O   UNL     1     111.913 126.648 138.373  0.00  0.00    +0.000 OA
BRANCH  33  39
ATOM     34  O   UNL     1     111.348 126.664 139.686  0.00  0.00    +0.000 OA
ATOM     35  O   UNL     1     113.415 126.874 139.016  0.00  0.00    +0.000 OA
ATOM     36  O   UNL     1     113.602 127.003 140.651  0.00  0.00    +0.000 OA
ATOM     37  O   UNL     1     112.287 126.906 141.642  0.00  0.00    +0.000 OA
ATOM     38  C   UNL     1     112.757 126.826 139.512  0.00  0.00    +0.000 C 
ATOM     39  C   UNL     1     112.006 126.712 139.191  0.00  0.00    +0.000 C 
ATOM     40  C   UNL     1     112.851 126.890 140.329  0.00  0.00    +0.000 C 
ATOM     41  C   UNL     1     112.193 126.841 140.824  0.00  0.00    +0.000 C 
ATOM     42  C   UNL     1     111.442 126.728 140.502  0.00  0.00    +0.000 C 
ATOM     43  C   UNL     1     110.784 126.679 140.999  0.00  0.00    +0.000 C 
ENDBRANCH  33  39
ENDBRANCH  32  33
ENDBRANCH  27  32
ENDBRANCH   1  31
TORSDOF 6
ENDMDL
MODEL 6
REMARK VINA RESULT:     -11.2      6.901      8.820
REMARK  Name = 44259247
REMARK  6 active torsions:
REMARK  status: ('A' for Active; 'I' for Inactive)
REMARK    1  A    between atoms: O_3  and  C_22
REMARK    2  A    between atoms: O_3  and  C_27
REMARK    3  A    between atoms: O_6  and  C_25
REMARK    4  A    between atoms: O_6  and  C_29
REMARK    5  A    between atoms: C_17  and  C_27
REMARK    6  A    between atoms: C_36  and  C_38
REMARK                            x       y       z     vdW  Elec       q    Type
REMARK                         _______ _______ _______ _____ _____    ______ ____
ROOT
ATOM      1  O   UNL     1     113.209 128.900 138.721  0.00  0.00    +0.000 OA
ENDROOT
BRANCH   1   6
ATOM      2  O   UNL     1     110.995 129.618 136.970  0.00  0.00    +0.000 OA
ATOM      3  O   UNL     1     113.565 128.966 135.823  0.00  0.00    +0.000 OA
ATOM      4  O   UNL     1     112.446 129.327 134.987  0.00  0.00    +0.000 OA
ATOM      5  O   UNL     1     110.870 129.777 134.796  0.00  0.00    +0.000 OA
ATOM      6  C   UNL     1     112.907 129.028 137.963  0.00  0.00    +0.000 A 
ATOM      7  C   UNL     1     112.088 129.263 137.858  0.00  0.00    +0.000 A 
ATOM      8  C   UNL     1     113.411 128.926 137.274  0.00  0.00    +0.000 A 
ATOM      9  C   UNL     1     111.783 129.393 137.065  0.00  0.00    +0.000 A 
ATOM     10  C   UNL     1     113.089 129.061 136.490  0.00  0.00    +0.000 A 
ATOM     11  C   UNL     1     112.267 129.296 136.404  0.00  0.00    +0.000 A 
ATOM     12  C   UNL     1     111.963 129.424 135.648  0.00  0.00    +0.000 A 
ATOM     13  C   UNL     1     110.691 129.746 136.214  0.00  0.00    +0.000 A 
ATOM     14  C   UNL     1     111.175 129.649 135.553  0.00  0.00    +0.000 A 
BRANCH  13  17
ATOM     15  O   UNL     1     107.942 129.047 135.860  0.00  0.00    +0.000 OA
ATOM     16  O   UNL     1     107.539 130.647 135.832  0.00  0.00    +0.000 OA
ATOM     17  C   UNL     1     109.903 129.972 136.118  0.00  0.00    +0.000 A 
ATOM     18  C   UNL     1     109.317 129.397 136.037  0.00  0.00    +0.000 A 
ATOM     19  C   UNL     1     109.702 130.772 136.105  0.00  0.00    +0.000 A 
ATOM     20  C   UNL     1     108.528 129.622 135.942  0.00  0.00    +0.000 A 
ATOM     21  C   UNL     1     108.913 130.996 136.009  0.00  0.00    +0.000 A 
ATOM     22  C   UNL     1     108.327 130.422 135.928  0.00  0.00    +0.000 A 
ENDBRANCH  13  17
ENDBRANCH   1   6
BRANCH   1  31
ATOM     23  O   UNL     1     112.825 127.524 138.741  0.00  0.00    +0.000 OA
ATOM     24  O   UNL     1     112.346 126.199 140.408  0.00  0.00    +0.000 OA
ATOM     25  O   UNL     1     112.682 127.600 141.211  0.00  0.00    +0.000 OA
ATOM     26  O   UNL     1     113.114 128.951 140.368  0.00  0.00    +0.000 OA
ATOM     27  C   UNL     1     112.609 126.849 139.162  0.00  0.00    +0.000 C 
ATOM     28  C   UNL     1     112.561 126.874 139.986  0.00  0.00    +0.000 C 
ATOM     29  C   UNL     1     112.730 127.575 140.387  0.00  0.00    +0.000 C 
ATOM     30  C   UNL     1     112.946 128.250 139.965  0.00  0.00    +0.000 C 
ATOM     31  C   UNL     1     112.993 128.225 139.143  0.00  0.00    +0.000 C 
BRANCH  27  32
ATOM     32  C   UNL     1     112.440 126.148 138.762  0.00  0.00    +0.000 C 
BRANCH  32  33
ATOM     33  O   UNL     1     111.817 126.120 138.222  0.00  0.00    +0.000 OA
BRANCH  33  39
ATOM     34  O   UNL     1     112.372 124.941 137.636  0.00  0.00    +0.000 OA
ATOM     35  O   UNL     1     110.653 126.154 137.053  0.00  0.00    +0.000 OA
ATOM     36  O   UNL     1     110.626 124.992 135.882  0.00  0.00    +0.000 OA
ATOM     37  O   UNL     1     111.763 123.796 135.880  0.00  0.00    +0.000 OA
ATOM     38  C   UNL     1     111.222 125.556 137.052  0.00  0.00    +0.000 C 
ATOM     39  C   UNL     1     111.804 125.539 137.637  0.00  0.00    +0.000 C 
ATOM     40  C   UNL     1     111.208 124.975 136.466  0.00  0.00    +0.000 C 
ATOM     41  C   UNL     1     111.777 124.377 136.466  0.00  0.00    +0.000 C 
ATOM     42  C   UNL     1     112.359 124.361 137.051  0.00  0.00    +0.000 C 
ATOM     43  C   UNL     1     112.927 123.762 137.049  0.00  0.00    +0.000 C 
ENDBRANCH  33  39
ENDBRANCH  32  33
ENDBRANCH  27  32
ENDBRANCH   1  31
TORSDOF 6
ENDMDL
MODEL 7
REMARK VINA RESULT:     -11.1      6.294      9.469
REMARK  Name = 44259247
REMARK  6 active torsions:
REMARK  status: ('A' for Active; 'I' for Inactive)
REMARK    1  A    between atoms: O_3  and  C_22
REMARK    2  A    between atoms: O_3  and  C_27
REMARK    3  A    between atoms: O_6  and  C_25
REMARK    4  A    between atoms: O_6  and  C_29
REMARK    5  A    between atoms: C_17  and  C_27
REMARK    6  A    between atoms: C_36  and  C_38
REMARK                            x       y       z     vdW  Elec       q    Type
REMARK                         _______ _______ _______ _____ _____    ______ ____
ROOT
ATOM      1  O   UNL     1     112.666 128.019 140.298  0.00  0.00    +0.000 OA
ENDROOT
BRANCH   1   6
ATOM      2  O   UNL     1     113.492 129.392 137.866  0.00  0.00    +0.000 OA
ATOM      3  O   UNL     1     111.544 130.626 139.608  0.00  0.00    +0.000 OA
ATOM      4  O   UNL     1     111.977 131.276 138.395  0.00  0.00    +0.000 OA
ATOM      5  O   UNL     1     112.893 131.315 137.023  0.00  0.00    +0.000 OA
ATOM      6  C   UNL     1     112.617 128.668 139.790  0.00  0.00    +0.000 A 
ATOM      7  C   UNL     1     113.091 128.693 139.075  0.00  0.00    +0.000 A 
ATOM      8  C   UNL     1     112.091 129.322 139.974  0.00  0.00    +0.000 A 
ATOM      9  C   UNL     1     113.034 129.373 138.552  0.00  0.00    +0.000 A 
ATOM     10  C   UNL     1     112.046 129.993 139.440  0.00  0.00    +0.000 A 
ATOM     11  C   UNL     1     112.529 130.001 138.729  0.00  0.00    +0.000 A 
ATOM     12  C   UNL     1     112.482 130.648 138.219  0.00  0.00    +0.000 A 
ATOM     13  C   UNL     1     113.445 130.040 137.357  0.00  0.00    +0.000 A 
ATOM     14  C   UNL     1     112.940 130.668 137.534  0.00  0.00    +0.000 A 
BRANCH  13  17
ATOM     15  O   UNL     1     113.850 129.287 134.629  0.00  0.00    +0.000 OA
ATOM     16  O   UNL     1     115.277 130.116 134.613  0.00  0.00    +0.000 OA
ATOM     17  C   UNL     1     113.903 130.059 136.671  0.00  0.00    +0.000 A 
ATOM     18  C   UNL     1     113.648 129.664 135.993  0.00  0.00    +0.000 A 
ATOM     19  C   UNL     1     114.616 130.473 136.663  0.00  0.00    +0.000 A 
ATOM     20  C   UNL     1     114.105 129.682 135.307  0.00  0.00    +0.000 A 
ATOM     21  C   UNL     1     115.074 130.492 135.976  0.00  0.00    +0.000 A 
ATOM     22  C   UNL     1     114.819 130.097 135.299  0.00  0.00    +0.000 A 
ENDBRANCH  13  17
ENDBRANCH   1   6
BRANCH   1  31
ATOM     23  O   UNL     1     111.804 127.136 139.577  0.00  0.00    +0.000 OA
ATOM     24  O   UNL     1     110.293 125.725 140.279  0.00  0.00    +0.000 OA
ATOM     25  O   UNL     1     110.831 126.344 141.711  0.00  0.00    +0.000 OA
ATOM     26  O   UNL     1     112.017 127.491 141.721  0.00  0.00    +0.000 OA
ATOM     27  C   UNL     1     111.211 126.563 139.572  0.00  0.00    +0.000 C 
ATOM     28  C   UNL     1     110.886 126.299 140.284  0.00  0.00    +0.000 C 
ATOM     29  C   UNL     1     111.155 126.608 140.999  0.00  0.00    +0.000 C 
ATOM     30  C   UNL     1     111.748 127.182 141.004  0.00  0.00    +0.000 C 
ATOM     31  C   UNL     1     112.073 127.445 140.294  0.00  0.00    +0.000 C 
BRANCH  27  32
ATOM     32  C   UNL     1     110.942 126.253 138.857  0.00  0.00    +0.000 C 
BRANCH  32  33
ATOM     33  O   UNL     1     111.480 125.943 138.313  0.00  0.00    +0.000 OA
BRANCH  33  39
ATOM     34  O   UNL     1     110.656 126.197 137.173  0.00  0.00    +0.000 OA
ATOM     35  O   UNL     1     112.120 124.624 137.555  0.00  0.00    +0.000 OA
ATOM     36  O   UNL     1     111.616 124.220 136.037  0.00  0.00    +0.000 OA
ATOM     37  O   UNL     1     110.472 125.134 135.276  0.00  0.00    +0.000 OA
ATOM     38  C   UNL     1     111.547 125.082 137.175  0.00  0.00    +0.000 C 
ATOM     39  C   UNL     1     111.227 125.741 137.554  0.00  0.00    +0.000 C 
ATOM     40  C   UNL     1     111.296 124.879 136.416  0.00  0.00    +0.000 C 
ATOM     41  C   UNL     1     110.724 125.336 136.036  0.00  0.00    +0.000 C 
ATOM     42  C   UNL     1     110.404 125.995 136.415  0.00  0.00    +0.000 C 
ATOM     43  C   UNL     1     109.832 126.452 136.034  0.00  0.00    +0.000 C 
ENDBRANCH  33  39
ENDBRANCH  32  33
ENDBRANCH  27  32
ENDBRANCH   1  31
TORSDOF 6
ENDMDL
MODEL 8
REMARK VINA RESULT:     -11.0      4.488      6.808
REMARK  Name = 44259247
REMARK  6 active torsions:
REMARK  status: ('A' for Active; 'I' for Inactive)
REMARK    1  A    between atoms: O_3  and  C_22
REMARK    2  A    between atoms: O_3  and  C_27
REMARK    3  A    between atoms: O_6  and  C_25
REMARK    4  A    between atoms: O_6  and  C_29
REMARK    5  A    between atoms: C_17  and  C_27
REMARK    6  A    between atoms: C_36  and  C_38
REMARK                            x       y       z     vdW  Elec       q    Type
REMARK                         _______ _______ _______ _____ _____    ______ ____
ROOT
ATOM      1  O   UNL     1     107.357 126.036 146.344  0.00  0.00    +0.000 OA
ENDROOT
BRANCH   1   6
ATOM      2  O   UNL     1     106.046 127.716 144.358  0.00  0.00    +0.000 OA
ATOM      3  O   UNL     1     106.362 128.687 147.061  0.00  0.00    +0.000 OA
ATOM      4  O   UNL     1     105.718 129.491 146.051  0.00  0.00    +0.000 OA
ATOM      5  O   UNL     1     105.186 129.717 144.506  0.00  0.00    +0.000 OA
ATOM      6  C   UNL     1     106.982 126.742 146.138  0.00  0.00    +0.000 A 
ATOM      7  C   UNL     1     106.702 126.865 145.335  0.00  0.00    +0.000 A 
ATOM      8  C   UNL     1     106.868 127.359 146.726  0.00  0.00    +0.000 A 
ATOM      9  C   UNL     1     106.313 127.603 145.131  0.00  0.00    +0.000 A 
ATOM     10  C   UNL     1     106.476 128.090 146.504  0.00  0.00    +0.000 A 
ATOM     11  C   UNL     1     106.204 128.195 145.696  0.00  0.00    +0.000 A 
ATOM     12  C   UNL     1     105.828 128.899 145.488  0.00  0.00    +0.000 A 
ATOM     13  C   UNL     1     105.671 128.421 144.150  0.00  0.00    +0.000 A 
ATOM     14  C   UNL     1     105.562 129.012 144.715  0.00  0.00    +0.000 A 
BRANCH  13  17
ATOM     15  O   UNL     1     106.205 129.069 141.418  0.00  0.00    +0.000 OA
ATOM     16  O   UNL     1     104.607 128.872 141.059  0.00  0.00    +0.000 OA
ATOM     17  C   UNL     1     105.405 128.533 143.378  0.00  0.00    +0.000 A 
ATOM     18  C   UNL     1     105.938 128.745 142.784  0.00  0.00    +0.000 A 
ATOM     19  C   UNL     1     104.605 128.435 143.198  0.00  0.00    +0.000 A 
ATOM     20  C   UNL     1     105.672 128.858 142.011  0.00  0.00    +0.000 A 
ATOM     21  C   UNL     1     104.340 128.548 142.425  0.00  0.00    +0.000 A 
ATOM     22  C   UNL     1     104.873 128.760 141.832  0.00  0.00    +0.000 A 
ENDBRANCH  13  17
ENDBRANCH   1   6
BRANCH   1  31
ATOM     23  O   UNL     1     106.232 125.306 146.836  0.00  0.00    +0.000 OA
ATOM     24  O   UNL     1     106.010 124.047 148.606  0.00  0.00    +0.000 OA
ATOM     25  O   UNL     1     107.586 124.514 148.752  0.00  0.00    +0.000 OA
ATOM     26  O   UNL     1     108.259 125.508 147.621  0.00  0.00    +0.000 OA
ATOM     27  C   UNL     1     105.895 124.809 147.402  0.00  0.00    +0.000 C 
ATOM     28  C   UNL     1     106.347 124.545 148.041  0.00  0.00    +0.000 C 
ATOM     29  C   UNL     1     107.134 124.778 148.113  0.00  0.00    +0.000 C 
ATOM     30  C   UNL     1     107.471 125.275 147.547  0.00  0.00    +0.000 C 
ATOM     31  C   UNL     1     107.020 125.539 146.910  0.00  0.00    +0.000 C 
BRANCH  27  32
ATOM     32  C   UNL     1     105.107 124.575 147.330  0.00  0.00    +0.000 C 
BRANCH  32  33
ATOM     33  O   UNL     1     104.839 124.241 146.625  0.00  0.00    +0.000 OA
BRANCH  33  39
ATOM     34  O   UNL     1     103.474 124.414 147.012  0.00  0.00    +0.000 OA
ATOM     35  O   UNL     1     104.378 123.124 145.501  0.00  0.00    +0.000 OA
ATOM     36  O   UNL     1     102.783 122.739 145.326  0.00  0.00    +0.000 OA
ATOM     37  O   UNL     1     101.649 123.470 146.276  0.00  0.00    +0.000 OA
ATOM     38  C   UNL     1     103.811 123.490 145.976  0.00  0.00    +0.000 C 
ATOM     39  C   UNL     1     104.041 124.049 146.538  0.00  0.00    +0.000 C 
ATOM     40  C   UNL     1     103.013 123.297 145.888  0.00  0.00    +0.000 C 
ATOM     41  C   UNL     1     102.447 123.663 146.363  0.00  0.00    +0.000 C 
ATOM     42  C   UNL     1     102.677 124.221 146.925  0.00  0.00    +0.000 C 
ATOM     43  C   UNL     1     102.110 124.587 147.400  0.00  0.00    +0.000 C 
ENDBRANCH  33  39
ENDBRANCH  32  33
ENDBRANCH  27  32
ENDBRANCH   1  31
TORSDOF 6
ENDMDL
MODEL 9
REMARK VINA RESULT:     -11.0      6.676      9.240
REMARK  Name = 44259247
REMARK  6 active torsions:
REMARK  status: ('A' for Active; 'I' for Inactive)
REMARK    1  A    between atoms: O_3  and  C_22
REMARK    2  A    between atoms: O_3  and  C_27
REMARK    3  A    between atoms: O_6  and  C_25
REMARK    4  A    between atoms: O_6  and  C_29
REMARK    5  A    between atoms: C_17  and  C_27
REMARK    6  A    between atoms: C_36  and  C_38
REMARK                            x       y       z     vdW  Elec       q    Type
REMARK                         _______ _______ _______ _____ _____    ______ ____
ROOT
ATOM      1  O   UNL     1     110.925 127.141 135.739  0.00  0.00    +0.000 OA
ENDROOT
BRANCH   1   6
ATOM      2  O   UNL     1     111.052 129.848 136.806  0.00  0.00    +0.000 OA
ATOM      3  O   UNL     1     113.374 128.717 135.511  0.00  0.00    +0.000 OA
ATOM      4  O   UNL     1     113.400 130.054 136.051  0.00  0.00    +0.000 OA
ATOM      5  O   UNL     1     112.671 131.313 136.829  0.00  0.00    +0.000 OA
ATOM      6  C   UNL     1     111.346 127.838 135.875  0.00  0.00    +0.000 A 
ATOM      7  C   UNL     1     110.971 128.497 136.280  0.00  0.00    +0.000 A 
ATOM      8  C   UNL     1     112.161 127.910 135.613  0.00  0.00    +0.000 A 
ATOM      9  C   UNL     1     111.417 129.219 136.417  0.00  0.00    +0.000 A 
ATOM     10  C   UNL     1     112.591 128.639 135.759  0.00  0.00    +0.000 A 
ATOM     11  C   UNL     1     112.200 129.287 136.165  0.00  0.00    +0.000 A 
ATOM     12  C   UNL     1     112.618 129.985 136.302  0.00  0.00    +0.000 A 
ATOM     13  C   UNL     1     111.470 130.546 136.943  0.00  0.00    +0.000 A 
ATOM     14  C   UNL     1     112.253 130.614 136.691  0.00  0.00    +0.000 A 
BRANCH  13  17
ATOM     15  O   UNL     1     110.603 131.790 139.366  0.00  0.00    +0.000 OA
ATOM     16  O   UNL     1     110.012 133.064 138.500  0.00  0.00    +0.000 OA
ATOM     17  C   UNL     1     111.106 131.175 137.332  0.00  0.00    +0.000 A 
ATOM     18  C   UNL     1     111.037 131.168 138.154  0.00  0.00    +0.000 A 
ATOM     19  C   UNL     1     110.810 131.812 136.899  0.00  0.00    +0.000 A 
ATOM     20  C   UNL     1     110.672 131.797 138.544  0.00  0.00    +0.000 A 
ATOM     21  C   UNL     1     110.445 132.442 137.289  0.00  0.00    +0.000 A 
ATOM     22  C   UNL     1     110.377 132.434 138.111  0.00  0.00    +0.000 A 
ENDBRANCH  13  17
ENDBRANCH   1   6
BRANCH   1  31
ATOM     23  O   UNL     1     111.420 126.482 136.907  0.00  0.00    +0.000 OA
ATOM     24  O   UNL     1     111.776 124.367 137.310  0.00  0.00    +0.000 OA
ATOM     25  O   UNL     1     111.212 124.297 135.761  0.00  0.00    +0.000 OA
ATOM     26  O   UNL     1     110.787 125.685 134.976  0.00  0.00    +0.000 OA
ATOM     27  C   UNL     1     111.633 125.789 137.300  0.00  0.00    +0.000 C 
ATOM     28  C   UNL     1     111.564 125.060 136.918  0.00  0.00    +0.000 C 
ATOM     29  C   UNL     1     111.282 125.026 136.143  0.00  0.00    +0.000 C 
ATOM     30  C   UNL     1     111.069 125.720 135.750  0.00  0.00    +0.000 C 
ATOM     31  C   UNL     1     111.138 126.447 136.132  0.00  0.00    +0.000 C 
BRANCH  27  32
ATOM     32  C   UNL     1     111.915 125.823 138.074  0.00  0.00    +0.000 C 
BRANCH  32  33
ATOM     33  O   UNL     1     111.489 126.230 138.651  0.00  0.00    +0.000 OA
BRANCH  33  39
ATOM     34  O   UNL     1     112.620 126.705 139.384  0.00  0.00    +0.000 OA
ATOM     35  O   UNL     1     110.655 126.037 140.062  0.00  0.00    +0.000 OA
ATOM     36  O   UNL     1     111.369 126.415 141.501  0.00  0.00    +0.000 OA
ATOM     37  O   UNL     1     112.917 126.987 141.528  0.00  0.00    +0.000 OA
ATOM     38  C   UNL     1     111.430 126.323 140.076  0.00  0.00    +0.000 C 
ATOM     39  C   UNL     1     111.846 126.419 139.370  0.00  0.00    +0.000 C 
ATOM     40  C   UNL     1     111.786 126.512 140.795  0.00  0.00    +0.000 C 
ATOM     41  C   UNL     1     112.560 126.797 140.808  0.00  0.00    +0.000 C 
ATOM     42  C   UNL     1     112.976 126.894 140.103  0.00  0.00    +0.000 C 
ATOM     43  C   UNL     1     113.750 127.180 140.118  0.00  0.00    +0.000 C 
ENDBRANCH  33  39
ENDBRANCH  32  33
ENDBRANCH  27  32
ENDBRANCH   1  31
TORSDOF 6
ENDMDL
MODEL 10
REMARK VINA RESULT:     -10.9      6.117      7.801
REMARK  Name = 44259247
REMARK  6 active torsions:
REMARK  status: ('A' for Active; 'I' for Inactive)
REMARK    1  A    between atoms: O_3  and  C_22
REMARK    2  A    between atoms: O_3  and  C_27
REMARK    3  A    between atoms: O_6  and  C_25
REMARK    4  A    between atoms: O_6  and  C_29
REMARK    5  A    between atoms: C_17  and  C_27
REMARK    6  A    between atoms: C_36  and  C_38
REMARK                            x       y       z     vdW  Elec       q    Type
REMARK                         _______ _______ _______ _____ _____    ______ ____
ROOT
ATOM      1  O   UNL     1     110.458 131.124 136.161  0.00  0.00    +0.000 OA
ENDROOT
BRANCH   1   6
ATOM      2  O   UNL     1     110.252 128.225 135.972  0.00  0.00    +0.000 OA
ATOM      3  O   UNL     1     107.856 129.835 135.843  0.00  0.00    +0.000 OA
ATOM      4  O   UNL     1     107.792 128.397 135.753  0.00  0.00    +0.000 OA
ATOM      5  O   UNL     1     108.521 126.916 135.734  0.00  0.00    +0.000 OA
ATOM      6  C   UNL     1     109.999 130.442 136.079  0.00  0.00    +0.000 A 
ATOM      7  C   UNL     1     110.373 129.669 136.068  0.00  0.00    +0.000 A 
ATOM      8  C   UNL     1     109.145 130.502 136.002  0.00  0.00    +0.000 A 
ATOM      9  C   UNL     1     109.887 128.965 135.982  0.00  0.00    +0.000 A 
ATOM     10  C   UNL     1     108.676 129.787 135.917  0.00  0.00    +0.000 A 
ATOM     11  C   UNL     1     109.068 129.023 135.909  0.00  0.00    +0.000 A 
ATOM     12  C   UNL     1     108.612 128.340 135.826  0.00  0.00    +0.000 A 
ATOM     13  C   UNL     1     109.796 127.542 135.890  0.00  0.00    +0.000 A 
ATOM     14  C   UNL     1     108.976 127.600 135.817  0.00  0.00    +0.000 A 
BRANCH  13  17
ATOM     15  O   UNL     1     110.876 125.297 137.291  0.00  0.00    +0.000 OA
ATOM     16  O   UNL     1     111.252 124.581 135.853  0.00  0.00    +0.000 OA
ATOM     17  C   UNL     1     110.160 126.802 135.880  0.00  0.00    +0.000 A 
ATOM     18  C   UNL     1     110.336 126.419 136.590  0.00  0.00    +0.000 A 
ATOM     19  C   UNL     1     110.348 126.444 135.161  0.00  0.00    +0.000 A 
ATOM     20  C   UNL     1     110.700 125.679 136.582  0.00  0.00    +0.000 A 
ATOM     21  C   UNL     1     110.713 125.703 135.153  0.00  0.00    +0.000 A 
ATOM     22  C   UNL     1     110.888 125.321 135.863  0.00  0.00    +0.000 A 
ENDBRANCH  13  17
ENDBRANCH   1   6
BRANCH   1  31
ATOM     23  O   UNL     1     110.541 131.174 137.587  0.00  0.00    +0.000 OA
ATOM     24  O   UNL     1     110.353 132.853 138.970  0.00  0.00    +0.000 OA
ATOM     25  O   UNL     1     110.136 133.616 137.523  0.00  0.00    +0.000 OA
ATOM     26  O   UNL     1     110.188 132.751 136.119  0.00  0.00    +0.000 OA
ATOM     27  C   UNL     1     110.514 131.606 138.289  0.00  0.00    +0.000 C 
ATOM     28  C   UNL     1     110.379 132.421 138.268  0.00  0.00    +0.000 C 
ATOM     29  C   UNL     1     110.271 132.801 137.544  0.00  0.00    +0.000 C 
ATOM     30  C   UNL     1     110.297 132.369 136.842  0.00  0.00    +0.000 C 
ATOM     31  C   UNL     1     110.432 131.556 136.863  0.00  0.00    +0.000 C 
BRANCH  27  32
ATOM     32  C   UNL     1     110.623 131.225 139.012  0.00  0.00    +0.000 C 
BRANCH  32  33
ATOM     33  O   UNL     1     111.321 130.812 139.161  0.00  0.00    +0.000 OA
BRANCH  33  39
ATOM     34  O   UNL     1     110.707 129.922 140.094  0.00  0.00    +0.000 OA
ATOM     35  O   UNL     1     112.770 130.614 139.926  0.00  0.00    +0.000 OA
ATOM     36  O   UNL     1     112.879 129.625 141.242  0.00  0.00    +0.000 OA
ATOM     37  O   UNL     1     111.540 128.834 141.793  0.00  0.00    +0.000 OA
ATOM     38  C   UNL     1     112.100 130.218 140.202  0.00  0.00    +0.000 C 
ATOM     39  C   UNL     1     111.375 130.317 139.819  0.00  0.00    +0.000 C 
ATOM     40  C   UNL     1     112.155 129.724 140.860  0.00  0.00    +0.000 C 
ATOM     41  C   UNL     1     111.485 129.329 141.135  0.00  0.00    +0.000 C 
ATOM     42  C   UNL     1     110.761 129.428 140.752  0.00  0.00    +0.000 C 
ATOM     43  C   UNL     1     110.092 129.032 141.028  0.00  0.00    +0.000 C 
ENDBRANCH  33  39
ENDBRANCH  32  33
ENDBRANCH  27  32
ENDBRANCH   1  31
TORSDOF 6
ENDMDL
