MODEL 1
REMARK VINA RESULT:      -7.7      0.000      0.000
REMARK  Name = 44257591
REMARK  5 active torsions:
REMARK  status: ('A' for Active; 'I' for Inactive)
REMARK    1  A    between atoms: O_2  and  C_12
REMARK    2  A    between atoms: O_3  and  C_16
REMARK    3  A    between atoms: O_4  and  C_20
REMARK    4  A    between atoms: O_5  and  C_21
REMARK    5  A    between atoms: C_10  and  C_11
REMARK                            x       y       z     vdW  Elec       q    Type
REMARK                         _______ _______ _______ _____ _____    ______ ____
ROOT
ATOM      1  O   UNL     1     104.999 124.444 147.503  0.00  0.00    +0.000 OA
ATOM      2  O   UNL     1     106.091 125.548 145.575  0.00  0.00    +0.000 OA
ATOM      3  C   UNL     1     105.787 124.680 147.555  0.00  0.00    +0.000 A 
ATOM      4  C   UNL     1     106.151 125.048 146.913  0.00  0.00    +0.000 A 
ATOM      5  C   UNL     1     104.574 124.575 146.808  0.00  0.00    +0.000 A 
ATOM      6  C   UNL     1     106.220 124.537 148.284  0.00  0.00    +0.000 A 
ATOM      7  C   UNL     1     105.727 125.180 146.218  0.00  0.00    +0.000 A 
ATOM      8  C   UNL     1     104.938 124.943 146.165  0.00  0.00    +0.000 A 
ATOM      9  C   UNL     1     106.972 125.299 146.955  0.00  0.00    +0.000 A 
ATOM     10  C   UNL     1     107.041 124.781 148.345  0.00  0.00    +0.000 A 
ATOM     11  C   UNL     1     107.420 125.165 147.676  0.00  0.00    +0.000 A 
ENDROOT
BRANCH   5  13
ATOM     12  O   UNL     1     102.598 122.740 145.860  0.00  0.00    +0.000 OA
ATOM     13  C   UNL     1     103.786 124.339 146.755  0.00  0.00    +0.000 A 
ATOM     14  C   UNL     1     103.196 124.783 147.124  0.00  0.00    +0.000 A 
ATOM     15  C   UNL     1     103.587 123.658 146.334  0.00  0.00    +0.000 A 
ATOM     16  C   UNL     1     102.408 124.547 147.071  0.00  0.00    +0.000 A 
ATOM     17  C   UNL     1     102.209 123.866 146.650  0.00  0.00    +0.000 A 
ATOM     18  C   UNL     1     102.797 123.421 146.281  0.00  0.00    +0.000 A 
BRANCH  16  19
ATOM     19  O   UNL     1     101.818 124.991 147.440  0.00  0.00    +0.000 OA
ATOM     20  C   UNL     1     101.987 125.408 148.131  0.00  0.00    +0.000 C 
ENDBRANCH  16  19
BRANCH  17  21
ATOM     21  O   UNL     1     101.419 123.629 146.597  0.00  0.00    +0.000 OA
ATOM     22  C   UNL     1     101.047 123.599 145.862  0.00  0.00    +0.000 C 
ENDBRANCH  17  21
ENDBRANCH   5  13
BRANCH   6  23
ATOM     23  O   UNL     1     105.847 124.168 148.922  0.00  0.00    +0.000 OA
ATOM     24  C   UNL     1     105.692 124.594 149.612  0.00  0.00    +0.000 C 
ENDBRANCH   6  23
BRANCH  10  25
ATOM     25  O   UNL     1     107.464 124.649 149.041  0.00  0.00    +0.000 OA
ATOM     26  C   UNL     1     108.287 124.610 149.023  0.00  0.00    +0.000 C 
ENDBRANCH  10  25
TORSDOF 5
ENDMDL
MODEL 2
REMARK VINA RESULT:      -7.6     12.623     14.188
REMARK  Name = 44257591
REMARK  5 active torsions:
REMARK  status: ('A' for Active; 'I' for Inactive)
REMARK    1  A    between atoms: O_2  and  C_12
REMARK    2  A    between atoms: O_3  and  C_16
REMARK    3  A    between atoms: O_4  and  C_20
REMARK    4  A    between atoms: O_5  and  C_21
REMARK    5  A    between atoms: C_10  and  C_11
REMARK                            x       y       z     vdW  Elec       q    Type
REMARK                         _______ _______ _______ _____ _____    ______ ____
ROOT
ATOM      1  O   UNL     1     112.698 126.500 136.766  0.00  0.00    +0.000 OA
ATOM      2  O   UNL     1     114.980 125.660 136.305  0.00  0.00    +0.000 OA
ATOM      3  C   UNL     1     112.844 125.688 136.755  0.00  0.00    +0.000 A 
ATOM      4  C   UNL     1     113.604 125.408 136.601  0.00  0.00    +0.000 A 
ATOM      5  C   UNL     1     113.312 127.032 136.624  0.00  0.00    +0.000 A 
ATOM      6  C   UNL     1     112.195 125.144 136.905  0.00  0.00    +0.000 A 
ATOM      7  C   UNL     1     114.219 125.940 136.459  0.00  0.00    +0.000 A 
ATOM      8  C   UNL     1     114.072 126.752 136.470  0.00  0.00    +0.000 A 
ATOM      9  C   UNL     1     113.769 124.565 136.587  0.00  0.00    +0.000 A 
ATOM     10  C   UNL     1     112.342 124.298 136.895  0.00  0.00    +0.000 A 
ATOM     11  C   UNL     1     113.134 124.006 136.735  0.00  0.00    +0.000 A 
ENDROOT
BRANCH   5  13
ATOM     12  O   UNL     1     113.109 129.491 138.067  0.00  0.00    +0.000 OA
ATOM     13  C   UNL     1     113.166 127.843 136.635  0.00  0.00    +0.000 A 
ATOM     14  C   UNL     1     112.975 128.239 135.936  0.00  0.00    +0.000 A 
ATOM     15  C   UNL     1     113.211 128.261 137.345  0.00  0.00    +0.000 A 
ATOM     16  C   UNL     1     112.829 129.050 135.947  0.00  0.00    +0.000 A 
ATOM     17  C   UNL     1     112.874 129.467 136.658  0.00  0.00    +0.000 A 
ATOM     18  C   UNL     1     113.065 129.073 137.357  0.00  0.00    +0.000 A 
BRANCH  16  19
ATOM     19  O   UNL     1     112.638 129.445 135.249  0.00  0.00    +0.000 OA
ATOM     20  C   UNL     1     112.239 129.047 134.646  0.00  0.00    +0.000 C 
ENDBRANCH  16  19
BRANCH  17  21
ATOM     21  O   UNL     1     112.728 130.280 136.669  0.00  0.00    +0.000 OA
ATOM     22  C   UNL     1     113.340 130.806 136.837  0.00  0.00    +0.000 C 
ENDBRANCH  17  21
ENDBRANCH   5  13
BRANCH   6  23
ATOM     23  O   UNL     1     111.438 125.433 137.058  0.00  0.00    +0.000 OA
ATOM     24  C   UNL     1     110.847 125.366 136.485  0.00  0.00    +0.000 C 
ENDBRANCH   6  23
BRANCH  10  25
ATOM     25  O   UNL     1     111.725 123.768 137.038  0.00  0.00    +0.000 OA
ATOM     26  C   UNL     1     111.891 122.983 137.229  0.00  0.00    +0.000 C 
ENDBRANCH  10  25
TORSDOF 5
ENDMDL
MODEL 3
REMARK VINA RESULT:      -7.6      0.895      4.700
REMARK  Name = 44257591
REMARK  5 active torsions:
REMARK  status: ('A' for Active; 'I' for Inactive)
REMARK    1  A    between atoms: O_2  and  C_12
REMARK    2  A    between atoms: O_3  and  C_16
REMARK    3  A    between atoms: O_4  and  C_20
REMARK    4  A    between atoms: O_5  and  C_21
REMARK    5  A    between atoms: C_10  and  C_11
REMARK                            x       y       z     vdW  Elec       q    Type
REMARK                         _______ _______ _______ _____ _____    ______ ____
ROOT
ATOM      1  O   UNL     1     104.005 124.233 146.913  0.00  0.00    +0.000 OA
ATOM      2  O   UNL     1     102.732 125.987 148.109  0.00  0.00    +0.000 OA
ATOM      3  C   UNL     1     103.183 124.188 146.957  0.00  0.00    +0.000 A 
ATOM      4  C   UNL     1     102.759 124.772 147.356  0.00  0.00    +0.000 A 
ATOM      5  C   UNL     1     104.404 124.863 147.267  0.00  0.00    +0.000 A 
ATOM      6  C   UNL     1     102.780 123.527 146.584  0.00  0.00    +0.000 A 
ATOM      7  C   UNL     1     103.156 125.402 147.710  0.00  0.00    +0.000 A 
ATOM      8  C   UNL     1     103.979 125.448 147.666  0.00  0.00    +0.000 A 
ATOM      9  C   UNL     1     101.901 124.736 147.409  0.00  0.00    +0.000 A 
ATOM     10  C   UNL     1     101.923 123.474 146.627  0.00  0.00    +0.000 A 
ATOM     11  C   UNL     1     101.481 124.083 147.042  0.00  0.00    +0.000 A 
ENDROOT
BRANCH   5  13
ATOM     12  O   UNL     1     106.974 124.406 148.432  0.00  0.00    +0.000 OA
ATOM     13  C   UNL     1     105.226 124.908 147.223  0.00  0.00    +0.000 A 
ATOM     14  C   UNL     1     105.587 125.227 146.553  0.00  0.00    +0.000 A 
ATOM     15  C   UNL     1     105.688 124.634 147.849  0.00  0.00    +0.000 A 
ATOM     16  C   UNL     1     106.409 125.273 146.509  0.00  0.00    +0.000 A 
ATOM     17  C   UNL     1     106.871 124.999 147.135  0.00  0.00    +0.000 A 
ATOM     18  C   UNL     1     106.511 124.680 147.806  0.00  0.00    +0.000 A 
BRANCH  16  19
ATOM     19  O   UNL     1     106.770 125.592 145.840  0.00  0.00    +0.000 OA
ATOM     20  C   UNL     1     106.312 125.806 145.187  0.00  0.00    +0.000 C 
ENDBRANCH  16  19
BRANCH  17  21
ATOM     21  O   UNL     1     107.694 125.044 147.092  0.00  0.00    +0.000 OA
ATOM     22  C   UNL     1     108.124 125.355 147.723  0.00  0.00    +0.000 C 
ENDBRANCH  17  21
ENDBRANCH   5  13
BRANCH   6  23
ATOM     23  O   UNL     1     103.213 122.947 146.188  0.00  0.00    +0.000 OA
ATOM     24  C   UNL     1     103.098 122.827 145.379  0.00  0.00    +0.000 C 
ENDBRANCH   6  23
BRANCH  10  25
ATOM     25  O   UNL     1     101.528 122.843 146.272  0.00  0.00    +0.000 OA
ATOM     26  C   UNL     1     100.720 122.739 146.398  0.00  0.00    +0.000 C 
ENDBRANCH  10  25
TORSDOF 5
ENDMDL
MODEL 4
REMARK VINA RESULT:      -7.4      8.734     10.130
REMARK  Name = 44257591
REMARK  5 active torsions:
REMARK  status: ('A' for Active; 'I' for Inactive)
REMARK    1  A    between atoms: O_2  and  C_12
REMARK    2  A    between atoms: O_3  and  C_16
REMARK    3  A    between atoms: O_4  and  C_20
REMARK    4  A    between atoms: O_5  and  C_21
REMARK    5  A    between atoms: C_10  and  C_11
REMARK                            x       y       z     vdW  Elec       q    Type
REMARK                         _______ _______ _______ _____ _____    ______ ____
ROOT
ATOM      1  O   UNL     1     102.913 132.027 141.267  0.00  0.00    +0.000 OA
ATOM      2  O   UNL     1     100.715 132.324 142.364  0.00  0.00    +0.000 OA
ATOM      3  C   UNL     1     102.584 132.780 141.334  0.00  0.00    +0.000 A 
ATOM      4  C   UNL     1     101.852 132.879 141.700  0.00  0.00    +0.000 A 
ATOM      5  C   UNL     1     102.510 131.372 141.565  0.00  0.00    +0.000 A 
ATOM      6  C   UNL     1     103.015 133.454 141.019  0.00  0.00    +0.000 A 
ATOM      7  C   UNL     1     101.447 132.225 141.998  0.00  0.00    +0.000 A 
ATOM      8  C   UNL     1     101.777 131.471 141.931  0.00  0.00    +0.000 A 
ATOM      9  C   UNL     1     101.498 133.659 141.776  0.00  0.00    +0.000 A 
ATOM     10  C   UNL     1     102.677 134.241 141.086  0.00  0.00    +0.000 A 
ATOM     11  C   UNL     1     101.914 134.344 141.467  0.00  0.00    +0.000 A 
ENDROOT
BRANCH   5  13
ATOM     12  O   UNL     1     104.085 129.252 142.658  0.00  0.00    +0.000 OA
ATOM     13  C   UNL     1     102.839 130.619 141.498  0.00  0.00    +0.000 A 
ATOM     14  C   UNL     1     102.710 130.171 140.817  0.00  0.00    +0.000 A 
ATOM     15  C   UNL     1     103.297 130.313 142.112  0.00  0.00    +0.000 A 
ATOM     16  C   UNL     1     103.038 129.418 140.750  0.00  0.00    +0.000 A 
ATOM     17  C   UNL     1     103.497 129.112 141.364  0.00  0.00    +0.000 A 
ATOM     18  C   UNL     1     103.626 129.559 142.045  0.00  0.00    +0.000 A 
BRANCH  16  19
ATOM     19  O   UNL     1     102.909 128.970 140.069  0.00  0.00    +0.000 OA
ATOM     20  C   UNL     1     102.328 129.198 139.529  0.00  0.00    +0.000 C 
ENDBRANCH  16  19
BRANCH  17  21
ATOM     21  O   UNL     1     103.826 128.358 141.297  0.00  0.00    +0.000 OA
ATOM     22  C   UNL     1     104.590 128.216 141.573  0.00  0.00    +0.000 C 
ENDBRANCH  17  21
ENDBRANCH   5  13
BRANCH   6  23
ATOM     23  O   UNL     1     103.747 133.346 140.655  0.00  0.00    +0.000 OA
ATOM     24  C   UNL     1     103.812 133.404 139.834  0.00  0.00    +0.000 C 
ENDBRANCH   6  23
BRANCH  10  25
ATOM     25  O   UNL     1     103.083 134.894 140.787  0.00  0.00    +0.000 OA
ATOM     26  C   UNL     1     102.823 135.657 140.961  0.00  0.00    +0.000 C 
ENDBRANCH  10  25
TORSDOF 5
ENDMDL
MODEL 5
REMARK VINA RESULT:      -7.4     11.314     12.976
REMARK  Name = 44257591
REMARK  5 active torsions:
REMARK  status: ('A' for Active; 'I' for Inactive)
REMARK    1  A    between atoms: O_2  and  C_12
REMARK    2  A    between atoms: O_3  and  C_16
REMARK    3  A    between atoms: O_4  and  C_20
REMARK    4  A    between atoms: O_5  and  C_21
REMARK    5  A    between atoms: C_10  and  C_11
REMARK                            x       y       z     vdW  Elec       q    Type
REMARK                         _______ _______ _______ _____ _____    ______ ____
ROOT
ATOM      1  O   UNL     1     112.001 125.798 136.462  0.00  0.00    +0.000 OA
ATOM      2  O   UNL     1     111.868 123.400 137.060  0.00  0.00    +0.000 OA
ATOM      3  C   UNL     1     112.691 125.355 136.540  0.00  0.00    +0.000 A 
ATOM      4  C   UNL     1     112.647 124.555 136.739  0.00  0.00    +0.000 A 
ATOM      5  C   UNL     1     111.266 125.444 136.582  0.00  0.00    +0.000 A 
ATOM      6  C   UNL     1     113.451 125.736 136.412  0.00  0.00    +0.000 A 
ATOM      7  C   UNL     1     111.913 124.200 136.860  0.00  0.00    +0.000 A 
ATOM      8  C   UNL     1     111.221 124.645 136.782  0.00  0.00    +0.000 A 
ATOM      9  C   UNL     1     113.360 124.082 136.824  0.00  0.00    +0.000 A 
ATOM     10  C   UNL     1     114.174 125.278 136.492  0.00  0.00    +0.000 A 
ATOM     11  C   UNL     1     114.128 124.446 136.700  0.00  0.00    +0.000 A 
ENDROOT
BRANCH   5  13
ATOM     12  O   UNL     1     109.147 126.458 134.954  0.00  0.00    +0.000 OA
ATOM     13  C   UNL     1     110.576 125.888 136.504  0.00  0.00    +0.000 A 
ATOM     14  C   UNL     1     110.253 126.270 137.160  0.00  0.00    +0.000 A 
ATOM     15  C   UNL     1     110.207 125.951 135.768  0.00  0.00    +0.000 A 
ATOM     16  C   UNL     1     109.563 126.714 137.082  0.00  0.00    +0.000 A 
ATOM     17  C   UNL     1     109.194 126.777 136.346  0.00  0.00    +0.000 A 
ATOM     18  C   UNL     1     109.516 126.395 135.689  0.00  0.00    +0.000 A 
BRANCH  16  19
ATOM     19  O   UNL     1     109.240 127.096 137.738  0.00  0.00    +0.000 OA
ATOM     20  C   UNL     1     109.594 127.012 138.479  0.00  0.00    +0.000 C 
ENDBRANCH  16  19
BRANCH  17  21
ATOM     21  O   UNL     1     108.503 127.221 136.267  0.00  0.00    +0.000 OA
ATOM     22  C   UNL     1     108.511 127.921 135.830  0.00  0.00    +0.000 C 
ENDBRANCH  17  21
ENDBRANCH   5  13
BRANCH   6  23
ATOM     23  O   UNL     1     113.486 126.536 136.213  0.00  0.00    +0.000 OA
ATOM     24  C   UNL     1     113.740 127.089 136.771  0.00  0.00    +0.000 C 
ENDBRANCH   6  23
BRANCH  10  25
ATOM     25  O   UNL     1     114.907 125.635 136.371  0.00  0.00    +0.000 OA
ATOM     26  C   UNL     1     115.539 125.193 136.079  0.00  0.00    +0.000 C 
ENDBRANCH  10  25
TORSDOF 5
ENDMDL
MODEL 6
REMARK VINA RESULT:      -7.3     13.129     14.520
REMARK  Name = 44257591
REMARK  5 active torsions:
REMARK  status: ('A' for Active; 'I' for Inactive)
REMARK    1  A    between atoms: O_2  and  C_12
REMARK    2  A    between atoms: O_3  and  C_16
REMARK    3  A    between atoms: O_4  and  C_20
REMARK    4  A    between atoms: O_5  and  C_21
REMARK    5  A    between atoms: C_10  and  C_11
REMARK                            x       y       z     vdW  Elec       q    Type
REMARK                         _______ _______ _______ _____ _____    ______ ____
ROOT
ATOM      1  O   UNL     1     112.851 126.865 136.529  0.00  0.00    +0.000 OA
ATOM      2  O   UNL     1     110.669 126.932 135.363  0.00  0.00    +0.000 OA
ATOM      3  C   UNL     1     112.427 126.169 136.407  0.00  0.00    +0.000 A 
ATOM      4  C   UNL     1     111.699 126.191 136.019  0.00  0.00    +0.000 A 
ATOM      5  C   UNL     1     112.548 127.585 136.262  0.00  0.00    +0.000 A 
ATOM      6  C   UNL     1     112.753 125.425 136.690  0.00  0.00    +0.000 A 
ATOM      7  C   UNL     1     111.396 126.910 135.752  0.00  0.00    +0.000 A 
ATOM      8  C   UNL     1     111.821 127.607 135.873  0.00  0.00    +0.000 A 
ATOM      9  C   UNL     1     111.248 125.471 135.886  0.00  0.00    +0.000 A 
ATOM     10  C   UNL     1     112.316 124.696 136.566  0.00  0.00    +0.000 A 
ATOM     11  C   UNL     1     111.558 124.720 136.162  0.00  0.00    +0.000 A 
ENDROOT
BRANCH   5  13
ATOM     12  O   UNL     1     113.232 129.809 137.922  0.00  0.00    +0.000 OA
ATOM     13  C   UNL     1     112.972 128.281 136.383  0.00  0.00    +0.000 A 
ATOM     14  C   UNL     1     113.479 128.564 135.797  0.00  0.00    +0.000 A 
ATOM     15  C   UNL     1     112.890 128.696 137.092  0.00  0.00    +0.000 A 
ATOM     16  C   UNL     1     113.903 129.261 135.918  0.00  0.00    +0.000 A 
ATOM     17  C   UNL     1     113.821 129.676 136.627  0.00  0.00    +0.000 A 
ATOM     18  C   UNL     1     113.314 129.394 137.214  0.00  0.00    +0.000 A 
BRANCH  16  19
ATOM     19  O   UNL     1     114.410 129.544 135.332  0.00  0.00    +0.000 OA
ATOM     20  C   UNL     1     114.758 129.018 134.799  0.00  0.00    +0.000 C 
ENDBRANCH  16  19
BRANCH  17  21
ATOM     21  O   UNL     1     114.245 130.373 136.749  0.00  0.00    +0.000 OA
ATOM     22  C   UNL     1     113.847 131.095 136.794  0.00  0.00    +0.000 C 
ENDBRANCH  17  21
ENDBRANCH   5  13
BRANCH   6  23
ATOM     23  O   UNL     1     113.481 125.413 137.078  0.00  0.00    +0.000 OA
ATOM     24  C   UNL     1     114.140 125.081 136.707  0.00  0.00    +0.000 C 
ENDBRANCH   6  23
BRANCH  10  25
ATOM     25  O   UNL     1     112.621 123.978 136.834  0.00  0.00    +0.000 OA
ATOM     26  C   UNL     1     112.120 123.334 136.950  0.00  0.00    +0.000 C 
ENDBRANCH  10  25
TORSDOF 5
ENDMDL
MODEL 7
REMARK VINA RESULT:      -7.2     11.996     13.561
REMARK  Name = 44257591
REMARK  5 active torsions:
REMARK  status: ('A' for Active; 'I' for Inactive)
REMARK    1  A    between atoms: O_2  and  C_12
REMARK    2  A    between atoms: O_3  and  C_16
REMARK    3  A    between atoms: O_4  and  C_20
REMARK    4  A    between atoms: O_5  and  C_21
REMARK    5  A    between atoms: C_10  and  C_11
REMARK                            x       y       z     vdW  Elec       q    Type
REMARK                         _______ _______ _______ _____ _____    ______ ____
ROOT
ATOM      1  O   UNL     1     112.455 127.441 137.101  0.00  0.00    +0.000 OA
ATOM      2  O   UNL     1     114.241 128.338 135.642  0.00  0.00    +0.000 OA
ATOM      3  C   UNL     1     112.655 128.240 137.139  0.00  0.00    +0.000 A 
ATOM      4  C   UNL     1     113.250 128.539 136.652  0.00  0.00    +0.000 A 
ATOM      5  C   UNL     1     112.849 126.940 136.577  0.00  0.00    +0.000 A 
ATOM      6  C   UNL     1     112.236 128.751 137.689  0.00  0.00    +0.000 A 
ATOM      7  C   UNL     1     113.645 128.039 136.128  0.00  0.00    +0.000 A 
ATOM      8  C   UNL     1     113.445 127.239 136.091  0.00  0.00    +0.000 A 
ATOM      9  C   UNL     1     113.468 129.370 136.682  0.00  0.00    +0.000 A 
ATOM     10  C   UNL     1     112.441 129.584 137.732  0.00  0.00    +0.000 A 
ATOM     11  C   UNL     1     113.060 129.895 137.226  0.00  0.00    +0.000 A 
ENDROOT
BRANCH   5  13
ATOM     12  O   UNL     1     113.473 124.204 137.119  0.00  0.00    +0.000 OA
ATOM     13  C   UNL     1     112.649 126.141 136.539  0.00  0.00    +0.000 A 
ATOM     14  C   UNL     1     111.937 125.909 136.193  0.00  0.00    +0.000 A 
ATOM     15  C   UNL     1     113.161 125.573 136.848  0.00  0.00    +0.000 A 
ATOM     16  C   UNL     1     111.736 125.111 136.156  0.00  0.00    +0.000 A 
ATOM     17  C   UNL     1     112.249 124.542 136.464  0.00  0.00    +0.000 A 
ATOM     18  C   UNL     1     112.961 124.773 136.810  0.00  0.00    +0.000 A 
BRANCH  16  19
ATOM     19  O   UNL     1     111.024 124.879 135.810  0.00  0.00    +0.000 OA
ATOM     20  C   UNL     1     110.580 125.423 135.377  0.00  0.00    +0.000 C 
ENDBRANCH  16  19
BRANCH  17  21
ATOM     21  O   UNL     1     112.048 123.742 136.427  0.00  0.00    +0.000 OA
ATOM     22  C   UNL     1     111.926 123.315 137.122  0.00  0.00    +0.000 C 
ENDBRANCH  17  21
ENDBRANCH   5  13
BRANCH   6  23
ATOM     23  O   UNL     1     111.642 128.442 138.171  0.00  0.00    +0.000 OA
ATOM     24  C   UNL     1     111.771 128.360 138.982  0.00  0.00    +0.000 C 
ENDBRANCH   6  23
BRANCH  10  25
ATOM     25  O   UNL     1     112.044 130.082 138.257  0.00  0.00    +0.000 OA
ATOM     26  C   UNL     1     112.059 130.898 138.143  0.00  0.00    +0.000 C 
ENDBRANCH  10  25
TORSDOF 5
ENDMDL
MODEL 8
REMARK VINA RESULT:      -7.2     10.932     12.811
REMARK  Name = 44257591
REMARK  5 active torsions:
REMARK  status: ('A' for Active; 'I' for Inactive)
REMARK    1  A    between atoms: O_2  and  C_12
REMARK    2  A    between atoms: O_3  and  C_16
REMARK    3  A    between atoms: O_4  and  C_20
REMARK    4  A    between atoms: O_5  and  C_21
REMARK    5  A    between atoms: C_10  and  C_11
REMARK                            x       y       z     vdW  Elec       q    Type
REMARK                         _______ _______ _______ _____ _____    ______ ____
ROOT
ATOM      1  O   UNL     1     112.820 125.960 138.441  0.00  0.00    +0.000 OA
ATOM      2  O   UNL     1     115.069 125.238 137.703  0.00  0.00    +0.000 OA
ATOM      3  C   UNL     1     112.897 125.369 137.871  0.00  0.00    +0.000 A 
ATOM      4  C   UNL     1     113.647 125.128 137.625  0.00  0.00    +0.000 A 
ATOM      5  C   UNL     1     113.493 126.311 138.765  0.00  0.00    +0.000 A 
ATOM      6  C   UNL     1     112.188 125.011 137.541  0.00  0.00    +0.000 A 
ATOM      7  C   UNL     1     114.320 125.479 137.949  0.00  0.00    +0.000 A 
ATOM      8  C   UNL     1     114.242 126.071 138.519  0.00  0.00    +0.000 A 
ATOM      9  C   UNL     1     113.740 124.513 137.032  0.00  0.00    +0.000 A 
ATOM     10  C   UNL     1     112.262 124.395 136.947  0.00  0.00    +0.000 A 
ATOM     11  C   UNL     1     113.043 124.144 136.691  0.00  0.00    +0.000 A 
ENDROOT
BRANCH   5  13
ATOM     12  O   UNL     1     113.395 127.107 141.508  0.00  0.00    +0.000 OA
ATOM     13  C   UNL     1     113.416 126.902 139.334  0.00  0.00    +0.000 A 
ATOM     14  C   UNL     1     113.311 127.688 139.104  0.00  0.00    +0.000 A 
ATOM     15  C   UNL     1     113.444 126.709 140.136  0.00  0.00    +0.000 A 
ATOM     16  C   UNL     1     113.234 128.279 139.673  0.00  0.00    +0.000 A 
ATOM     17  C   UNL     1     113.262 128.085 140.475  0.00  0.00    +0.000 A 
ATOM     18  C   UNL     1     113.367 127.301 140.707  0.00  0.00    +0.000 A 
BRANCH  16  19
ATOM     19  O   UNL     1     113.129 129.064 139.442  0.00  0.00    +0.000 OA
ATOM     20  C   UNL     1     113.286 129.289 138.664  0.00  0.00    +0.000 C 
ENDBRANCH  16  19
BRANCH  17  21
ATOM     21  O   UNL     1     113.185 128.677 141.045  0.00  0.00    +0.000 OA
ATOM     22  C   UNL     1     112.526 128.688 141.541  0.00  0.00    +0.000 C 
ENDBRANCH  17  21
ENDBRANCH   5  13
BRANCH   6  23
ATOM     23  O   UNL     1     111.443 125.258 137.793  0.00  0.00    +0.000 OA
ATOM     24  C   UNL     1     110.947 125.668 137.275  0.00  0.00    +0.000 C 
ENDBRANCH   6  23
BRANCH  10  25
ATOM     25  O   UNL     1     111.588 124.046 136.625  0.00  0.00    +0.000 OA
ATOM     26  C   UNL     1     111.650 123.341 136.200  0.00  0.00    +0.000 C 
ENDBRANCH  10  25
TORSDOF 5
ENDMDL
MODEL 9
REMARK VINA RESULT:      -7.1      1.159      2.500
REMARK  Name = 44257591
REMARK  5 active torsions:
REMARK  status: ('A' for Active; 'I' for Inactive)
REMARK    1  A    between atoms: O_2  and  C_12
REMARK    2  A    between atoms: O_3  and  C_16
REMARK    3  A    between atoms: O_4  and  C_20
REMARK    4  A    between atoms: O_5  and  C_21
REMARK    5  A    between atoms: C_10  and  C_11
REMARK                            x       y       z     vdW  Elec       q    Type
REMARK                         _______ _______ _______ _____ _____    ______ ____
ROOT
ATOM      1  O   UNL     1     104.945 125.411 146.575  0.00  0.00    +0.000 OA
ATOM      2  O   UNL     1     106.444 124.443 148.290  0.00  0.00    +0.000 OA
ATOM      3  C   UNL     1     105.669 125.769 146.739  0.00  0.00    +0.000 A 
ATOM      4  C   UNL     1     106.169 125.446 147.310  0.00  0.00    +0.000 A 
ATOM      5  C   UNL     1     104.719 124.730 146.983  0.00  0.00    +0.000 A 
ATOM      6  C   UNL     1     105.893 126.478 146.307  0.00  0.00    +0.000 A 
ATOM      7  C   UNL     1     105.944 124.766 147.718  0.00  0.00    +0.000 A 
ATOM      8  C   UNL     1     105.218 124.407 147.555  0.00  0.00    +0.000 A 
ATOM      9  C   UNL     1     106.927 125.810 147.489  0.00  0.00    +0.000 A 
ATOM     10  C   UNL     1     106.646 126.855 146.473  0.00  0.00    +0.000 A 
ATOM     11  C   UNL     1     107.167 126.519 147.068  0.00  0.00    +0.000 A 
ENDROOT
BRANCH   5  13
ATOM     12  O   UNL     1     101.949 124.363 147.583  0.00  0.00    +0.000 OA
ATOM     13  C   UNL     1     103.994 124.372 146.820  0.00  0.00    +0.000 A 
ATOM     14  C   UNL     1     103.928 123.840 146.193  0.00  0.00    +0.000 A 
ATOM     15  C   UNL     1     103.334 124.547 147.283  0.00  0.00    +0.000 A 
ATOM     16  C   UNL     1     103.204 123.482 146.030  0.00  0.00    +0.000 A 
ATOM     17  C   UNL     1     102.544 123.656 146.493  0.00  0.00    +0.000 A 
ATOM     18  C   UNL     1     102.609 124.189 147.120  0.00  0.00    +0.000 A 
BRANCH  16  19
ATOM     19  O   UNL     1     103.138 122.949 145.403  0.00  0.00    +0.000 OA
ATOM     20  C   UNL     1     103.807 122.739 144.969  0.00  0.00    +0.000 C 
ENDBRANCH  16  19
BRANCH  17  21
ATOM     21  O   UNL     1     101.818 123.298 146.330  0.00  0.00    +0.000 OA
ATOM     22  C   UNL     1     101.176 123.758 146.093  0.00  0.00    +0.000 C 
ENDBRANCH  17  21
ENDBRANCH   5  13
BRANCH   6  23
ATOM     23  O   UNL     1     105.386 126.794 145.737  0.00  0.00    +0.000 OA
ATOM     24  C   UNL     1     105.602 126.780 144.940  0.00  0.00    +0.000 C 
ENDBRANCH   6  23
BRANCH  10  25
ATOM     25  O   UNL     1     106.869 127.536 146.063  0.00  0.00    +0.000 OA
ATOM     26  C   UNL     1     107.416 128.057 146.395  0.00  0.00    +0.000 C 
ENDBRANCH  10  25
TORSDOF 5
ENDMDL
MODEL 10
REMARK VINA RESULT:      -7.0     13.010     14.415
REMARK  Name = 44257591
REMARK  5 active torsions:
REMARK  status: ('A' for Active; 'I' for Inactive)
REMARK    1  A    between atoms: O_2  and  C_12
REMARK    2  A    between atoms: O_3  and  C_16
REMARK    3  A    between atoms: O_4  and  C_20
REMARK    4  A    between atoms: O_5  and  C_21
REMARK    5  A    between atoms: C_10  and  C_11
REMARK                            x       y       z     vdW  Elec       q    Type
REMARK                         _______ _______ _______ _____ _____    ______ ____
ROOT
ATOM      1  O   UNL     1     113.476 127.816 136.370  0.00  0.00    +0.000 OA
ATOM      2  O   UNL     1     112.105 129.007 138.052  0.00  0.00    +0.000 OA
ATOM      3  C   UNL     1     113.555 128.631 136.464  0.00  0.00    +0.000 A 
ATOM      4  C   UNL     1     113.098 129.028 137.024  0.00  0.00    +0.000 A 
ATOM      5  C   UNL     1     112.940 127.396 136.836  0.00  0.00    +0.000 A 
ATOM      6  C   UNL     1     114.117 129.057 135.972  0.00  0.00    +0.000 A 
ATOM      7  C   UNL     1     112.562 128.610 137.491  0.00  0.00    +0.000 A 
ATOM      8  C   UNL     1     112.483 127.793 137.397  0.00  0.00    +0.000 A 
ATOM      9  C   UNL     1     113.171 129.878 137.132  0.00  0.00    +0.000 A 
ATOM     10  C   UNL     1     114.204 129.906 136.065  0.00  0.00    +0.000 A 
ATOM     11  C   UNL     1     113.728 130.320 136.649  0.00  0.00    +0.000 A 
ENDROOT
BRANCH   5  13
ATOM     12  O   UNL     1     111.542 125.155 135.747  0.00  0.00    +0.000 OA
ATOM     13  C   UNL     1     112.861 126.581 136.743  0.00  0.00    +0.000 A 
ATOM     14  C   UNL     1     113.401 126.070 137.099  0.00  0.00    +0.000 A 
ATOM     15  C   UNL     1     112.241 126.276 136.292  0.00  0.00    +0.000 A 
ATOM     16  C   UNL     1     113.322 125.255 137.006  0.00  0.00    +0.000 A 
ATOM     17  C   UNL     1     112.702 124.950 136.555  0.00  0.00    +0.000 A 
ATOM     18  C   UNL     1     112.161 125.460 136.198  0.00  0.00    +0.000 A 
BRANCH  16  19
ATOM     19  O   UNL     1     113.863 124.743 137.362  0.00  0.00    +0.000 OA
ATOM     20  C   UNL     1     114.636 124.994 137.504  0.00  0.00    +0.000 C 
ENDBRANCH  16  19
BRANCH  17  21
ATOM     21  O   UNL     1     112.623 124.133 136.461  0.00  0.00    +0.000 OA
ATOM     22  C   UNL     1     112.013 123.732 136.845  0.00  0.00    +0.000 C 
ENDBRANCH  17  21
ENDBRANCH   5  13
BRANCH   6  23
ATOM     23  O   UNL     1     114.570 128.652 135.414  0.00  0.00    +0.000 OA
ATOM     24  C   UNL     1     114.498 128.835 134.612  0.00  0.00    +0.000 C 
ENDBRANCH   6  23
BRANCH  10  25
ATOM     25  O   UNL     1     114.741 130.323 135.597  0.00  0.00    +0.000 OA
ATOM     26  C   UNL     1     114.926 131.106 135.779  0.00  0.00    +0.000 C 
ENDBRANCH  10  25
TORSDOF 5
ENDMDL
