MODEL 1
REMARK VINA RESULT:     -11.4      0.000      0.000
REMARK  Name = 14630617
REMARK  7 active torsions:
REMARK  status: ('A' for Active; 'I' for Inactive)
REMARK    1  A    between atoms: O_1  and  C_19
REMARK    2  A    between atoms: O_1  and  C_22
REMARK    3  A    between atoms: O_5  and  C_27
REMARK    4  A    between atoms: O_5  and  C_36
REMARK    5  A    between atoms: O_11  and  C_35
REMARK    6  A    between atoms: O_11  and  C_41
REMARK    7  A    between atoms: C_38  and  C_46
REMARK                            x       y       z     vdW  Elec       q    Type
REMARK                         _______ _______ _______ _____ _____    ______ ____
ROOT
ATOM      1  O   UNL     1     113.154 128.112 138.533  0.00  0.00    +0.000 OA
ATOM      2  O   UNL     1     112.331 129.712 136.833  0.00  0.00    +0.000 OA
ATOM      3  O   UNL     1     112.605 128.772 135.773  0.00  0.00    +0.000 OA
ATOM      4  C   UNL     1     112.602 129.387 138.198  0.00  0.00    +0.000 A 
ATOM      5  C   UNL     1     112.876 128.854 138.764  0.00  0.00    +0.000 A 
ATOM      6  C   UNL     1     112.605 129.179 137.400  0.00  0.00    +0.000 A 
ATOM      7  C   UNL     1     112.883 128.438 137.167  0.00  0.00    +0.000 A 
ATOM      8  C   UNL     1     113.455 126.906 136.676  0.00  0.00    +0.000 A 
ATOM      9  C   UNL     1     113.157 127.904 137.734  0.00  0.00    +0.000 A 
ATOM     10  C   UNL     1     113.448 127.129 137.505  0.00  0.00    +0.000 A 
ATOM     11  C   UNL     1     112.881 128.233 136.333  0.00  0.00    +0.000 A 
ATOM     12  C   UNL     1     113.169 127.462 136.085  0.00  0.00    +0.000 A 
ENDROOT
BRANCH   5  14
ATOM     13  O   UNL     1     112.867 129.686 141.958  0.00  0.00    +0.000 OA
ATOM     14  C   UNL     1     112.873 129.061 139.562  0.00  0.00    +0.000 A 
ATOM     15  C   UNL     1     113.431 129.598 139.851  0.00  0.00    +0.000 A 
ATOM     16  C   UNL     1     112.314 128.733 140.072  0.00  0.00    +0.000 A 
ATOM     17  C   UNL     1     113.428 129.806 140.649  0.00  0.00    +0.000 A 
ATOM     18  C   UNL     1     112.312 128.941 140.871  0.00  0.00    +0.000 A 
ATOM     19  C   UNL     1     112.868 129.477 141.159  0.00  0.00    +0.000 A 
ENDBRANCH   5  14
BRANCH   4  20
ATOM     20  O   UNL     1     112.325 130.128 138.429  0.00  0.00    +0.000 OA
BRANCH  20  28
ATOM     21  O   UNL     1     110.947 129.785 138.265  0.00  0.00    +0.000 OA
ATOM     22  O   UNL     1     110.421 132.145 137.739  0.00  0.00    +0.000 OA
ATOM     23  O   UNL     1     111.974 131.702 138.078  0.00  0.00    +0.000 OA
ATOM     24  C   UNL     1     109.996 130.792 137.920  0.00  0.00    +0.000 C 
ATOM     25  C   UNL     1     110.596 131.358 137.914  0.00  0.00    +0.000 C 
ATOM     26  C   UNL     1     110.171 130.006 138.095  0.00  0.00    +0.000 C 
ATOM     27  C   UNL     1     111.373 131.137 138.084  0.00  0.00    +0.000 C 
ATOM     28  C   UNL     1     111.549 130.350 138.259  0.00  0.00    +0.000 C 
ATOM     29  C   UNL     1     109.571 129.441 138.101  0.00  0.00    +0.000 C 
BRANCH  24  30
ATOM     30  O   UNL     1     109.219 131.014 137.750  0.00  0.00    +0.000 OA
BRANCH  30  35
ATOM     31  O   UNL     1     109.419 130.731 136.364  0.00  0.00    +0.000 OA
ATOM     32  O   UNL     1     107.816 131.802 137.387  0.00  0.00    +0.000 OA
ATOM     33  O   UNL     1     107.314 131.914 135.820  0.00  0.00    +0.000 OA
ATOM     34  O   UNL     1     108.216 131.237 134.615  0.00  0.00    +0.000 OA
ATOM     35  C   UNL     1     108.968 131.070 136.966  0.00  0.00    +0.000 C 
ATOM     36  C   UNL     1     108.266 131.464 136.785  0.00  0.00    +0.000 C 
ATOM     37  C   UNL     1     108.016 131.519 136.001  0.00  0.00    +0.000 C 
ATOM     38  C   UNL     1     108.466 131.181 135.398  0.00  0.00    +0.000 C 
ATOM     39  C   UNL     1     109.168 130.787 135.580  0.00  0.00    +0.000 C 
ATOM     40  C   UNL     1     109.619 130.448 134.978  0.00  0.00    +0.000 C 
ENDBRANCH  30  35
ENDBRANCH  24  30
ENDBRANCH  20  28
ENDBRANCH   4  20
BRANCH   8  41
ATOM     41  O   UNL     1     113.733 126.163 136.447  0.00  0.00    +0.000 OA
BRANCH  41  50
ATOM     42  O   UNL     1     112.455 125.550 136.264  0.00  0.00    +0.000 OA
ATOM     43  O   UNL     1     113.345 123.425 137.169  0.00  0.00    +0.000 OA
ATOM     44  O   UNL     1     111.770 123.521 136.685  0.00  0.00    +0.000 OA
ATOM     45  O   UNL     1     114.326 124.747 137.050  0.00  0.00    +0.000 OA
ATOM     46  C   UNL     1     113.048 124.134 136.867  0.00  0.00    +0.000 C 
ATOM     47  C   UNL     1     112.261 124.182 136.625  0.00  0.00    +0.000 C 
ATOM     48  C   UNL     1     113.539 124.794 136.808  0.00  0.00    +0.000 C 
ATOM     49  C   UNL     1     111.964 124.890 136.324  0.00  0.00    +0.000 C 
ATOM     50  C   UNL     1     113.242 125.503 136.506  0.00  0.00    +0.000 C 
ATOM     51  C   UNL     1     111.177 124.938 136.082  0.00  0.00    +0.000 C 
ENDBRANCH  41  50
ENDBRANCH   8  41
TORSDOF 7
ENDMDL
MODEL 2
REMARK VINA RESULT:     -11.0      1.342      4.630
REMARK  Name = 14630617
REMARK  7 active torsions:
REMARK  status: ('A' for Active; 'I' for Inactive)
REMARK    1  A    between atoms: O_1  and  C_19
REMARK    2  A    between atoms: O_1  and  C_22
REMARK    3  A    between atoms: O_5  and  C_27
REMARK    4  A    between atoms: O_5  and  C_36
REMARK    5  A    between atoms: O_11  and  C_35
REMARK    6  A    between atoms: O_11  and  C_41
REMARK    7  A    between atoms: C_38  and  C_46
REMARK                            x       y       z     vdW  Elec       q    Type
REMARK                         _______ _______ _______ _____ _____    ______ ____
ROOT
ATOM      1  O   UNL     1     113.356 127.827 138.817  0.00  0.00    +0.000 OA
ATOM      2  O   UNL     1     112.622 129.550 137.199  0.00  0.00    +0.000 OA
ATOM      3  O   UNL     1     112.921 130.603 138.140  0.00  0.00    +0.000 OA
ATOM      4  C   UNL     1     112.837 128.178 137.532  0.00  0.00    +0.000 A 
ATOM      5  C   UNL     1     113.082 127.604 138.072  0.00  0.00    +0.000 A 
ATOM      6  C   UNL     1     112.867 128.976 137.738  0.00  0.00    +0.000 A 
ATOM      7  C   UNL     1     113.141 129.200 138.483  0.00  0.00    +0.000 A 
ATOM      8  C   UNL     1     113.707 129.676 140.022  0.00  0.00    +0.000 A 
ATOM      9  C   UNL     1     113.386 128.626 139.023  0.00  0.00    +0.000 A 
ATOM     10  C   UNL     1     113.673 128.846 139.801  0.00  0.00    +0.000 A 
ATOM     11  C   UNL     1     113.167 130.035 138.685  0.00  0.00    +0.000 A 
ATOM     12  C   UNL     1     113.452 130.275 139.460  0.00  0.00    +0.000 A 
ENDROOT
BRANCH   5  14
ATOM     13  O   UNL     1     112.962 124.409 137.253  0.00  0.00    +0.000 OA
ATOM     14  C   UNL     1     113.052 126.805 137.867  0.00  0.00    +0.000 A 
ATOM     15  C   UNL     1     112.474 126.316 138.196  0.00  0.00    +0.000 A 
ATOM     16  C   UNL     1     113.600 126.495 137.333  0.00  0.00    +0.000 A 
ATOM     17  C   UNL     1     112.445 125.518 137.991  0.00  0.00    +0.000 A 
ATOM     18  C   UNL     1     113.569 125.696 137.129  0.00  0.00    +0.000 A 
ATOM     19  C   UNL     1     112.992 125.208 137.457  0.00  0.00    +0.000 A 
ENDBRANCH   5  14
BRANCH   4  20
ATOM     20  O   UNL     1     112.563 127.954 136.788  0.00  0.00    +0.000 OA
BRANCH  20  28
ATOM     21  O   UNL     1     111.184 128.163 137.096  0.00  0.00    +0.000 OA
ATOM     22  O   UNL     1     110.750 128.780 134.739  0.00  0.00    +0.000 OA
ATOM     23  O   UNL     1     112.274 128.365 135.216  0.00  0.00    +0.000 OA
ATOM     24  C   UNL     1     110.277 128.576 136.072  0.00  0.00    +0.000 C 
ATOM     25  C   UNL     1     110.894 128.574 135.524  0.00  0.00    +0.000 C 
ATOM     26  C   UNL     1     110.421 128.370 136.858  0.00  0.00    +0.000 C 
ATOM     27  C   UNL     1     111.656 128.367 135.763  0.00  0.00    +0.000 C 
ATOM     28  C   UNL     1     111.801 128.161 136.549  0.00  0.00    +0.000 C 
ATOM     29  C   UNL     1     109.805 128.372 137.405  0.00  0.00    +0.000 C 
BRANCH  24  30
ATOM     30  O   UNL     1     109.515 128.783 135.834  0.00  0.00    +0.000 OA
BRANCH  30  35
ATOM     31  O   UNL     1     109.802 130.167 136.037  0.00  0.00    +0.000 OA
ATOM     32  O   UNL     1     107.905 129.132 135.735  0.00  0.00    +0.000 OA
ATOM     33  O   UNL     1     107.388 130.690 135.889  0.00  0.00    +0.000 OA
ATOM     34  O   UNL     1     108.480 131.901 136.141  0.00  0.00    +0.000 OA
ATOM     35  C   UNL     1     109.256 129.562 135.911  0.00  0.00    +0.000 C 
ATOM     36  C   UNL     1     108.451 129.737 135.861  0.00  0.00    +0.000 C 
ATOM     37  C   UNL     1     108.193 130.516 135.938  0.00  0.00    +0.000 C 
ATOM     38  C   UNL     1     108.739 131.122 136.064  0.00  0.00    +0.000 C 
ATOM     39  C   UNL     1     109.543 130.947 136.114  0.00  0.00    +0.000 C 
ATOM     40  C   UNL     1     110.090 131.552 136.240  0.00  0.00    +0.000 C 
ENDBRANCH  30  35
ENDBRANCH  24  30
ENDBRANCH  20  28
ENDBRANCH   4  20
BRANCH   8  41
ATOM     41  O   UNL     1     113.982 129.897 140.768  0.00  0.00    +0.000 OA
BRANCH  41  50
ATOM     42  O   UNL     1     112.843 129.597 141.578  0.00  0.00    +0.000 OA
ATOM     43  O   UNL     1     113.048 131.802 142.684  0.00  0.00    +0.000 OA
ATOM     44  O   UNL     1     111.840 130.766 143.124  0.00  0.00    +0.000 OA
ATOM     45  O   UNL     1     114.118 131.367 141.506  0.00  0.00    +0.000 OA
ATOM     46  C   UNL     1     112.979 131.067 142.315  0.00  0.00    +0.000 C 
ATOM     47  C   UNL     1     112.376 130.549 142.535  0.00  0.00    +0.000 C 
ATOM     48  C   UNL     1     113.515 130.850 141.726  0.00  0.00    +0.000 C 
ATOM     49  C   UNL     1     112.307 129.814 142.166  0.00  0.00    +0.000 C 
ATOM     50  C   UNL     1     113.446 130.115 141.357  0.00  0.00    +0.000 C 
ATOM     51  C   UNL     1     111.704 129.297 142.386  0.00  0.00    +0.000 C 
ENDBRANCH  41  50
ENDBRANCH   8  41
TORSDOF 7
ENDMDL
MODEL 3
REMARK VINA RESULT:     -10.9      1.675      5.721
REMARK  Name = 14630617
REMARK  7 active torsions:
REMARK  status: ('A' for Active; 'I' for Inactive)
REMARK    1  A    between atoms: O_1  and  C_19
REMARK    2  A    between atoms: O_1  and  C_22
REMARK    3  A    between atoms: O_5  and  C_27
REMARK    4  A    between atoms: O_5  and  C_36
REMARK    5  A    between atoms: O_11  and  C_35
REMARK    6  A    between atoms: O_11  and  C_41
REMARK    7  A    between atoms: C_38  and  C_46
REMARK                            x       y       z     vdW  Elec       q    Type
REMARK                         _______ _______ _______ _____ _____    ______ ____
ROOT
ATOM      1  O   UNL     1     112.008 126.669 136.353  0.00  0.00    +0.000 OA
ATOM      2  O   UNL     1     113.228 128.008 138.040  0.00  0.00    +0.000 OA
ATOM      3  O   UNL     1     112.823 129.236 137.400  0.00  0.00    +0.000 OA
ATOM      4  C   UNL     1     112.826 126.738 137.523  0.00  0.00    +0.000 A 
ATOM      5  C   UNL     1     112.419 126.292 136.961  0.00  0.00    +0.000 A 
ATOM      6  C   UNL     1     112.821 127.561 137.477  0.00  0.00    +0.000 A 
ATOM      7  C   UNL     1     112.410 127.940 136.870  0.00  0.00    +0.000 A 
ATOM      8  C   UNL     1     111.563 128.732 135.616  0.00  0.00    +0.000 A 
ATOM      9  C   UNL     1     112.004 127.493 136.308  0.00  0.00    +0.000 A 
ATOM     10  C   UNL     1     111.572 127.874 135.670  0.00  0.00    +0.000 A 
ATOM     11  C   UNL     1     112.414 128.798 136.833  0.00  0.00    +0.000 A 
ATOM     12  C   UNL     1     111.987 129.197 136.203  0.00  0.00    +0.000 A 
ENDROOT
BRANCH   5  14
ATOM     13  O   UNL     1     112.432 122.997 137.142  0.00  0.00    +0.000 OA
ATOM     14  C   UNL     1     112.423 125.468 137.006  0.00  0.00    +0.000 A 
ATOM     15  C   UNL     1     111.748 125.066 137.261  0.00  0.00    +0.000 A 
ATOM     16  C   UNL     1     113.100 125.046 136.796  0.00  0.00    +0.000 A 
ATOM     17  C   UNL     1     111.752 124.243 137.306  0.00  0.00    +0.000 A 
ATOM     18  C   UNL     1     113.102 124.222 136.841  0.00  0.00    +0.000 A 
ATOM     19  C   UNL     1     112.429 123.821 137.096  0.00  0.00    +0.000 A 
ENDBRANCH   5  14
BRANCH   4  20
ATOM     20  O   UNL     1     113.236 126.361 138.130  0.00  0.00    +0.000 OA
BRANCH  20  28
ATOM     21  O   UNL     1     112.269 126.671 139.136  0.00  0.00    +0.000 OA
ATOM     22  O   UNL     1     114.061 126.729 140.842  0.00  0.00    +0.000 OA
ATOM     23  O   UNL     1     114.431 126.400 139.268  0.00  0.00    +0.000 OA
ATOM     24  C   UNL     1     112.682 126.855 140.491  0.00  0.00    +0.000 C 
ATOM     25  C   UNL     1     113.464 126.710 140.274  0.00  0.00    +0.000 C 
ATOM     26  C   UNL     1     112.085 126.836 139.923  0.00  0.00    +0.000 C 
ATOM     27  C   UNL     1     113.649 126.545 139.487  0.00  0.00    +0.000 C 
ATOM     28  C   UNL     1     113.051 126.526 138.917  0.00  0.00    +0.000 C 
ATOM     29  C   UNL     1     111.303 126.981 140.141  0.00  0.00    +0.000 C 
BRANCH  24  30
ATOM     30  O   UNL     1     112.497 127.020 141.278  0.00  0.00    +0.000 OA
BRANCH  30  35
ATOM     31  O   UNL     1     112.881 128.387 141.129  0.00  0.00    +0.000 OA
ATOM     32  O   UNL     1     111.636 127.409 142.631  0.00  0.00    +0.000 OA
ATOM     33  O   UNL     1     111.590 128.971 143.159  0.00  0.00    +0.000 OA
ATOM     34  O   UNL     1     112.404 130.144 142.333  0.00  0.00    +0.000 OA
ATOM     35  C   UNL     1     112.473 127.801 141.542  0.00  0.00    +0.000 C 
ATOM     36  C   UNL     1     112.043 127.995 142.219  0.00  0.00    +0.000 C 
ATOM     37  C   UNL     1     112.020 128.776 142.482  0.00  0.00    +0.000 C 
ATOM     38  C   UNL     1     112.427 129.364 142.069  0.00  0.00    +0.000 C 
ATOM     39  C   UNL     1     112.857 129.169 141.393  0.00  0.00    +0.000 C 
ATOM     40  C   UNL     1     113.264 129.755 140.980  0.00  0.00    +0.000 C 
ENDBRANCH  30  35
ENDBRANCH  24  30
ENDBRANCH  20  28
ENDBRANCH   4  20
BRANCH   8  41
ATOM     41  O   UNL     1     111.152 129.107 135.008  0.00  0.00    +0.000 OA
BRANCH  41  50
ATOM     42  O   UNL     1     109.818 128.846 135.450  0.00  0.00    +0.000 OA
ATOM     43  O   UNL     1     109.169 131.159 134.857  0.00  0.00    +0.000 OA
ATOM     44  O   UNL     1     108.052 130.127 135.497  0.00  0.00    +0.000 OA
ATOM     45  O   UNL     1     110.719 130.649 134.612  0.00  0.00    +0.000 OA
ATOM     46  C   UNL     1     109.385 130.388 135.054  0.00  0.00    +0.000 C 
ATOM     47  C   UNL     1     108.827 129.871 135.374  0.00  0.00    +0.000 C 
ATOM     48  C   UNL     1     110.160 130.133 134.932  0.00  0.00    +0.000 C 
ATOM     49  C   UNL     1     109.043 129.100 135.572  0.00  0.00    +0.000 C 
ATOM     50  C   UNL     1     110.377 129.362 135.130  0.00  0.00    +0.000 C 
ATOM     51  C   UNL     1     108.485 128.584 135.892  0.00  0.00    +0.000 C 
ENDBRANCH  41  50
ENDBRANCH   8  41
TORSDOF 7
ENDMDL
MODEL 4
REMARK VINA RESULT:     -10.9      1.368      1.956
REMARK  Name = 14630617
REMARK  7 active torsions:
REMARK  status: ('A' for Active; 'I' for Inactive)
REMARK    1  A    between atoms: O_1  and  C_19
REMARK    2  A    between atoms: O_1  and  C_22
REMARK    3  A    between atoms: O_5  and  C_27
REMARK    4  A    between atoms: O_5  and  C_36
REMARK    5  A    between atoms: O_11  and  C_35
REMARK    6  A    between atoms: O_11  and  C_41
REMARK    7  A    between atoms: C_38  and  C_46
REMARK                            x       y       z     vdW  Elec       q    Type
REMARK                         _______ _______ _______ _____ _____    ______ ____
ROOT
ATOM      1  O   UNL     1     112.955 128.380 139.585  0.00  0.00    +0.000 OA
ATOM      2  O   UNL     1     110.682 129.155 138.989  0.00  0.00    +0.000 OA
ATOM      3  O   UNL     1     110.292 127.817 138.614  0.00  0.00    +0.000 OA
ATOM      4  C   UNL     1     111.998 129.434 139.469  0.00  0.00    +0.000 A 
ATOM      5  C   UNL     1     112.756 129.176 139.668  0.00  0.00    +0.000 A 
ATOM      6  C   UNL     1     111.440 128.897 139.187  0.00  0.00    +0.000 A 
ATOM      7  C   UNL     1     111.638 128.100 139.105  0.00  0.00    +0.000 A 
ATOM      8  C   UNL     1     112.039 126.449 138.930  0.00  0.00    +0.000 A 
ATOM      9  C   UNL     1     112.396 127.842 139.304  0.00  0.00    +0.000 A 
ATOM     10  C   UNL     1     112.616 127.015 139.222  0.00  0.00    +0.000 A 
ATOM     11  C   UNL     1     111.048 127.550 138.811  0.00  0.00    +0.000 A 
ATOM     12  C   UNL     1     111.249 126.719 138.722  0.00  0.00    +0.000 A 
ENDROOT
BRANCH   5  14
ATOM     13  O   UNL     1     114.991 131.326 140.796  0.00  0.00    +0.000 OA
ATOM     14  C   UNL     1     113.315 129.713 139.949  0.00  0.00    +0.000 A 
ATOM     15  C   UNL     1     113.272 129.982 140.729  0.00  0.00    +0.000 A 
ATOM     16  C   UNL     1     113.916 129.982 139.452  0.00  0.00    +0.000 A 
ATOM     17  C   UNL     1     113.831 130.519 141.010  0.00  0.00    +0.000 A 
ATOM     18  C   UNL     1     114.474 130.520 139.735  0.00  0.00    +0.000 A 
ATOM     19  C   UNL     1     114.432 130.788 140.513  0.00  0.00    +0.000 A 
ENDBRANCH   5  14
BRANCH   4  20
ATOM     20  O   UNL     1     111.799 130.230 139.551  0.00  0.00    +0.000 OA
BRANCH  20  28
ATOM     21  O   UNL     1     111.846 130.519 138.152  0.00  0.00    +0.000 OA
ATOM     22  O   UNL     1     110.066 132.213 138.441  0.00  0.00    +0.000 OA
ATOM     23  O   UNL     1     110.612 131.360 139.744  0.00  0.00    +0.000 OA
ATOM     24  C   UNL     1     110.980 131.509 137.597  0.00  0.00    +0.000 C 
ATOM     25  C   UNL     1     110.659 131.648 138.345  0.00  0.00    +0.000 C 
ATOM     26  C   UNL     1     111.573 130.945 137.501  0.00  0.00    +0.000 C 
ATOM     27  C   UNL     1     110.932 131.222 138.996  0.00  0.00    +0.000 C 
ATOM     28  C   UNL     1     111.526 130.657 138.900  0.00  0.00    +0.000 C 
ATOM     29  C   UNL     1     111.893 130.807 136.754  0.00  0.00    +0.000 C 
BRANCH  24  30
ATOM     30  O   UNL     1     110.706 131.936 136.946  0.00  0.00    +0.000 OA
BRANCH  30  35
ATOM     31  O   UNL     1     109.766 130.911 136.623  0.00  0.00    +0.000 OA
ATOM     32  O   UNL     1     109.881 132.995 135.988  0.00  0.00    +0.000 OA
ATOM     33  O   UNL     1     108.528 132.499 135.186  0.00  0.00    +0.000 OA
ATOM     34  O   UNL     1     108.000 130.944 135.342  0.00  0.00    +0.000 OA
ATOM     35  C   UNL     1     110.030 131.688 136.545  0.00  0.00    +0.000 C 
ATOM     36  C   UNL     1     109.617 132.218 136.066  0.00  0.00    +0.000 C 
ATOM     37  C   UNL     1     108.940 131.970 135.665  0.00  0.00    +0.000 C 
ATOM     38  C   UNL     1     108.676 131.192 135.742  0.00  0.00    +0.000 C 
ATOM     39  C   UNL     1     109.089 130.662 136.222  0.00  0.00    +0.000 C 
ATOM     40  C   UNL     1     108.826 129.885 136.300  0.00  0.00    +0.000 C 
ENDBRANCH  30  35
ENDBRANCH  24  30
ENDBRANCH  20  28
ENDBRANCH   4  20
BRANCH   8  41
ATOM     41  O   UNL     1     112.241 125.654 138.848  0.00  0.00    +0.000 OA
BRANCH  41  50
ATOM     42  O   UNL     1     113.207 125.721 137.797  0.00  0.00    +0.000 OA
ATOM     43  O   UNL     1     112.081 123.844 136.642  0.00  0.00    +0.000 OA
ATOM     44  O   UNL     1     113.422 124.537 135.976  0.00  0.00    +0.000 OA
ATOM     45  O   UNL     1     111.490 124.402 138.078  0.00  0.00    +0.000 OA
ATOM     46  C   UNL     1     112.456 124.469 137.027  0.00  0.00    +0.000 C 
ATOM     47  C   UNL     1     113.127 124.817 136.694  0.00  0.00    +0.000 C 
ATOM     48  C   UNL     1     112.161 124.749 137.745  0.00  0.00    +0.000 C 
ATOM     49  C   UNL     1     113.502 125.442 137.079  0.00  0.00    +0.000 C 
ATOM     50  C   UNL     1     112.536 125.374 138.130  0.00  0.00    +0.000 C 
ATOM     51  C   UNL     1     114.173 125.789 136.746  0.00  0.00    +0.000 C 
ENDBRANCH  41  50
ENDBRANCH   8  41
TORSDOF 7
ENDMDL
MODEL 5
REMARK VINA RESULT:     -10.7      1.046      5.845
REMARK  Name = 14630617
REMARK  7 active torsions:
REMARK  status: ('A' for Active; 'I' for Inactive)
REMARK    1  A    between atoms: O_1  and  C_19
REMARK    2  A    between atoms: O_1  and  C_22
REMARK    3  A    between atoms: O_5  and  C_27
REMARK    4  A    between atoms: O_5  and  C_36
REMARK    5  A    between atoms: O_11  and  C_35
REMARK    6  A    between atoms: O_11  and  C_41
REMARK    7  A    between atoms: C_38  and  C_46
REMARK                            x       y       z     vdW  Elec       q    Type
REMARK                         _______ _______ _______ _____ _____    ______ ____
ROOT
ATOM      1  O   UNL     1     111.807 130.578 138.894  0.00  0.00    +0.000 OA
ATOM      2  O   UNL     1     111.062 128.218 138.906  0.00  0.00    +0.000 OA
ATOM      3  O   UNL     1     109.780 128.589 138.357  0.00  0.00    +0.000 OA
ATOM      4  C   UNL     1     112.065 129.200 139.171  0.00  0.00    +0.000 A 
ATOM      5  C   UNL     1     112.313 129.986 139.168  0.00  0.00    +0.000 A 
ATOM      6  C   UNL     1     111.311 129.004 138.902  0.00  0.00    +0.000 A 
ATOM      7  C   UNL     1     110.804 129.595 138.628  0.00  0.00    +0.000 A 
ATOM      8  C   UNL     1     109.747 130.810 138.060  0.00  0.00    +0.000 A 
ATOM      9  C   UNL     1     111.052 130.382 138.625  0.00  0.00    +0.000 A 
ATOM     10  C   UNL     1     110.534 131.006 138.342  0.00  0.00    +0.000 A 
ATOM     11  C   UNL     1     110.020 129.378 138.350  0.00  0.00    +0.000 A 
ATOM     12  C   UNL     1     109.488 129.990 138.064  0.00  0.00    +0.000 A 
ENDROOT
BRANCH   5  14
ATOM     13  O   UNL     1     115.332 130.772 140.243  0.00  0.00    +0.000 OA
ATOM     14  C   UNL     1     113.068 130.182 139.437  0.00  0.00    +0.000 A 
ATOM     15  C   UNL     1     113.649 130.417 138.900  0.00  0.00    +0.000 A 
ATOM     16  C   UNL     1     113.241 130.145 140.243  0.00  0.00    +0.000 A 
ATOM     17  C   UNL     1     114.404 130.613 139.169  0.00  0.00    +0.000 A 
ATOM     18  C   UNL     1     113.997 130.341 140.511  0.00  0.00    +0.000 A 
ATOM     19  C   UNL     1     114.577 130.575 139.975  0.00  0.00    +0.000 A 
ENDBRANCH   5  14
BRANCH   4  20
ATOM     20  O   UNL     1     112.571 128.609 139.445  0.00  0.00    +0.000 OA
BRANCH  20  28
ATOM     21  O   UNL     1     112.921 128.144 138.139  0.00  0.00    +0.000 OA
ATOM     22  O   UNL     1     113.239 125.860 139.037  0.00  0.00    +0.000 OA
ATOM     23  O   UNL     1     112.783 127.086 140.043  0.00  0.00    +0.000 OA
ATOM     24  C   UNL     1     113.255 126.771 137.936  0.00  0.00    +0.000 C 
ATOM     25  C   UNL     1     113.133 126.621 138.738  0.00  0.00    +0.000 C 
ATOM     26  C   UNL     1     113.150 127.531 137.636  0.00  0.00    +0.000 C 
ATOM     27  C   UNL     1     112.905 127.234 139.241  0.00  0.00    +0.000 C 
ATOM     28  C   UNL     1     112.799 127.996 138.942  0.00  0.00    +0.000 C 
ATOM     29  C   UNL     1     113.272 127.680 136.835  0.00  0.00    +0.000 C 
BRANCH  24  30
ATOM     30  O   UNL     1     113.483 126.158 137.432  0.00  0.00    +0.000 OA
BRANCH  30  35
ATOM     31  O   UNL     1     112.139 125.911 137.018  0.00  0.00    +0.000 OA
ATOM     32  O   UNL     1     113.900 124.621 136.999  0.00  0.00    +0.000 OA
ATOM     33  O   UNL     1     112.764 123.606 136.367  0.00  0.00    +0.000 OA
ATOM     34  O   UNL     1     111.211 124.127 136.170  0.00  0.00    +0.000 OA
ATOM     35  C   UNL     1     112.916 125.650 137.117  0.00  0.00    +0.000 C 
ATOM     36  C   UNL     1     113.124 124.881 136.900  0.00  0.00    +0.000 C 
ATOM     37  C   UNL     1     112.556 124.374 136.584  0.00  0.00    +0.000 C 
ATOM     38  C   UNL     1     111.779 124.634 136.485  0.00  0.00    +0.000 C 
ATOM     39  C   UNL     1     111.571 125.402 136.702  0.00  0.00    +0.000 C 
ATOM     40  C   UNL     1     110.794 125.663 136.604  0.00  0.00    +0.000 C 
ENDBRANCH  30  35
ENDBRANCH  24  30
ENDBRANCH  20  28
ENDBRANCH   4  20
BRANCH   8  41
ATOM     41  O   UNL     1     109.242 131.403 137.787  0.00  0.00    +0.000 OA
BRANCH  41  50
ATOM     42  O   UNL     1     109.515 131.223 136.396  0.00  0.00    +0.000 OA
ATOM     43  O   UNL     1     107.150 131.727 135.868  0.00  0.00    +0.000 OA
ATOM     44  O   UNL     1     108.211 131.379 134.653  0.00  0.00    +0.000 OA
ATOM     45  O   UNL     1     107.666 131.739 137.435  0.00  0.00    +0.000 OA
ATOM     46  C   UNL     1     107.938 131.559 136.044  0.00  0.00    +0.000 C 
ATOM     47  C   UNL     1     108.469 131.385 135.436  0.00  0.00    +0.000 C 
ATOM     48  C   UNL     1     108.196 131.565 136.827  0.00  0.00    +0.000 C 
ATOM     49  C   UNL     1     109.258 131.217 135.613  0.00  0.00    +0.000 C 
ATOM     50  C   UNL     1     108.984 131.397 137.004  0.00  0.00    +0.000 C 
ATOM     51  C   UNL     1     109.788 131.043 135.005  0.00  0.00    +0.000 C 
ENDBRANCH  41  50
ENDBRANCH   8  41
TORSDOF 7
ENDMDL
MODEL 6
REMARK VINA RESULT:     -10.7      1.820      6.204
REMARK  Name = 14630617
REMARK  7 active torsions:
REMARK  status: ('A' for Active; 'I' for Inactive)
REMARK    1  A    between atoms: O_1  and  C_19
REMARK    2  A    between atoms: O_1  and  C_22
REMARK    3  A    between atoms: O_5  and  C_27
REMARK    4  A    between atoms: O_5  and  C_36
REMARK    5  A    between atoms: O_11  and  C_35
REMARK    6  A    between atoms: O_11  and  C_41
REMARK    7  A    between atoms: C_38  and  C_46
REMARK                            x       y       z     vdW  Elec       q    Type
REMARK                         _______ _______ _______ _____ _____    ______ ____
ROOT
ATOM      1  O   UNL     1     111.968 129.801 135.392  0.00  0.00    +0.000 OA
ATOM      2  O   UNL     1     111.423 127.618 136.423  0.00  0.00    +0.000 OA
ATOM      3  O   UNL     1     110.014 127.933 136.415  0.00  0.00    +0.000 OA
ATOM      4  C   UNL     1     112.389 128.540 135.918  0.00  0.00    +0.000 A 
ATOM      5  C   UNL     1     112.570 129.268 135.574  0.00  0.00    +0.000 A 
ATOM      6  C   UNL     1     111.604 128.346 136.080  0.00  0.00    +0.000 A 
ATOM      7  C   UNL     1     111.000 128.878 135.898  0.00  0.00    +0.000 A 
ATOM      8  C   UNL     1     109.743 129.972 135.526  0.00  0.00    +0.000 A 
ATOM      9  C   UNL     1     111.182 129.605 135.554  0.00  0.00    +0.000 A 
ATOM     10  C   UNL     1     110.563 130.168 135.361  0.00  0.00    +0.000 A 
ATOM     11  C   UNL     1     110.187 128.663 136.072  0.00  0.00    +0.000 A 
ATOM     12  C   UNL     1     109.554 129.213 135.885  0.00  0.00    +0.000 A 
ENDROOT
BRANCH   5  14
ATOM     13  O   UNL     1     115.710 130.049 134.923  0.00  0.00    +0.000 OA
ATOM     14  C   UNL     1     113.355 129.464 135.412  0.00  0.00    +0.000 A 
ATOM     15  C   UNL     1     113.744 129.112 134.774  0.00  0.00    +0.000 A 
ATOM     16  C   UNL     1     113.751 130.010 135.887  0.00  0.00    +0.000 A 
ATOM     17  C   UNL     1     114.529 129.308 134.612  0.00  0.00    +0.000 A 
ATOM     18  C   UNL     1     114.536 130.205 135.723  0.00  0.00    +0.000 A 
ATOM     19  C   UNL     1     114.925 129.854 135.087  0.00  0.00    +0.000 A 
ENDBRANCH   5  14
BRANCH   4  20
ATOM     20  O   UNL     1     112.992 128.008 136.099  0.00  0.00    +0.000 OA
BRANCH  20  28
ATOM     21  O   UNL     1     113.014 128.300 137.498  0.00  0.00    +0.000 OA
ATOM     22  O   UNL     1     113.622 125.950 137.979  0.00  0.00    +0.000 OA
ATOM     23  O   UNL     1     113.398 126.442 136.420  0.00  0.00    +0.000 OA
ATOM     24  C   UNL     1     113.329 127.271 138.438  0.00  0.00    +0.000 C 
ATOM     25  C   UNL     1     113.419 126.733 137.819  0.00  0.00    +0.000 C 
ATOM     26  C   UNL     1     113.126 128.054 138.278  0.00  0.00    +0.000 C 
ATOM     27  C   UNL     1     113.307 126.979 137.040  0.00  0.00    +0.000 C 
ATOM     28  C   UNL     1     113.104 127.763 136.879  0.00  0.00    +0.000 C 
ATOM     29  C   UNL     1     113.035 128.592 138.896  0.00  0.00    +0.000 C 
BRANCH  24  30
ATOM     30  O   UNL     1     113.441 127.026 139.217  0.00  0.00    +0.000 OA
BRANCH  30  35
ATOM     31  O   UNL     1     112.073 126.626 139.308  0.00  0.00    +0.000 OA
ATOM     32  O   UNL     1     113.596 126.863 140.852  0.00  0.00    +0.000 OA
ATOM     33  O   UNL     1     112.306 126.382 141.759  0.00  0.00    +0.000 OA
ATOM     34  O   UNL     1     110.859 126.063 141.032  0.00  0.00    +0.000 OA
ATOM     35  C   UNL     1     112.796 126.785 139.672  0.00  0.00    +0.000 C 
ATOM     36  C   UNL     1     112.874 126.704 140.489  0.00  0.00    +0.000 C 
ATOM     37  C   UNL     1     112.228 126.463 140.942  0.00  0.00    +0.000 C 
ATOM     38  C   UNL     1     111.505 126.304 140.579  0.00  0.00    +0.000 C 
ATOM     39  C   UNL     1     111.427 126.385 139.762  0.00  0.00    +0.000 C 
ATOM     40  C   UNL     1     110.704 126.226 139.398  0.00  0.00    +0.000 C 
ENDBRANCH  30  35
ENDBRANCH  24  30
ENDBRANCH  20  28
ENDBRANCH   4  20
BRANCH   8  41
ATOM     41  O   UNL     1     109.142 130.506 135.344  0.00  0.00    +0.000 OA
BRANCH  41  50
ATOM     42  O   UNL     1     109.288 131.287 136.532  0.00  0.00    +0.000 OA
ATOM     43  O   UNL     1     106.856 131.743 136.532  0.00  0.00    +0.000 OA
ATOM     44  O   UNL     1     107.814 132.372 137.720  0.00  0.00    +0.000 OA
ATOM     45  O   UNL     1     107.520 130.811 135.344  0.00  0.00    +0.000 OA
ATOM     46  C   UNL     1     107.667 131.591 136.532  0.00  0.00    +0.000 C 
ATOM     47  C   UNL     1     108.147 131.905 137.126  0.00  0.00    +0.000 C 
ATOM     48  C   UNL     1     107.999 131.125 135.938  0.00  0.00    +0.000 C 
ATOM     49  C   UNL     1     108.957 131.753 137.126  0.00  0.00    +0.000 C 
ATOM     50  C   UNL     1     108.810 130.973 135.938  0.00  0.00    +0.000 C 
ATOM     51  C   UNL     1     109.436 132.067 137.720  0.00  0.00    +0.000 C 
ENDBRANCH  41  50
ENDBRANCH   8  41
TORSDOF 7
ENDMDL
MODEL 7
REMARK VINA RESULT:     -10.7      1.778      2.635
REMARK  Name = 14630617
REMARK  7 active torsions:
REMARK  status: ('A' for Active; 'I' for Inactive)
REMARK    1  A    between atoms: O_1  and  C_19
REMARK    2  A    between atoms: O_1  and  C_22
REMARK    3  A    between atoms: O_5  and  C_27
REMARK    4  A    between atoms: O_5  and  C_36
REMARK    5  A    between atoms: O_11  and  C_35
REMARK    6  A    between atoms: O_11  and  C_41
REMARK    7  A    between atoms: C_38  and  C_46
REMARK                            x       y       z     vdW  Elec       q    Type
REMARK                         _______ _______ _______ _____ _____    ______ ____
ROOT
ATOM      1  O   UNL     1     110.574 126.922 139.560  0.00  0.00    +0.000 OA
ATOM      2  O   UNL     1     109.189 128.517 138.269  0.00  0.00    +0.000 OA
ATOM      3  O   UNL     1     109.305 127.703 137.083  0.00  0.00    +0.000 OA
ATOM      4  C   UNL     1     109.815 128.132 139.494  0.00  0.00    +0.000 A 
ATOM      5  C   UNL     1     110.277 127.601 139.924  0.00  0.00    +0.000 A 
ATOM      6  C   UNL     1     109.651 127.985 138.700  0.00  0.00    +0.000 A 
ATOM      7  C   UNL     1     109.947 127.307 138.334  0.00  0.00    +0.000 A 
ATOM      8  C   UNL     1     110.555 125.907 137.569  0.00  0.00    +0.000 A 
ATOM      9  C   UNL     1     110.408 126.776 138.765  0.00  0.00    +0.000 A 
ATOM     10  C   UNL     1     110.723 126.066 138.397  0.00  0.00    +0.000 A 
ATOM     11  C   UNL     1     109.768 127.166 137.506  0.00  0.00    +0.000 A 
ATOM     12  C   UNL     1     110.074 126.461 137.120  0.00  0.00    +0.000 A 
ENDROOT
BRANCH   5  14
ATOM     13  O   UNL     1     110.942 128.186 143.103  0.00  0.00    +0.000 OA
ATOM     14  C   UNL     1     110.443 127.747 140.719  0.00  0.00    +0.000 A 
ATOM     15  C   UNL     1     111.207 127.959 140.948  0.00  0.00    +0.000 A 
ATOM     16  C   UNL     1     109.845 127.681 141.284  0.00  0.00    +0.000 A 
ATOM     17  C   UNL     1     111.372 128.105 141.743  0.00  0.00    +0.000 A 
ATOM     18  C   UNL     1     110.012 127.827 142.079  0.00  0.00    +0.000 A 
ATOM     19  C   UNL     1     110.775 128.039 142.308  0.00  0.00    +0.000 A 
ENDBRANCH   5  14
BRANCH   4  20
ATOM     20  O   UNL     1     109.519 128.809 139.858  0.00  0.00    +0.000 OA
BRANCH  20  28
ATOM     21  O   UNL     1     110.493 129.688 139.291  0.00  0.00    +0.000 OA
ATOM     22  O   UNL     1     108.840 131.529 139.302  0.00  0.00    +0.000 OA
ATOM     23  O   UNL     1     108.417 130.038 139.866  0.00  0.00    +0.000 OA
ATOM     24  C   UNL     1     110.154 131.047 139.013  0.00  0.00    +0.000 C 
ATOM     25  C   UNL     1     109.391 130.916 139.298  0.00  0.00    +0.000 C 
ATOM     26  C   UNL     1     110.705 130.434 139.009  0.00  0.00    +0.000 C 
ATOM     27  C   UNL     1     109.180 130.170 139.580  0.00  0.00    +0.000 C 
ATOM     28  C   UNL     1     109.731 129.555 139.576  0.00  0.00    +0.000 C 
ATOM     29  C   UNL     1     111.467 130.565 138.723  0.00  0.00    +0.000 C 
BRANCH  24  30
ATOM     30  O   UNL     1     110.366 131.793 138.731  0.00  0.00    +0.000 OA
BRANCH  30  35
ATOM     31  O   UNL     1     109.985 131.414 137.408  0.00  0.00    +0.000 OA
ATOM     32  O   UNL     1     110.529 133.358 138.235  0.00  0.00    +0.000 OA
ATOM     33  O   UNL     1     110.231 133.762 136.664  0.00  0.00    +0.000 OA
ATOM     34  O   UNL     1     109.769 132.600 135.588  0.00  0.00    +0.000 OA
ATOM     35  C   UNL     1     110.216 131.995 137.945  0.00  0.00    +0.000 C 
ATOM     36  C   UNL     1     110.298 132.778 137.697  0.00  0.00    +0.000 C 
ATOM     37  C   UNL     1     110.149 132.979 136.912  0.00  0.00    +0.000 C 
ATOM     38  C   UNL     1     109.918 132.398 136.373  0.00  0.00    +0.000 C 
ATOM     39  C   UNL     1     109.836 131.616 136.621  0.00  0.00    +0.000 C 
ATOM     40  C   UNL     1     109.605 131.034 136.083  0.00  0.00    +0.000 C 
ENDBRANCH  30  35
ENDBRANCH  24  30
ENDBRANCH  20  28
ENDBRANCH   4  20
BRANCH   8  41
ATOM     41  O   UNL     1     110.853 125.228 137.207  0.00  0.00    +0.000 OA
BRANCH  41  50
ATOM     42  O   UNL     1     112.062 125.851 136.770  0.00  0.00    +0.000 OA
ATOM     43  O   UNL     1     113.245 123.685 136.958  0.00  0.00    +0.000 OA
ATOM     44  O   UNL     1     114.060 125.030 136.458  0.00  0.00    +0.000 OA
ATOM     45  O   UNL     1     111.641 123.784 137.332  0.00  0.00    +0.000 OA
ATOM     46  C   UNL     1     112.851 124.407 136.895  0.00  0.00    +0.000 C 
ATOM     47  C   UNL     1     113.258 125.080 136.645  0.00  0.00    +0.000 C 
ATOM     48  C   UNL     1     112.049 124.457 137.082  0.00  0.00    +0.000 C 
ATOM     49  C   UNL     1     112.864 125.802 136.583  0.00  0.00    +0.000 C 
ATOM     50  C   UNL     1     111.655 125.179 137.020  0.00  0.00    +0.000 C 
ATOM     51  C   UNL     1     113.272 126.474 136.333  0.00  0.00    +0.000 C 
ENDBRANCH  41  50
ENDBRANCH   8  41
TORSDOF 7
ENDMDL
MODEL 8
REMARK VINA RESULT:     -10.7      1.879      5.748
REMARK  Name = 14630617
REMARK  7 active torsions:
REMARK  status: ('A' for Active; 'I' for Inactive)
REMARK    1  A    between atoms: O_1  and  C_19
REMARK    2  A    between atoms: O_1  and  C_22
REMARK    3  A    between atoms: O_5  and  C_27
REMARK    4  A    between atoms: O_5  and  C_36
REMARK    5  A    between atoms: O_11  and  C_35
REMARK    6  A    between atoms: O_11  and  C_41
REMARK    7  A    between atoms: C_38  and  C_46
REMARK                            x       y       z     vdW  Elec       q    Type
REMARK                         _______ _______ _______ _____ _____    ______ ____
ROOT
ATOM      1  O   UNL     1     111.690 126.916 136.944  0.00  0.00    +0.000 OA
ATOM      2  O   UNL     1     111.436 127.659 139.291  0.00  0.00    +0.000 OA
ATOM      3  O   UNL     1     110.188 128.313 138.980  0.00  0.00    +0.000 OA
ATOM      4  C   UNL     1     112.179 126.968 138.286  0.00  0.00    +0.000 A 
ATOM      5  C   UNL     1     112.264 126.720 137.504  0.00  0.00    +0.000 A 
ATOM      6  C   UNL     1     111.521 127.411 138.509  0.00  0.00    +0.000 A 
ATOM      7  C   UNL     1     110.946 127.608 137.950  0.00  0.00    +0.000 A 
ATOM      8  C   UNL     1     109.752 128.019 136.802  0.00  0.00    +0.000 A 
ATOM      9  C   UNL     1     111.031 127.360 137.168  0.00  0.00    +0.000 A 
ATOM     10  C   UNL     1     110.440 127.557 136.577  0.00  0.00    +0.000 A 
ATOM     11  C   UNL     1     110.265 128.070 138.195  0.00  0.00    +0.000 A 
ATOM     12  C   UNL     1     109.663 128.277 137.617  0.00  0.00    +0.000 A 
ENDROOT
BRANCH   5  14
ATOM     13  O   UNL     1     114.897 124.944 136.609  0.00  0.00    +0.000 OA
ATOM     14  C   UNL     1     112.922 126.277 137.280  0.00  0.00    +0.000 A 
ATOM     15  C   UNL     1     112.979 125.483 137.501  0.00  0.00    +0.000 A 
ATOM     16  C   UNL     1     113.524 126.626 136.836  0.00  0.00    +0.000 A 
ATOM     17  C   UNL     1     113.638 125.040 137.277  0.00  0.00    +0.000 A 
ATOM     18  C   UNL     1     114.182 126.181 136.612  0.00  0.00    +0.000 A 
ATOM     19  C   UNL     1     114.239 125.389 136.833  0.00  0.00    +0.000 A 
ENDBRANCH   5  14
BRANCH   4  20
ATOM     20  O   UNL     1     112.753 126.772 138.845  0.00  0.00    +0.000 OA
BRANCH  20  28
ATOM     21  O   UNL     1     113.290 128.096 138.870  0.00  0.00    +0.000 OA
ATOM     22  O   UNL     1     114.162 127.701 141.151  0.00  0.00    +0.000 OA
ATOM     23  O   UNL     1     113.335 126.508 140.366  0.00  0.00    +0.000 OA
ATOM     24  C   UNL     1     113.994 128.560 140.023  0.00  0.00    +0.000 C 
ATOM     25  C   UNL     1     113.872 127.833 140.391  0.00  0.00    +0.000 C 
ATOM     26  C   UNL     1     113.704 128.692 139.262  0.00  0.00    +0.000 C 
ATOM     27  C   UNL     1     113.458 127.236 139.999  0.00  0.00    +0.000 C 
ATOM     28  C   UNL     1     113.167 127.368 139.237  0.00  0.00    +0.000 C 
ATOM     29  C   UNL     1     113.827 129.420 138.894  0.00  0.00    +0.000 C 
BRANCH  24  30
ATOM     30  O   UNL     1     114.408 129.157 140.415  0.00  0.00    +0.000 OA
BRANCH  30  35
ATOM     31  O   UNL     1     113.227 129.557 141.111  0.00  0.00    +0.000 OA
ATOM     32  O   UNL     1     115.141 130.571 140.845  0.00  0.00    +0.000 OA
ATOM     33  O   UNL     1     114.326 131.678 141.756  0.00  0.00    +0.000 OA
ATOM     34  O   UNL     1     112.778 131.372 142.237  0.00  0.00    +0.000 OA
ATOM     35  C   UNL     1     114.001 129.711 140.871  0.00  0.00    +0.000 C 
ATOM     36  C   UNL     1     114.367 130.418 141.086  0.00  0.00    +0.000 C 
ATOM     37  C   UNL     1     113.959 130.971 141.541  0.00  0.00    +0.000 C 
ATOM     38  C   UNL     1     113.185 130.818 141.782  0.00  0.00    +0.000 C 
ATOM     39  C   UNL     1     112.819 130.111 141.567  0.00  0.00    +0.000 C 
ATOM     40  C   UNL     1     112.045 129.957 141.807  0.00  0.00    +0.000 C 
ENDBRANCH  30  35
ENDBRANCH  24  30
ENDBRANCH  20  28
ENDBRANCH   4  20
BRANCH   8  41
ATOM     41  O   UNL     1     109.179 128.214 136.241  0.00  0.00    +0.000 OA
BRANCH  41  50
ATOM     42  O   UNL     1     109.914 129.164 135.467  0.00  0.00    +0.000 OA
ATOM     43  O   UNL     1     107.938 130.654 135.420  0.00  0.00    +0.000 OA
ATOM     44  O   UNL     1     109.333 131.107 134.662  0.00  0.00    +0.000 OA
ATOM     45  O   UNL     1     107.862 129.207 136.210  0.00  0.00    +0.000 OA
ATOM     46  C   UNL     1     108.597 130.157 135.436  0.00  0.00    +0.000 C 
ATOM     47  C   UNL     1     109.294 130.384 135.057  0.00  0.00    +0.000 C 
ATOM     48  C   UNL     1     108.559 129.434 135.830  0.00  0.00    +0.000 C 
ATOM     49  C   UNL     1     109.953 129.887 135.072  0.00  0.00    +0.000 C 
ATOM     50  C   UNL     1     109.217 128.937 135.846  0.00  0.00    +0.000 C 
ATOM     51  C   UNL     1     110.650 130.114 134.693  0.00  0.00    +0.000 C 
ENDBRANCH  41  50
ENDBRANCH   8  41
TORSDOF 7
ENDMDL
MODEL 9
REMARK VINA RESULT:     -10.6      1.659      4.459
REMARK  Name = 14630617
REMARK  7 active torsions:
REMARK  status: ('A' for Active; 'I' for Inactive)
REMARK    1  A    between atoms: O_1  and  C_19
REMARK    2  A    between atoms: O_1  and  C_22
REMARK    3  A    between atoms: O_5  and  C_27
REMARK    4  A    between atoms: O_5  and  C_36
REMARK    5  A    between atoms: O_11  and  C_35
REMARK    6  A    between atoms: O_11  and  C_41
REMARK    7  A    between atoms: C_38  and  C_46
REMARK                            x       y       z     vdW  Elec       q    Type
REMARK                         _______ _______ _______ _____ _____    ______ ____
ROOT
ATOM      1  O   UNL     1     110.059 127.993 136.414  0.00  0.00    +0.000 OA
ATOM      2  O   UNL     1     109.603 128.045 138.846  0.00  0.00    +0.000 OA
ATOM      3  O   UNL     1     110.097 126.697 138.997  0.00  0.00    +0.000 OA
ATOM      4  C   UNL     1     109.584 128.686 137.570  0.00  0.00    +0.000 A 
ATOM      5  C   UNL     1     109.736 128.669 136.759  0.00  0.00    +0.000 A 
ATOM      6  C   UNL     1     109.755 128.028 138.036  0.00  0.00    +0.000 A 
ATOM      7  C   UNL     1     110.078 127.351 137.691  0.00  0.00    +0.000 A 
ATOM      8  C   UNL     1     110.748 125.946 136.989  0.00  0.00    +0.000 A 
ATOM      9  C   UNL     1     110.231 127.334 136.881  0.00  0.00    +0.000 A 
ATOM     10  C   UNL     1     110.567 126.636 136.510  0.00  0.00    +0.000 A 
ATOM     11  C   UNL     1     110.252 126.672 138.187  0.00  0.00    +0.000 A 
ATOM     12  C   UNL     1     110.589 125.964 137.834  0.00  0.00    +0.000 A 
ENDROOT
BRANCH   5  14
ATOM     13  O   UNL     1     109.050 131.303 134.894  0.00  0.00    +0.000 OA
ATOM     14  C   UNL     1     109.565 129.328 136.293  0.00  0.00    +0.000 A 
ATOM     15  C   UNL     1     108.781 129.518 136.120  0.00  0.00    +0.000 A 
ATOM     16  C   UNL     1     110.178 129.796 136.000  0.00  0.00    +0.000 A 
ATOM     17  C   UNL     1     108.610 130.176 135.653  0.00  0.00    +0.000 A 
ATOM     18  C   UNL     1     110.005 130.455 135.533  0.00  0.00    +0.000 A 
ATOM     19  C   UNL     1     109.222 130.645 135.360  0.00  0.00    +0.000 A 
ENDBRANCH   5  14
BRANCH   4  20
ATOM     20  O   UNL     1     109.261 129.362 137.914  0.00  0.00    +0.000 OA
BRANCH  20  28
ATOM     21  O   UNL     1     110.499 129.800 138.478  0.00  0.00    +0.000 OA
ATOM     22  O   UNL     1     109.271 130.888 140.331  0.00  0.00    +0.000 OA
ATOM     23  O   UNL     1     108.442 130.088 139.150  0.00  0.00    +0.000 OA
ATOM     24  C   UNL     1     110.504 130.563 139.686  0.00  0.00    +0.000 C 
ATOM     25  C   UNL     1     109.680 130.526 139.714  0.00  0.00    +0.000 C 
ATOM     26  C   UNL     1     110.913 130.201 139.069  0.00  0.00    +0.000 C 
ATOM     27  C   UNL     1     109.266 130.126 139.123  0.00  0.00    +0.000 C 
ATOM     28  C   UNL     1     109.675 129.762 138.505  0.00  0.00    +0.000 C 
ATOM     29  C   UNL     1     111.736 130.238 139.042  0.00  0.00    +0.000 C 
BRANCH  24  30
ATOM     30  O   UNL     1     110.918 130.963 140.277  0.00  0.00    +0.000 OA
BRANCH  30  35
ATOM     31  O   UNL     1     111.115 129.763 141.024  0.00  0.00    +0.000 OA
ATOM     32  O   UNL     1     111.197 131.856 141.636  0.00  0.00    +0.000 OA
ATOM     33  O   UNL     1     111.534 131.102 143.063  0.00  0.00    +0.000 OA
ATOM     34  O   UNL     1     111.592 129.454 143.132  0.00  0.00    +0.000 OA
ATOM     35  C   UNL     1     111.087 130.586 140.991  0.00  0.00    +0.000 C 
ATOM     36  C   UNL     1     111.226 131.033 141.670  0.00  0.00    +0.000 C 
ATOM     37  C   UNL     1     111.394 130.655 142.384  0.00  0.00    +0.000 C 
ATOM     38  C   UNL     1     111.423 129.831 142.419  0.00  0.00    +0.000 C 
ATOM     39  C   UNL     1     111.284 129.385 141.739  0.00  0.00    +0.000 C 
ATOM     40  C   UNL     1     111.313 128.561 141.773  0.00  0.00    +0.000 C 
ENDBRANCH  30  35
ENDBRANCH  24  30
ENDBRANCH  20  28
ENDBRANCH   4  20
BRANCH   8  41
ATOM     41  O   UNL     1     111.071 125.271 136.642  0.00  0.00    +0.000 OA
BRANCH  41  50
ATOM     42  O   UNL     1     112.421 125.737 136.601  0.00  0.00    +0.000 OA
ATOM     43  O   UNL     1     113.227 123.449 137.092  0.00  0.00    +0.000 OA
ATOM     44  O   UNL     1     114.308 124.679 136.887  0.00  0.00    +0.000 OA
ATOM     45  O   UNL     1     111.608 123.746 136.969  0.00  0.00    +0.000 OA
ATOM     46  C   UNL     1     112.958 124.212 136.928  0.00  0.00    +0.000 C 
ATOM     47  C   UNL     1     113.499 124.827 136.826  0.00  0.00    +0.000 C 
ATOM     48  C   UNL     1     112.149 124.360 136.867  0.00  0.00    +0.000 C 
ATOM     49  C   UNL     1     113.230 125.590 136.662  0.00  0.00    +0.000 C 
ATOM     50  C   UNL     1     111.880 125.123 136.703  0.00  0.00    +0.000 C 
ATOM     51  C   UNL     1     113.771 126.205 136.559  0.00  0.00    +0.000 C 
ENDBRANCH  41  50
ENDBRANCH   8  41
TORSDOF 7
ENDMDL
MODEL 10
REMARK VINA RESULT:     -10.5      2.197      4.317
REMARK  Name = 14630617
REMARK  7 active torsions:
REMARK  status: ('A' for Active; 'I' for Inactive)
REMARK    1  A    between atoms: O_1  and  C_19
REMARK    2  A    between atoms: O_1  and  C_22
REMARK    3  A    between atoms: O_5  and  C_27
REMARK    4  A    between atoms: O_5  and  C_36
REMARK    5  A    between atoms: O_11  and  C_35
REMARK    6  A    between atoms: O_11  and  C_41
REMARK    7  A    between atoms: C_38  and  C_46
REMARK                            x       y       z     vdW  Elec       q    Type
REMARK                         _______ _______ _______ _____ _____    ______ ____
ROOT
ATOM      1  O   UNL     1     112.676 128.648 136.590  0.00  0.00    +0.000 OA
ATOM      2  O   UNL     1     111.129 128.805 138.516  0.00  0.00    +0.000 OA
ATOM      3  O   UNL     1     110.677 127.451 138.300  0.00  0.00    +0.000 OA
ATOM      4  C   UNL     1     112.117 129.397 137.671  0.00  0.00    +0.000 A 
ATOM      5  C   UNL     1     112.632 129.345 137.029  0.00  0.00    +0.000 A 
ATOM      6  C   UNL     1     111.644 128.753 137.874  0.00  0.00    +0.000 A 
ATOM      7  C   UNL     1     111.687 128.055 137.435  0.00  0.00    +0.000 A 
ATOM      8  C   UNL     1     111.768 126.606 136.535  0.00  0.00    +0.000 A 
ATOM      9  C   UNL     1     112.203 128.003 136.794  0.00  0.00    +0.000 A 
ATOM     10  C   UNL     1     112.257 127.282 136.329  0.00  0.00    +0.000 A 
ATOM     11  C   UNL     1     111.190 127.390 137.657  0.00  0.00    +0.000 A 
ATOM     12  C   UNL     1     111.230 126.661 137.204  0.00  0.00    +0.000 A 
ENDROOT
BRANCH   5  14
ATOM     13  O   UNL     1     114.526 131.922 136.216  0.00  0.00    +0.000 OA
ATOM     14  C   UNL     1     113.105 129.989 136.826  0.00  0.00    +0.000 A 
ATOM     15  C   UNL     1     113.921 129.955 136.944  0.00  0.00    +0.000 A 
ATOM     16  C   UNL     1     112.763 130.668 136.504  0.00  0.00    +0.000 A 
ATOM     17  C   UNL     1     114.394 130.600 136.741  0.00  0.00    +0.000 A 
ATOM     18  C   UNL     1     113.237 131.312 136.301  0.00  0.00    +0.000 A 
ATOM     19  C   UNL     1     114.052 131.278 136.419  0.00  0.00    +0.000 A 
ENDBRANCH   5  14
BRANCH   4  20
ATOM     20  O   UNL     1     112.074 130.094 138.109  0.00  0.00    +0.000 OA
BRANCH  20  28
ATOM     21  O   UNL     1     112.843 129.601 139.208  0.00  0.00    +0.000 OA
ATOM     22  O   UNL     1     111.541 131.022 140.759  0.00  0.00    +0.000 OA
ATOM     23  O   UNL     1     111.205 131.042 139.144  0.00  0.00    +0.000 OA
ATOM     24  C   UNL     1     112.577 130.065 140.532  0.00  0.00    +0.000 C 
ATOM     25  C   UNL     1     111.975 130.549 140.243  0.00  0.00    +0.000 C 
ATOM     26  C   UNL     1     113.011 129.591 140.015  0.00  0.00    +0.000 C 
ATOM     27  C   UNL     1     111.807 130.558 139.435  0.00  0.00    +0.000 C 
ATOM     28  C   UNL     1     112.242 130.084 138.917  0.00  0.00    +0.000 C 
ATOM     29  C   UNL     1     113.613 129.108 140.305  0.00  0.00    +0.000 C 
BRANCH  24  30
ATOM     30  O   UNL     1     112.745 130.055 141.340  0.00  0.00    +0.000 OA
BRANCH  30  35
ATOM     31  O   UNL     1     111.935 128.901 141.568  0.00  0.00    +0.000 OA
ATOM     32  O   UNL     1     112.566 130.494 142.920  0.00  0.00    +0.000 OA
ATOM     33  O   UNL     1     111.666 129.560 143.939  0.00  0.00    +0.000 OA
ATOM     34  O   UNL     1     110.945 128.186 143.377  0.00  0.00    +0.000 OA
ATOM     35  C   UNL     1     112.295 129.588 141.850  0.00  0.00    +0.000 C 
ATOM     36  C   UNL     1     112.205 129.807 142.640  0.00  0.00    +0.000 C 
ATOM     37  C   UNL     1     111.755 129.340 143.149  0.00  0.00    +0.000 C 
ATOM     38  C   UNL     1     111.395 128.653 142.868  0.00  0.00    +0.000 C 
ATOM     39  C   UNL     1     111.484 128.434 142.078  0.00  0.00    +0.000 C 
ATOM     40  C   UNL     1     111.124 127.747 141.797  0.00  0.00    +0.000 C 
ENDBRANCH  30  35
ENDBRANCH  24  30
ENDBRANCH  20  28
ENDBRANCH   4  20
BRANCH   8  41
ATOM     41  O   UNL     1     111.813 125.910 136.094  0.00  0.00    +0.000 OA
BRANCH  41  50
ATOM     42  O   UNL     1     113.023 125.377 136.637  0.00  0.00    +0.000 OA
ATOM     43  O   UNL     1     111.994 123.128 136.721  0.00  0.00    +0.000 OA
ATOM     44  O   UNL     1     113.547 123.346 137.236  0.00  0.00    +0.000 OA
ATOM     45  O   UNL     1     111.127 124.410 136.150  0.00  0.00    +0.000 OA
ATOM     46  C   UNL     1     112.337 123.878 136.693  0.00  0.00    +0.000 C 
ATOM     47  C   UNL     1     113.114 123.987 136.950  0.00  0.00    +0.000 C 
ATOM     48  C   UNL     1     111.904 124.519 136.408  0.00  0.00    +0.000 C 
ATOM     49  C   UNL     1     113.457 124.737 136.922  0.00  0.00    +0.000 C 
ATOM     50  C   UNL     1     112.246 125.269 136.380  0.00  0.00    +0.000 C 
ATOM     51  C   UNL     1     114.233 124.845 137.180  0.00  0.00    +0.000 C 
ENDBRANCH  41  50
ENDBRANCH   8  41
TORSDOF 7
ENDMDL
