MODEL 1
REMARK VINA RESULT:     -10.4      0.000      0.000
REMARK  Name = 74978112
REMARK  13 active torsions:
REMARK  status: ('A' for Active; 'I' for Inactive)
REMARK    1  A    between atoms: O_1  and  C_27
REMARK    2  A    between atoms: O_1  and  C_32
REMARK    3  A    between atoms: O_2  and  C_28
REMARK    4  A    between atoms: O_2  and  C_34
REMARK    5  A    between atoms: O_7  and  C_38
REMARK    6  A    between atoms: O_7  and  C_51
REMARK    7  A    between atoms: O_10  and  C_45
REMARK    8  A    between atoms: O_10  and  C_52
REMARK    9  A    between atoms: C_31  and  C_47
REMARK   10  A    between atoms: C_40  and  C_48
REMARK   11  A    between atoms: C_44  and  C_49
REMARK   12  A    between atoms: C_46  and  C_50
REMARK   13  A    between atoms: C_54  and  C_60
REMARK                            x       y       z     vdW  Elec       q    Type
REMARK                         _______ _______ _______ _____ _____    ______ ____
ROOT
ATOM      1  O   UNL     1     112.809 130.026 141.994  0.00  0.00    +0.000 OA
ATOM      2  O   UNL     1     110.410 130.185 141.407  0.00  0.00    +0.000 OA
ATOM      3  O   UNL     1     110.280 131.414 142.152  0.00  0.00    +0.000 OA
ATOM      4  C   UNL     1     111.660 129.497 141.328  0.00  0.00    +0.000 A 
ATOM      5  C   UNL     1     112.270 131.922 143.047  0.00  0.00    +0.000 A 
ATOM      6  C   UNL     1     111.210 130.132 141.603  0.00  0.00    +0.000 A 
ATOM      7  C   UNL     1     112.460 129.445 141.524  0.00  0.00    +0.000 A 
ATOM      8  C   UNL     1     111.559 130.713 142.073  0.00  0.00    +0.000 A 
ATOM      9  C   UNL     1     112.359 130.659 142.268  0.00  0.00    +0.000 A 
ATOM     10  C   UNL     1     112.734 131.258 142.757  0.00  0.00    +0.000 A 
ATOM     11  C   UNL     1     111.437 131.977 142.843  0.00  0.00    +0.000 A 
ATOM     12  C   UNL     1     111.079 131.369 142.353  0.00  0.00    +0.000 A 
ENDROOT
BRANCH   7  14
ATOM     13  O   UNL     1     114.262 126.908 140.424  0.00  0.00    +0.000 OA
ATOM     14  C   UNL     1     112.911 128.810 141.249  0.00  0.00    +0.000 A 
ATOM     15  C   UNL     1     112.870 128.079 141.630  0.00  0.00    +0.000 A 
ATOM     16  C   UNL     1     113.401 128.907 140.593  0.00  0.00    +0.000 A 
ATOM     17  C   UNL     1     113.320 127.446 141.355  0.00  0.00    +0.000 A 
ATOM     18  C   UNL     1     113.852 128.272 140.318  0.00  0.00    +0.000 A 
ATOM     19  C   UNL     1     113.811 127.541 140.699  0.00  0.00    +0.000 A 
ENDBRANCH   7  14
BRANCH   4  20
ATOM     20  O   UNL     1     111.311 128.916 140.858  0.00  0.00    +0.000 OA
BRANCH  20  27
ATOM     21  O   UNL     1     111.217 129.711 139.674  0.00  0.00    +0.000 OA
ATOM     22  O   UNL     1     109.077 128.606 139.102  0.00  0.00    +0.000 OA
ATOM     23  O   UNL     1     109.696 129.769 138.109  0.00  0.00    +0.000 OA
ATOM     24  C   UNL     1     110.195 128.762 139.980  0.00  0.00    +0.000 C 
ATOM     25  C   UNL     1     109.791 128.975 139.293  0.00  0.00    +0.000 C 
ATOM     26  C   UNL     1     110.101 129.557 138.796  0.00  0.00    +0.000 C 
ATOM     27  C   UNL     1     110.908 129.130 140.170  0.00  0.00    +0.000 C 
ATOM     28  C   UNL     1     110.814 129.925 138.986  0.00  0.00    +0.000 C 
BRANCH  28  30
ATOM     29  O   UNL     1     111.876 130.415 138.166  0.00  0.00    +0.000 OA
ATOM     30  C   UNL     1     111.123 130.506 138.490  0.00  0.00    +0.000 C 
ENDBRANCH  28  30
BRANCH  24  31
ATOM     31  O   UNL     1     109.885 128.180 140.477  0.00  0.00    +0.000 OA
BRANCH  31  36
ATOM     32  O   UNL     1     110.340 127.168 139.576  0.00  0.00    +0.000 OA
ATOM     33  O   UNL     1     109.307 127.016 141.493  0.00  0.00    +0.000 OA
ATOM     34  O   UNL     1     109.473 125.421 141.101  0.00  0.00    +0.000 OA
ATOM     35  O   UNL     1     110.217 124.992 139.692  0.00  0.00    +0.000 OA
ATOM     36  C   UNL     1     109.968 127.383 140.281  0.00  0.00    +0.000 C 
ATOM     37  C   UNL     1     109.679 126.801 140.789  0.00  0.00    +0.000 C 
ATOM     38  C   UNL     1     109.762 126.004 140.593  0.00  0.00    +0.000 C 
ATOM     39  C   UNL     1     110.134 125.789 139.888  0.00  0.00    +0.000 C 
ATOM     40  C   UNL     1     110.423 126.371 139.380  0.00  0.00    +0.000 C 
BRANCH  40  42
ATOM     41  O   UNL     1     111.615 126.213 138.608  0.00  0.00    +0.000 OA
ATOM     42  C   UNL     1     110.794 126.156 138.676  0.00  0.00    +0.000 C 
ENDBRANCH  40  42
ENDBRANCH  31  36
ENDBRANCH  24  31
ENDBRANCH  20  27
ENDBRANCH   4  20
BRANCH   5  43
ATOM     43  O   UNL     1     112.622 132.501 143.516  0.00  0.00    +0.000 OA
BRANCH  43  51
ATOM     44  O   UNL     1     112.266 132.006 144.809  0.00  0.00    +0.000 OA
ATOM     45  O   UNL     1     111.674 134.300 145.524  0.00  0.00    +0.000 OA
ATOM     46  O   UNL     1     112.227 134.031 143.993  0.00  0.00    +0.000 OA
ATOM     47  C   UNL     1     111.792 132.905 145.812  0.00  0.00    +0.000 C 
ATOM     48  C   UNL     1     111.871 133.535 145.285  0.00  0.00    +0.000 C 
ATOM     49  C   UNL     1     111.989 132.141 145.573  0.00  0.00    +0.000 C 
ATOM     50  C   UNL     1     112.148 133.401 144.520  0.00  0.00    +0.000 C 
ATOM     51  C   UNL     1     112.345 132.636 144.282  0.00  0.00    +0.000 C 
BRANCH  49  53
ATOM     52  O   UNL     1     112.463 130.901 146.102  0.00  0.00    +0.000 OA
ATOM     53  C   UNL     1     111.910 131.511 146.101  0.00  0.00    +0.000 C 
ENDBRANCH  49  53
BRANCH  47  54
ATOM     54  O   UNL     1     111.515 133.041 146.577  0.00  0.00    +0.000 OA
BRANCH  54  59
ATOM     55  O   UNL     1     110.165 132.831 146.161  0.00  0.00    +0.000 OA
ATOM     56  O   UNL     1     110.977 133.750 147.967  0.00  0.00    +0.000 OA
ATOM     57  O   UNL     1     109.357 133.895 148.246  0.00  0.00    +0.000 OA
ATOM     58  O   UNL     1     108.275 133.331 147.135  0.00  0.00    +0.000 OA
ATOM     59  C   UNL     1     110.705 133.113 146.717  0.00  0.00    +0.000 C 
ATOM     60  C   UNL     1     110.436 133.468 147.412  0.00  0.00    +0.000 C 
ATOM     61  C   UNL     1     109.626 133.540 147.551  0.00  0.00    +0.000 C 
ATOM     62  C   UNL     1     109.085 133.259 146.996  0.00  0.00    +0.000 C 
ATOM     63  C   UNL     1     109.355 132.904 146.301  0.00  0.00    +0.000 C 
BRANCH  63  65
ATOM     64  O   UNL     1     108.713 133.018 145.029  0.00  0.00    +0.000 OA
ATOM     65  C   UNL     1     108.814 132.622 145.746  0.00  0.00    +0.000 C 
ENDBRANCH  63  65
ENDBRANCH  54  59
ENDBRANCH  47  54
ENDBRANCH  43  51
ENDBRANCH   5  43
TORSDOF 13
ENDMDL
MODEL 2
REMARK VINA RESULT:     -10.2      4.833      7.433
REMARK  Name = 74978112
REMARK  13 active torsions:
REMARK  status: ('A' for Active; 'I' for Inactive)
REMARK    1  A    between atoms: O_1  and  C_27
REMARK    2  A    between atoms: O_1  and  C_32
REMARK    3  A    between atoms: O_2  and  C_28
REMARK    4  A    between atoms: O_2  and  C_34
REMARK    5  A    between atoms: O_7  and  C_38
REMARK    6  A    between atoms: O_7  and  C_51
REMARK    7  A    between atoms: O_10  and  C_45
REMARK    8  A    between atoms: O_10  and  C_52
REMARK    9  A    between atoms: C_31  and  C_47
REMARK   10  A    between atoms: C_40  and  C_48
REMARK   11  A    between atoms: C_44  and  C_49
REMARK   12  A    between atoms: C_46  and  C_50
REMARK   13  A    between atoms: C_54  and  C_60
REMARK                            x       y       z     vdW  Elec       q    Type
REMARK                         _______ _______ _______ _____ _____    ______ ____
ROOT
ATOM      1  O   UNL     1     110.402 126.750 140.577  0.00  0.00    +0.000 OA
ATOM      2  O   UNL     1     109.395 128.766 139.554  0.00  0.00    +0.000 OA
ATOM      3  O   UNL     1     108.223 128.637 140.386  0.00  0.00    +0.000 OA
ATOM      4  C   UNL     1     110.474 127.833 139.648  0.00  0.00    +0.000 A 
ATOM      5  C   UNL     1     108.472 126.839 141.699  0.00  0.00    +0.000 A 
ATOM      6  C   UNL     1     109.730 128.094 139.895  0.00  0.00    +0.000 A 
ATOM      7  C   UNL     1     110.809 127.161 139.989  0.00  0.00    +0.000 A 
ATOM      8  C   UNL     1     109.324 127.682 140.483  0.00  0.00    +0.000 A 
ATOM      9  C   UNL     1     109.660 127.010 140.824  0.00  0.00    +0.000 A 
ATOM     10  C   UNL     1     109.247 126.573 141.437  0.00  0.00    +0.000 A 
ATOM     11  C   UNL     1     108.123 127.540 141.344  0.00  0.00    +0.000 A 
ATOM     12  C   UNL     1     108.551 127.964 140.732  0.00  0.00    +0.000 A 
ENDROOT
BRANCH   7  14
ATOM     13  O   UNL     1     113.780 126.120 138.999  0.00  0.00    +0.000 OA
ATOM     14  C   UNL     1     111.552 126.901 139.741  0.00  0.00    +0.000 A 
ATOM     15  C   UNL     1     111.613 126.304 139.174  0.00  0.00    +0.000 A 
ATOM     16  C   UNL     1     112.234 127.237 140.061  0.00  0.00    +0.000 A 
ATOM     17  C   UNL     1     112.355 126.045 138.927  0.00  0.00    +0.000 A 
ATOM     18  C   UNL     1     112.977 126.976 139.813  0.00  0.00    +0.000 A 
ATOM     19  C   UNL     1     113.038 126.380 139.246  0.00  0.00    +0.000 A 
ENDBRANCH   7  14
BRANCH   4  20
ATOM     20  O   UNL     1     110.880 128.245 139.059  0.00  0.00    +0.000 OA
BRANCH  20  27
ATOM     21  O   UNL     1     110.065 127.799 137.974  0.00  0.00    +0.000 OA
ATOM     22  O   UNL     1     110.346 129.993 136.862  0.00  0.00    +0.000 OA
ATOM     23  O   UNL     1     109.437 128.816 136.147  0.00  0.00    +0.000 OA
ATOM     24  C   UNL     1     110.613 129.118 137.961  0.00  0.00    +0.000 C 
ATOM     25  C   UNL     1     110.253 129.262 137.233  0.00  0.00    +0.000 C 
ATOM     26  C   UNL     1     109.797 128.673 136.875  0.00  0.00    +0.000 C 
ATOM     27  C   UNL     1     110.519 128.387 138.331  0.00  0.00    +0.000 C 
ATOM     28  C   UNL     1     109.703 127.942 137.246  0.00  0.00    +0.000 C 
BRANCH  28  30
ATOM     29  O   UNL     1     109.593 126.632 136.685  0.00  0.00    +0.000 OA
ATOM     30  C   UNL     1     109.249 127.354 136.888  0.00  0.00    +0.000 C 
ENDBRANCH  28  30
BRANCH  24  31
ATOM     31  O   UNL     1     111.068 129.707 138.318  0.00  0.00    +0.000 OA
BRANCH  31  36
ATOM     32  O   UNL     1     112.146 129.416 137.427  0.00  0.00    +0.000 OA
ATOM     33  O   UNL     1     112.005 130.827 139.087  0.00  0.00    +0.000 OA
ATOM     34  O   UNL     1     113.552 131.096 138.580  0.00  0.00    +0.000 OA
ATOM     35  O   UNL     1     114.162 130.246 137.305  0.00  0.00    +0.000 OA
ATOM     36  C   UNL     1     111.842 129.842 138.065  0.00  0.00    +0.000 C 
ATOM     37  C   UNL     1     112.310 130.401 138.449  0.00  0.00    +0.000 C 
ATOM     38  C   UNL     1     113.083 130.536 138.196  0.00  0.00    +0.000 C 
ATOM     39  C   UNL     1     113.389 130.111 137.558  0.00  0.00    +0.000 C 
ATOM     40  C   UNL     1     112.920 129.551 137.173  0.00  0.00    +0.000 C 
BRANCH  40  42
ATOM     41  O   UNL     1     113.422 128.329 136.628  0.00  0.00    +0.000 OA
ATOM     42  C   UNL     1     113.225 129.126 136.536  0.00  0.00    +0.000 C 
ENDBRANCH  40  42
ENDBRANCH  31  36
ENDBRANCH  24  31
ENDBRANCH  20  27
ENDBRANCH   4  20
BRANCH   5  43
ATOM     43  O   UNL     1     108.068 126.426 142.288  0.00  0.00    +0.000 OA
BRANCH  43  51
ATOM     44  O   UNL     1     107.887 125.158 141.655  0.00  0.00    +0.000 OA
ATOM     45  O   UNL     1     105.508 125.158 142.339  0.00  0.00    +0.000 OA
ATOM     46  O   UNL     1     106.482 126.426 142.744  0.00  0.00    +0.000 OA
ATOM     47  C   UNL     1     106.607 124.524 141.681  0.00  0.00    +0.000 C 
ATOM     48  C   UNL     1     106.301 125.158 142.111  0.00  0.00    +0.000 C 
ATOM     49  C   UNL     1     107.400 124.524 141.453  0.00  0.00    +0.000 C 
ATOM     50  C   UNL     1     106.788 125.792 142.314  0.00  0.00    +0.000 C 
ATOM     51  C   UNL     1     107.581 125.792 142.085  0.00  0.00    +0.000 C 
BRANCH  49  53
ATOM     52  O   UNL     1     108.444 123.580 141.211  0.00  0.00    +0.000 OA
ATOM     53  C   UNL     1     107.704 123.889 141.023  0.00  0.00    +0.000 C 
ENDBRANCH  49  53
BRANCH  47  54
ATOM     54  O   UNL     1     106.119 123.890 141.479  0.00  0.00    +0.000 OA
BRANCH  54  59
ATOM     55  O   UNL     1     105.689 124.570 140.299  0.00  0.00    +0.000 OA
ATOM     56  O   UNL     1     104.907 122.787 141.285  0.00  0.00    +0.000 OA
ATOM     57  O   UNL     1     103.871 122.915 140.007  0.00  0.00    +0.000 OA
ATOM     58  O   UNL     1     104.046 124.147 138.924  0.00  0.00    +0.000 OA
ATOM     59  C   UNL     1     105.601 123.954 140.840  0.00  0.00    +0.000 C 
ATOM     60  C   UNL     1     104.995 123.402 140.743  0.00  0.00    +0.000 C 
ATOM     61  C   UNL     1     104.477 123.467 140.104  0.00  0.00    +0.000 C 
ATOM     62  C   UNL     1     104.564 124.083 139.562  0.00  0.00    +0.000 C 
ATOM     63  C   UNL     1     105.171 124.634 139.660  0.00  0.00    +0.000 C 
BRANCH  63  65
ATOM     64  O   UNL     1     105.902 125.257 138.602  0.00  0.00    +0.000 OA
ATOM     65  C   UNL     1     105.259 125.250 139.118  0.00  0.00    +0.000 C 
ENDBRANCH  63  65
ENDBRANCH  54  59
ENDBRANCH  47  54
ENDBRANCH  43  51
ENDBRANCH   5  43
TORSDOF 13
ENDMDL
MODEL 3
REMARK VINA RESULT:     -10.1      2.461      3.977
REMARK  Name = 74978112
REMARK  13 active torsions:
REMARK  status: ('A' for Active; 'I' for Inactive)
REMARK    1  A    between atoms: O_1  and  C_27
REMARK    2  A    between atoms: O_1  and  C_32
REMARK    3  A    between atoms: O_2  and  C_28
REMARK    4  A    between atoms: O_2  and  C_34
REMARK    5  A    between atoms: O_7  and  C_38
REMARK    6  A    between atoms: O_7  and  C_51
REMARK    7  A    between atoms: O_10  and  C_45
REMARK    8  A    between atoms: O_10  and  C_52
REMARK    9  A    between atoms: C_31  and  C_47
REMARK   10  A    between atoms: C_40  and  C_48
REMARK   11  A    between atoms: C_44  and  C_49
REMARK   12  A    between atoms: C_46  and  C_50
REMARK   13  A    between atoms: C_54  and  C_60
REMARK                            x       y       z     vdW  Elec       q    Type
REMARK                         _______ _______ _______ _____ _____    ______ ____
ROOT
ATOM      1  O   UNL     1     112.454 127.832 139.381  0.00  0.00    +0.000 OA
ATOM      2  O   UNL     1     111.629 129.578 137.832  0.00  0.00    +0.000 OA
ATOM      3  O   UNL     1     112.018 130.618 138.753  0.00  0.00    +0.000 OA
ATOM      4  C   UNL     1     111.844 128.199 138.141  0.00  0.00    +0.000 A 
ATOM      5  C   UNL     1     112.928 129.667 140.565  0.00  0.00    +0.000 A 
ATOM      6  C   UNL     1     111.904 128.996 138.349  0.00  0.00    +0.000 A 
ATOM      7  C   UNL     1     112.119 127.618 138.658  0.00  0.00    +0.000 A 
ATOM      8  C   UNL     1     112.239 129.211 139.072  0.00  0.00    +0.000 A 
ATOM      9  C   UNL     1     112.513 128.628 139.588  0.00  0.00    +0.000 A 
ATOM     10  C   UNL     1     112.863 128.839 140.343  0.00  0.00    +0.000 A 
ATOM     11  C   UNL     1     112.642 130.273 140.027  0.00  0.00    +0.000 A 
ATOM     12  C   UNL     1     112.295 130.044 139.276  0.00  0.00    +0.000 A 
ENDROOT
BRANCH   7  14
ATOM     13  O   UNL     1     111.881 124.432 137.830  0.00  0.00    +0.000 OA
ATOM     14  C   UNL     1     112.060 126.821 138.451  0.00  0.00    +0.000 A 
ATOM     15  C   UNL     1     111.353 126.414 138.575  0.00  0.00    +0.000 A 
ATOM     16  C   UNL     1     112.707 126.432 138.119  0.00  0.00    +0.000 A 
ATOM     17  C   UNL     1     111.294 125.618 138.368  0.00  0.00    +0.000 A 
ATOM     18  C   UNL     1     112.648 125.635 137.912  0.00  0.00    +0.000 A 
ATOM     19  C   UNL     1     111.941 125.228 138.037  0.00  0.00    +0.000 A 
ENDBRANCH   7  14
BRANCH   4  20
ATOM     20  O   UNL     1     111.510 127.985 137.418  0.00  0.00    +0.000 OA
BRANCH  20  27
ATOM     21  O   UNL     1     112.621 128.371 136.606  0.00  0.00    +0.000 OA
ATOM     22  O   UNL     1     111.064 129.120 134.834  0.00  0.00    +0.000 OA
ATOM     23  O   UNL     1     112.693 129.257 134.612  0.00  0.00    +0.000 OA
ATOM     24  C   UNL     1     111.288 128.553 136.126  0.00  0.00    +0.000 C 
ATOM     25  C   UNL     1     111.583 128.871 135.425  0.00  0.00    +0.000 C 
ATOM     26  C   UNL     1     112.398 128.939 135.314  0.00  0.00    +0.000 C 
ATOM     27  C   UNL     1     111.807 128.303 136.717  0.00  0.00    +0.000 C 
ATOM     28  C   UNL     1     112.917 128.689 135.905  0.00  0.00    +0.000 C 
BRANCH  28  30
ATOM     29  O   UNL     1     114.206 128.082 135.795  0.00  0.00    +0.000 OA
ATOM     30  C   UNL     1     113.731 128.757 135.794  0.00  0.00    +0.000 C 
ENDBRANCH  28  30
BRANCH  24  31
ATOM     31  O   UNL     1     110.472 128.485 136.237  0.00  0.00    +0.000 OA
BRANCH  31  36
ATOM     32  O   UNL     1     110.457 127.310 135.424  0.00  0.00    +0.000 OA
ATOM     33  O   UNL     1     108.870 128.274 136.572  0.00  0.00    +0.000 OA
ATOM     34  O   UNL     1     108.054 126.994 135.927  0.00  0.00    +0.000 OA
ATOM     35  O   UNL     1     108.839 125.924 134.947  0.00  0.00    +0.000 OA
ATOM     36  C   UNL     1     110.064 127.844 135.915  0.00  0.00    +0.000 C 
ATOM     37  C   UNL     1     109.264 127.739 136.082  0.00  0.00    +0.000 C 
ATOM     38  C   UNL     1     108.855 127.099 135.759  0.00  0.00    +0.000 C 
ATOM     39  C   UNL     1     109.248 126.564 135.269  0.00  0.00    +0.000 C 
ATOM     40  C   UNL     1     110.049 126.669 135.102  0.00  0.00    +0.000 C 
BRANCH  40  42
ATOM     41  O   UNL     1     110.941 125.564 134.940  0.00  0.00    +0.000 OA
ATOM     42  C   UNL     1     110.441 126.134 134.612  0.00  0.00    +0.000 C 
ENDBRANCH  40  42
ENDBRANCH  31  36
ENDBRANCH  24  31
ENDBRANCH  20  27
ENDBRANCH   4  20
BRANCH   5  43
ATOM     43  O   UNL     1     113.263 129.879 141.289  0.00  0.00    +0.000 OA
BRANCH  43  51
ATOM     44  O   UNL     1     112.358 129.342 142.255  0.00  0.00    +0.000 OA
ATOM     45  O   UNL     1     112.190 131.564 143.331  0.00  0.00    +0.000 OA
ATOM     46  O   UNL     1     113.152 131.361 142.006  0.00  0.00    +0.000 OA
ATOM     47  C   UNL     1     111.822 130.184 143.276  0.00  0.00    +0.000 C 
ATOM     48  C   UNL     1     112.247 130.823 142.972  0.00  0.00    +0.000 C 
ATOM     49  C   UNL     1     111.878 129.444 142.917  0.00  0.00    +0.000 C 
ATOM     50  C   UNL     1     112.727 130.722 142.310  0.00  0.00    +0.000 C 
ATOM     51  C   UNL     1     112.783 129.980 141.952  0.00  0.00    +0.000 C 
BRANCH  49  53
ATOM     52  O   UNL     1     111.779 128.049 143.211  0.00  0.00    +0.000 OA
ATOM     53  C   UNL     1     111.453 128.805 143.222  0.00  0.00    +0.000 C 
ENDBRANCH  49  53
BRANCH  47  54
ATOM     54  O   UNL     1     111.341 130.287 143.939  0.00  0.00    +0.000 OA
BRANCH  54  59
ATOM     55  O   UNL     1     110.190 130.507 143.124  0.00  0.00    +0.000 OA
ATOM     56  O   UNL     1     110.567 130.980 145.221  0.00  0.00    +0.000 OA
ATOM     57  O   UNL     1     109.027 131.547 145.046  0.00  0.00    +0.000 OA
ATOM     58  O   UNL     1     108.262 131.421 143.589  0.00  0.00    +0.000 OA
ATOM     59  C   UNL     1     110.571 130.571 143.852  0.00  0.00    +0.000 C 
ATOM     60  C   UNL     1     110.184 130.917 144.493  0.00  0.00    +0.000 C 
ATOM     61  C   UNL     1     109.414 131.200 144.405  0.00  0.00    +0.000 C 
ATOM     62  C   UNL     1     109.032 131.137 143.677  0.00  0.00    +0.000 C 
ATOM     63  C   UNL     1     109.420 130.790 143.036  0.00  0.00    +0.000 C 
BRANCH  63  65
ATOM     64  O   UNL     1     109.274 131.201 141.675  0.00  0.00    +0.000 OA
ATOM     65  C   UNL     1     109.038 130.727 142.308  0.00  0.00    +0.000 C 
ENDBRANCH  63  65
ENDBRANCH  54  59
ENDBRANCH  47  54
ENDBRANCH  43  51
ENDBRANCH   5  43
TORSDOF 13
ENDMDL
MODEL 4
REMARK VINA RESULT:     -10.1      1.894      3.117
REMARK  Name = 74978112
REMARK  13 active torsions:
REMARK  status: ('A' for Active; 'I' for Inactive)
REMARK    1  A    between atoms: O_1  and  C_27
REMARK    2  A    between atoms: O_1  and  C_32
REMARK    3  A    between atoms: O_2  and  C_28
REMARK    4  A    between atoms: O_2  and  C_34
REMARK    5  A    between atoms: O_7  and  C_38
REMARK    6  A    between atoms: O_7  and  C_51
REMARK    7  A    between atoms: O_10  and  C_45
REMARK    8  A    between atoms: O_10  and  C_52
REMARK    9  A    between atoms: C_31  and  C_47
REMARK   10  A    between atoms: C_40  and  C_48
REMARK   11  A    between atoms: C_44  and  C_49
REMARK   12  A    between atoms: C_46  and  C_50
REMARK   13  A    between atoms: C_54  and  C_60
REMARK                            x       y       z     vdW  Elec       q    Type
REMARK                         _______ _______ _______ _____ _____    ______ ____
ROOT
ATOM      1  O   UNL     1     112.094 129.108 140.164  0.00  0.00    +0.000 OA
ATOM      2  O   UNL     1     109.641 129.331 139.921  0.00  0.00    +0.000 OA
ATOM      3  O   UNL     1     109.468 129.300 141.353  0.00  0.00    +0.000 OA
ATOM      4  C   UNL     1     110.939 129.236 139.332  0.00  0.00    +0.000 A 
ATOM      5  C   UNL     1     111.481 129.093 142.313  0.00  0.00    +0.000 A 
ATOM      6  C   UNL     1     110.458 129.256 140.002  0.00  0.00    +0.000 A 
ATOM      7  C   UNL     1     111.757 129.162 139.413  0.00  0.00    +0.000 A 
ATOM      8  C   UNL     1     110.796 129.203 140.754  0.00  0.00    +0.000 A 
ATOM      9  C   UNL     1     111.613 129.129 140.834  0.00  0.00    +0.000 A 
ATOM     10  C   UNL     1     111.976 129.073 141.610  0.00  0.00    +0.000 A 
ATOM     11  C   UNL     1     110.630 129.171 142.228  0.00  0.00    +0.000 A 
ATOM     12  C   UNL     1     110.284 129.226 141.444  0.00  0.00    +0.000 A 
ENDROOT
BRANCH   7  14
ATOM     13  O   UNL     1     113.679 129.080 136.732  0.00  0.00    +0.000 OA
ATOM     14  C   UNL     1     112.238 129.141 138.742  0.00  0.00    +0.000 A 
ATOM     15  C   UNL     1     112.336 128.435 138.327  0.00  0.00    +0.000 A 
ATOM     16  C   UNL     1     112.619 129.827 138.488  0.00  0.00    +0.000 A 
ATOM     17  C   UNL     1     112.816 128.415 137.657  0.00  0.00    +0.000 A 
ATOM     18  C   UNL     1     113.100 129.806 137.817  0.00  0.00    +0.000 A 
ATOM     19  C   UNL     1     113.199 129.100 137.401  0.00  0.00    +0.000 A 
ENDBRANCH   7  14
BRANCH   4  20
ATOM     20  O   UNL     1     110.602 129.289 138.580  0.00  0.00    +0.000 OA
BRANCH  20  27
ATOM     21  O   UNL     1     110.318 130.688 138.639  0.00  0.00    +0.000 OA
ATOM     22  O   UNL     1     108.251 130.324 137.328  0.00  0.00    +0.000 OA
ATOM     23  O   UNL     1     108.656 131.845 137.824  0.00  0.00    +0.000 OA
ATOM     24  C   UNL     1     109.427 129.807 137.955  0.00  0.00    +0.000 C 
ATOM     25  C   UNL     1     108.940 130.445 137.765  0.00  0.00    +0.000 C 
ATOM     26  C   UNL     1     109.143 131.206 138.013  0.00  0.00    +0.000 C 
ATOM     27  C   UNL     1     110.116 129.929 138.392  0.00  0.00    +0.000 C 
ATOM     28  C   UNL     1     109.832 131.328 138.450  0.00  0.00    +0.000 C 
BRANCH  28  30
ATOM     29  O   UNL     1     110.703 132.459 138.388  0.00  0.00    +0.000 OA
ATOM     30  C   UNL     1     110.034 132.088 138.698  0.00  0.00    +0.000 C 
ENDBRANCH  28  30
BRANCH  24  31
ATOM     31  O   UNL     1     109.224 129.046 137.707  0.00  0.00    +0.000 OA
BRANCH  31  36
ATOM     32  O   UNL     1     109.685 129.350 136.389  0.00  0.00    +0.000 OA
ATOM     33  O   UNL     1     108.940 127.487 137.248  0.00  0.00    +0.000 OA
ATOM     34  O   UNL     1     109.259 127.010 135.701  0.00  0.00    +0.000 OA
ATOM     35  O   UNL     1     109.861 128.094 134.612  0.00  0.00    +0.000 OA
ATOM     36  C   UNL     1     109.383 128.808 136.933  0.00  0.00    +0.000 C 
ATOM     37  C   UNL     1     109.241 128.029 136.704  0.00  0.00    +0.000 C 
ATOM     38  C   UNL     1     109.401 127.791 135.931  0.00  0.00    +0.000 C 
ATOM     39  C   UNL     1     109.702 128.332 135.386  0.00  0.00    +0.000 C 
ATOM     40  C   UNL     1     109.844 129.112 135.615  0.00  0.00    +0.000 C 
BRANCH  40  42
ATOM     41  O   UNL     1     110.933 129.896 135.123  0.00  0.00    +0.000 OA
ATOM     42  C   UNL     1     110.145 129.653 135.070  0.00  0.00    +0.000 C 
ENDBRANCH  40  42
ENDBRANCH  31  36
ENDBRANCH  24  31
ENDBRANCH  20  27
ENDBRANCH   4  20
BRANCH   5  43
ATOM     43  O   UNL     1     111.821 129.040 143.063  0.00  0.00    +0.000 OA
BRANCH  43  51
ATOM     44  O   UNL     1     111.965 130.450 143.246  0.00  0.00    +0.000 OA
ATOM     45  O   UNL     1     111.587 130.171 145.676  0.00  0.00    +0.000 OA
ATOM     46  O   UNL     1     111.569 128.853 144.683  0.00  0.00    +0.000 OA
ATOM     47  C   UNL     1     111.848 131.015 144.553  0.00  0.00    +0.000 C 
ATOM     48  C   UNL     1     111.713 130.263 144.866  0.00  0.00    +0.000 C 
ATOM     49  C   UNL     1     111.974 131.107 143.743  0.00  0.00    +0.000 C 
ATOM     50  C   UNL     1     111.704 129.605 144.370  0.00  0.00    +0.000 C 
ATOM     51  C   UNL     1     111.830 129.698 143.560  0.00  0.00    +0.000 C 
BRANCH  49  53
ATOM     52  O   UNL     1     112.646 131.960 142.814  0.00  0.00    +0.000 OA
ATOM     53  C   UNL     1     112.108 131.859 143.431  0.00  0.00    +0.000 C 
ENDBRANCH  49  53
BRANCH  47  54
ATOM     54  O   UNL     1     111.857 131.673 145.051  0.00  0.00    +0.000 OA
BRANCH  54  59
ATOM     55  O   UNL     1     110.432 131.745 144.983  0.00  0.00    +0.000 OA
ATOM     56  O   UNL     1     111.872 132.948 146.098  0.00  0.00    +0.000 OA
ATOM     57  O   UNL     1     110.454 133.658 146.554  0.00  0.00    +0.000 OA
ATOM     58  O   UNL     1     109.021 133.094 145.962  0.00  0.00    +0.000 OA
ATOM     59  C   UNL     1     111.148 132.028 145.279  0.00  0.00    +0.000 C 
ATOM     60  C   UNL     1     111.155 132.666 145.802  0.00  0.00    +0.000 C 
ATOM     61  C   UNL     1     110.446 133.021 146.030  0.00  0.00    +0.000 C 
ATOM     62  C   UNL     1     109.730 132.739 145.734  0.00  0.00    +0.000 C 
ATOM     63  C   UNL     1     109.723 132.101 145.211  0.00  0.00    +0.000 C 
BRANCH  63  65
ATOM     64  O   UNL     1     108.813 131.934 144.121  0.00  0.00    +0.000 OA
ATOM     65  C   UNL     1     109.006 131.818 144.915  0.00  0.00    +0.000 C 
ENDBRANCH  63  65
ENDBRANCH  54  59
ENDBRANCH  47  54
ENDBRANCH  43  51
ENDBRANCH   5  43
TORSDOF 13
ENDMDL
MODEL 5
REMARK VINA RESULT:     -10.1      5.374      7.896
REMARK  Name = 74978112
REMARK  13 active torsions:
REMARK  status: ('A' for Active; 'I' for Inactive)
REMARK    1  A    between atoms: O_1  and  C_27
REMARK    2  A    between atoms: O_1  and  C_32
REMARK    3  A    between atoms: O_2  and  C_28
REMARK    4  A    between atoms: O_2  and  C_34
REMARK    5  A    between atoms: O_7  and  C_38
REMARK    6  A    between atoms: O_7  and  C_51
REMARK    7  A    between atoms: O_10  and  C_45
REMARK    8  A    between atoms: O_10  and  C_52
REMARK    9  A    between atoms: C_31  and  C_47
REMARK   10  A    between atoms: C_40  and  C_48
REMARK   11  A    between atoms: C_44  and  C_49
REMARK   12  A    between atoms: C_46  and  C_50
REMARK   13  A    between atoms: C_54  and  C_60
REMARK                            x       y       z     vdW  Elec       q    Type
REMARK                         _______ _______ _______ _____ _____    ______ ____
ROOT
ATOM      1  O   UNL     1     109.155 127.467 139.253  0.00  0.00    +0.000 OA
ATOM      2  O   UNL     1     111.442 126.825 139.947  0.00  0.00    +0.000 OA
ATOM      3  O   UNL     1     110.954 126.351 141.219  0.00  0.00    +0.000 OA
ATOM      4  C   UNL     1     110.554 127.377 138.973  0.00  0.00    +0.000 A 
ATOM      5  C   UNL     1     108.736 126.654 141.291  0.00  0.00    +0.000 A 
ATOM      6  C   UNL     1     110.680 127.039 139.716  0.00  0.00    +0.000 A 
ATOM      7  C   UNL     1     109.791 127.591 138.742  0.00  0.00    +0.000 A 
ATOM      8  C   UNL     1     110.044 126.915 140.226  0.00  0.00    +0.000 A 
ATOM      9  C   UNL     1     109.282 127.130 139.994  0.00  0.00    +0.000 A 
ATOM     10  C   UNL     1     108.611 127.005 140.517  0.00  0.00    +0.000 A 
ATOM     11  C   UNL     1     109.530 126.431 141.532  0.00  0.00    +0.000 A 
ATOM     12  C   UNL     1     110.188 126.562 140.996  0.00  0.00    +0.000 A 
ENDROOT
BRANCH   7  14
ATOM     13  O   UNL     1     109.287 128.943 135.774  0.00  0.00    +0.000 OA
ATOM     14  C   UNL     1     109.665 127.930 138.000  0.00  0.00    +0.000 A 
ATOM     15  C   UNL     1     109.767 128.741 137.893  0.00  0.00    +0.000 A 
ATOM     16  C   UNL     1     109.437 127.455 137.365  0.00  0.00    +0.000 A 
ATOM     17  C   UNL     1     109.641 129.079 137.152  0.00  0.00    +0.000 A 
ATOM     18  C   UNL     1     109.311 127.794 136.622  0.00  0.00    +0.000 A 
ATOM     19  C   UNL     1     109.413 128.605 136.516  0.00  0.00    +0.000 A 
ENDBRANCH   7  14
BRANCH   4  20
ATOM     20  O   UNL     1     111.190 127.501 138.463  0.00  0.00    +0.000 OA
BRANCH  20  27
ATOM     21  O   UNL     1     111.369 126.135 138.086  0.00  0.00    +0.000 OA
ATOM     22  O   UNL     1     113.820 126.472 138.026  0.00  0.00    +0.000 OA
ATOM     23  O   UNL     1     113.182 124.993 137.670  0.00  0.00    +0.000 OA
ATOM     24  C   UNL     1     112.505 126.986 138.244  0.00  0.00    +0.000 C 
ATOM     25  C   UNL     1     113.003 126.359 138.046  0.00  0.00    +0.000 C 
ATOM     26  C   UNL     1     112.684 125.619 137.868  0.00  0.00    +0.000 C 
ATOM     27  C   UNL     1     111.688 126.874 138.264  0.00  0.00    +0.000 C 
ATOM     28  C   UNL     1     111.866 125.507 137.888  0.00  0.00    +0.000 C 
BRANCH  28  30
ATOM     29  O   UNL     1     111.098 124.665 137.026  0.00  0.00    +0.000 OA
ATOM     30  C   UNL     1     111.548 124.768 137.710  0.00  0.00    +0.000 C 
ENDBRANCH  28  30
BRANCH  24  31
ATOM     31  O   UNL     1     112.824 127.726 138.423  0.00  0.00    +0.000 OA
BRANCH  31  36
ATOM     32  O   UNL     1     112.985 127.993 137.028  0.00  0.00    +0.000 OA
ATOM     33  O   UNL     1     113.406 129.229 138.778  0.00  0.00    +0.000 OA
ATOM     34  O   UNL     1     113.859 130.247 137.561  0.00  0.00    +0.000 OA
ATOM     35  O   UNL     1     113.729 129.763 135.989  0.00  0.00    +0.000 OA
ATOM     36  C   UNL     1     113.050 128.235 137.814  0.00  0.00    +0.000 C 
ATOM     37  C   UNL     1     113.341 128.986 137.992  0.00  0.00    +0.000 C 
ATOM     38  C   UNL     1     113.567 129.495 137.383  0.00  0.00    +0.000 C 
ATOM     39  C   UNL     1     113.503 129.254 136.597  0.00  0.00    +0.000 C 
ATOM     40  C   UNL     1     113.212 128.502 136.420  0.00  0.00    +0.000 C 
BRANCH  40  42
ATOM     41  O   UNL     1     112.408 128.252 135.264  0.00  0.00    +0.000 OA
ATOM     42  C   UNL     1     113.147 128.260 135.634  0.00  0.00    +0.000 C 
ENDBRANCH  40  42
ENDBRANCH  31  36
ENDBRANCH  24  31
ENDBRANCH  20  27
ENDBRANCH   4  20
BRANCH   5  43
ATOM     43  O   UNL     1     108.098 126.531 141.799  0.00  0.00    +0.000 OA
BRANCH  43  51
ATOM     44  O   UNL     1     107.942 125.170 141.391  0.00  0.00    +0.000 OA
ATOM     45  O   UNL     1     105.571 125.230 142.098  0.00  0.00    +0.000 OA
ATOM     46  O   UNL     1     106.517 126.571 142.271  0.00  0.00    +0.000 OA
ATOM     47  C   UNL     1     106.679 124.520 141.541  0.00  0.00    +0.000 C 
ATOM     48  C   UNL     1     106.361 125.211 141.863  0.00  0.00    +0.000 C 
ATOM     49  C   UNL     1     107.469 124.501 141.305  0.00  0.00    +0.000 C 
ATOM     50  C   UNL     1     106.834 125.881 141.949  0.00  0.00    +0.000 C 
ATOM     51  C   UNL     1     107.625 125.860 141.713  0.00  0.00    +0.000 C 
BRANCH  49  53
ATOM     52  O   UNL     1     108.510 123.523 141.252  0.00  0.00    +0.000 OA
ATOM     53  C   UNL     1     107.786 123.810 140.984  0.00  0.00    +0.000 C 
ENDBRANCH  49  53
BRANCH  47  54
ATOM     54  O   UNL     1     106.205 123.850 141.455  0.00  0.00    +0.000 OA
BRANCH  54  59
ATOM     55  O   UNL     1     105.806 124.227 140.136  0.00  0.00    +0.000 OA
ATOM     56  O   UNL     1     104.866 122.894 141.588  0.00  0.00    +0.000 OA
ATOM     57  O   UNL     1     103.798 122.793 140.335  0.00  0.00    +0.000 OA
ATOM     58  O   UNL     1     104.067 123.648 138.949  0.00  0.00    +0.000 OA
ATOM     59  C   UNL     1     105.671 123.799 140.828  0.00  0.00    +0.000 C 
ATOM     60  C   UNL     1     105.001 123.322 140.895  0.00  0.00    +0.000 C 
ATOM     61  C   UNL     1     104.467 123.271 140.268  0.00  0.00    +0.000 C 
ATOM     62  C   UNL     1     104.602 123.698 139.576  0.00  0.00    +0.000 C 
ATOM     63  C   UNL     1     105.272 124.176 139.510  0.00  0.00    +0.000 C 
BRANCH  63  65
ATOM     64  O   UNL     1     105.314 125.423 138.813  0.00  0.00    +0.000 OA
ATOM     65  C   UNL     1     105.406 124.603 138.817  0.00  0.00    +0.000 C 
ENDBRANCH  63  65
ENDBRANCH  54  59
ENDBRANCH  47  54
ENDBRANCH  43  51
ENDBRANCH   5  43
TORSDOF 13
ENDMDL
MODEL 6
REMARK VINA RESULT:     -10.1      4.227      6.668
REMARK  Name = 74978112
REMARK  13 active torsions:
REMARK  status: ('A' for Active; 'I' for Inactive)
REMARK    1  A    between atoms: O_1  and  C_27
REMARK    2  A    between atoms: O_1  and  C_32
REMARK    3  A    between atoms: O_2  and  C_28
REMARK    4  A    between atoms: O_2  and  C_34
REMARK    5  A    between atoms: O_7  and  C_38
REMARK    6  A    between atoms: O_7  and  C_51
REMARK    7  A    between atoms: O_10  and  C_45
REMARK    8  A    between atoms: O_10  and  C_52
REMARK    9  A    between atoms: C_31  and  C_47
REMARK   10  A    between atoms: C_40  and  C_48
REMARK   11  A    between atoms: C_44  and  C_49
REMARK   12  A    between atoms: C_46  and  C_50
REMARK   13  A    between atoms: C_54  and  C_60
REMARK                            x       y       z     vdW  Elec       q    Type
REMARK                         _______ _______ _______ _____ _____    ______ ____
ROOT
ATOM      1  O   UNL     1     107.573 129.074 141.221  0.00  0.00    +0.000 OA
ATOM      2  O   UNL     1     108.729 128.048 143.154  0.00  0.00    +0.000 OA
ATOM      3  O   UNL     1     107.504 127.424 143.591  0.00  0.00    +0.000 OA
ATOM      4  C   UNL     1     108.764 128.864 141.981  0.00  0.00    +0.000 A 
ATOM      5  C   UNL     1     105.869 127.976 142.162  0.00  0.00    +0.000 A 
ATOM      6  C   UNL     1     108.343 128.390 142.509  0.00  0.00    +0.000 A 
ATOM      7  C   UNL     1     108.379 129.206 141.337  0.00  0.00    +0.000 A 
ATOM      8  C   UNL     1     107.537 128.257 142.393  0.00  0.00    +0.000 A 
ATOM      9  C   UNL     1     107.153 128.600 141.748  0.00  0.00    +0.000 A 
ATOM     10  C   UNL     1     106.314 128.469 141.616  0.00  0.00    +0.000 A 
ATOM     11  C   UNL     1     106.271 127.620 142.833  0.00  0.00    +0.000 A 
ATOM     12  C   UNL     1     107.110 127.761 142.950  0.00  0.00    +0.000 A 
ENDROOT
BRANCH   7  14
ATOM     13  O   UNL     1     110.062 131.104 139.227  0.00  0.00    +0.000 OA
ATOM     14  C   UNL     1     108.800 129.681 140.809  0.00  0.00    +0.000 A 
ATOM     15  C   UNL     1     109.235 129.335 140.199  0.00  0.00    +0.000 A 
ATOM     16  C   UNL     1     108.786 130.501 140.892  0.00  0.00    +0.000 A 
ATOM     17  C   UNL     1     109.655 129.809 139.672  0.00  0.00    +0.000 A 
ATOM     18  C   UNL     1     109.207 130.976 140.364  0.00  0.00    +0.000 A 
ATOM     19  C   UNL     1     109.642 130.630 139.754  0.00  0.00    +0.000 A 
ENDBRANCH   7  14
BRANCH   4  20
ATOM     20  O   UNL     1     109.570 128.997 142.098  0.00  0.00    +0.000 OA
BRANCH  20  27
ATOM     21  O   UNL     1     109.418 129.887 143.205  0.00  0.00    +0.000 OA
ATOM     22  O   UNL     1     111.491 128.988 144.215  0.00  0.00    +0.000 OA
ATOM     23  O   UNL     1     110.647 130.178 144.985  0.00  0.00    +0.000 OA
ATOM     24  C   UNL     1     110.530 128.993 143.157  0.00  0.00    +0.000 C 
ATOM     25  C   UNL     1     110.800 129.288 143.878  0.00  0.00    +0.000 C 
ATOM     26  C   UNL     1     110.377 129.883 144.264  0.00  0.00    +0.000 C 
ATOM     27  C   UNL     1     109.839 129.293 142.820  0.00  0.00    +0.000 C 
ATOM     28  C   UNL     1     109.686 130.183 143.927  0.00  0.00    +0.000 C 
BRANCH  28  30
ATOM     29  O   UNL     1     109.148 131.507 143.944  0.00  0.00    +0.000 OA
ATOM     30  C   UNL     1     109.265 130.778 144.312  0.00  0.00    +0.000 C 
ENDBRANCH  28  30
BRANCH  24  31
ATOM     31  O   UNL     1     110.952 128.397 142.771  0.00  0.00    +0.000 OA
BRANCH  31  36
ATOM     32  O   UNL     1     111.908 129.361 142.325  0.00  0.00    +0.000 OA
ATOM     33  O   UNL     1     111.726 127.226 141.903  0.00  0.00    +0.000 OA
ATOM     34  O   UNL     1     113.070 127.605 141.023  0.00  0.00    +0.000 OA
ATOM     35  O   UNL     1     113.638 129.153 141.010  0.00  0.00    +0.000 OA
ATOM     36  C   UNL     1     111.624 128.586 142.331  0.00  0.00    +0.000 C 
ATOM     37  C   UNL     1     112.010 128.001 141.897  0.00  0.00    +0.000 C 
ATOM     38  C   UNL     1     112.682 128.190 141.457  0.00  0.00    +0.000 C 
ATOM     39  C   UNL     1     112.967 128.964 141.450  0.00  0.00    +0.000 C 
ATOM     40  C   UNL     1     112.579 129.550 141.884  0.00  0.00    +0.000 C 
BRANCH  40  42
ATOM     41  O   UNL     1     112.443 130.915 141.484  0.00  0.00    +0.000 OA
ATOM     42  C   UNL     1     112.864 130.324 141.877  0.00  0.00    +0.000 C 
ENDBRANCH  40  42
ENDBRANCH  31  36
ENDBRANCH  24  31
ENDBRANCH  20  27
ENDBRANCH   4  20
BRANCH   5  43
ATOM     43  O   UNL     1     105.064 127.845 142.043  0.00  0.00    +0.000 OA
BRANCH  43  51
ATOM     44  O   UNL     1     104.511 128.932 142.789  0.00  0.00    +0.000 OA
ATOM     45  O   UNL     1     102.972 129.432 140.916  0.00  0.00    +0.000 OA
ATOM     46  O   UNL     1     104.037 128.179 140.795  0.00  0.00    +0.000 OA
ATOM     47  C   UNL     1     103.465 129.725 142.225  0.00  0.00    +0.000 C 
ATOM     48  C   UNL     1     103.485 129.265 141.540  0.00  0.00    +0.000 C 
ATOM     49  C   UNL     1     103.979 129.558 142.849  0.00  0.00    +0.000 C 
ATOM     50  C   UNL     1     104.018 128.638 141.479  0.00  0.00    +0.000 C 
ATOM     51  C   UNL     1     104.531 128.472 142.104  0.00  0.00    +0.000 C 
BRANCH  49  53
ATOM     52  O   UNL     1     104.124 129.679 144.265  0.00  0.00    +0.000 OA
ATOM     53  C   UNL     1     103.958 130.019 143.533  0.00  0.00    +0.000 C 
ENDBRANCH  49  53
BRANCH  47  54
ATOM     54  O   UNL     1     102.932 130.352 142.285  0.00  0.00    +0.000 OA
BRANCH  54  59
ATOM     55  O   UNL     1     103.902 131.280 141.798  0.00  0.00    +0.000 OA
ATOM     56  O   UNL     1     101.728 131.424 141.932  0.00  0.00    +0.000 OA
ATOM     57  O   UNL     1     102.097 132.889 141.268  0.00  0.00    +0.000 OA
ATOM     58  O   UNL     1     103.669 133.282 140.957  0.00  0.00    +0.000 OA
ATOM     59  C   UNL     1     103.116 131.085 141.953  0.00  0.00    +0.000 C 
ATOM     60  C   UNL     1     102.514 131.621 141.777  0.00  0.00    +0.000 C 
ATOM     61  C   UNL     1     102.699 132.353 141.445  0.00  0.00    +0.000 C 
ATOM     62  C   UNL     1     103.485 132.550 141.289  0.00  0.00    +0.000 C 
ATOM     63  C   UNL     1     104.086 132.013 141.466  0.00  0.00    +0.000 C 
BRANCH  63  65
ATOM     64  O   UNL     1     105.274 131.842 140.690  0.00  0.00    +0.000 OA
ATOM     65  C   UNL     1     104.872 132.209 141.310  0.00  0.00    +0.000 C 
ENDBRANCH  63  65
ENDBRANCH  54  59
ENDBRANCH  47  54
ENDBRANCH  43  51
ENDBRANCH   5  43
TORSDOF 13
ENDMDL
MODEL 7
REMARK VINA RESULT:     -10.0      1.955      4.048
REMARK  Name = 74978112
REMARK  13 active torsions:
REMARK  status: ('A' for Active; 'I' for Inactive)
REMARK    1  A    between atoms: O_1  and  C_27
REMARK    2  A    between atoms: O_1  and  C_32
REMARK    3  A    between atoms: O_2  and  C_28
REMARK    4  A    between atoms: O_2  and  C_34
REMARK    5  A    between atoms: O_7  and  C_38
REMARK    6  A    between atoms: O_7  and  C_51
REMARK    7  A    between atoms: O_10  and  C_45
REMARK    8  A    between atoms: O_10  and  C_52
REMARK    9  A    between atoms: C_31  and  C_47
REMARK   10  A    between atoms: C_40  and  C_48
REMARK   11  A    between atoms: C_44  and  C_49
REMARK   12  A    between atoms: C_46  and  C_50
REMARK   13  A    between atoms: C_54  and  C_60
REMARK                            x       y       z     vdW  Elec       q    Type
REMARK                         _______ _______ _______ _____ _____    ______ ____
ROOT
ATOM      1  O   UNL     1     111.321 129.239 140.306  0.00  0.00    +0.000 OA
ATOM      2  O   UNL     1     109.229 128.263 139.415  0.00  0.00    +0.000 OA
ATOM      3  O   UNL     1     108.839 127.824 140.733  0.00  0.00    +0.000 OA
ATOM      4  C   UNL     1     110.457 128.962 139.203  0.00  0.00    +0.000 A 
ATOM      5  C   UNL     1     110.429 128.431 142.189  0.00  0.00    +0.000 A 
ATOM      6  C   UNL     1     109.926 128.588 139.713  0.00  0.00    +0.000 A 
ATOM      7  C   UNL     1     111.154 129.288 139.500  0.00  0.00    +0.000 A 
ATOM      8  C   UNL     1     110.094 128.539 140.519  0.00  0.00    +0.000 A 
ATOM      9  C   UNL     1     110.792 128.865 140.815  0.00  0.00    +0.000 A 
ATOM     10  C   UNL     1     110.977 128.820 141.653  0.00  0.00    +0.000 A 
ATOM     11  C   UNL     1     109.703 128.092 141.880  0.00  0.00    +0.000 A 
ATOM     12  C   UNL     1     109.534 128.146 141.039  0.00  0.00    +0.000 A 
ENDROOT
BRANCH   7  14
ATOM     13  O   UNL     1     113.273 130.786 137.462  0.00  0.00    +0.000 OA
ATOM     14  C   UNL     1     111.684 129.662 138.990  0.00  0.00    +0.000 A 
ATOM     15  C   UNL     1     112.350 129.258 138.717  0.00  0.00    +0.000 A 
ATOM     16  C   UNL     1     111.548 130.441 138.754  0.00  0.00    +0.000 A 
ATOM     17  C   UNL     1     112.879 129.633 138.208  0.00  0.00    +0.000 A 
ATOM     18  C   UNL     1     112.079 130.816 138.244  0.00  0.00    +0.000 A 
ATOM     19  C   UNL     1     112.744 130.411 137.971  0.00  0.00    +0.000 A 
ENDBRANCH   7  14
BRANCH   4  20
ATOM     20  O   UNL     1     110.289 129.011 138.396  0.00  0.00    +0.000 OA
BRANCH  20  27
ATOM     21  O   UNL     1     110.570 127.643 138.094  0.00  0.00    +0.000 OA
ATOM     22  O   UNL     1     108.743 127.637 136.424  0.00  0.00    +0.000 OA
ATOM     23  O   UNL     1     109.633 126.271 136.679  0.00  0.00    +0.000 OA
ATOM     24  C   UNL     1     109.517 128.324 137.410  0.00  0.00    +0.000 C 
ATOM     25  C   UNL     1     109.352 127.639 136.981  0.00  0.00    +0.000 C 
ATOM     26  C   UNL     1     109.798 126.956 137.108  0.00  0.00    +0.000 C 
ATOM     27  C   UNL     1     110.126 128.326 137.967  0.00  0.00    +0.000 C 
ATOM     28  C   UNL     1     110.406 126.958 137.665  0.00  0.00    +0.000 C 
BRANCH  28  30
ATOM     29  O   UNL     1     111.668 126.287 137.681  0.00  0.00    +0.000 OA
ATOM     30  C   UNL     1     110.851 126.275 137.792  0.00  0.00    +0.000 C 
ENDBRANCH  28  30
BRANCH  24  31
ATOM     31  O   UNL     1     109.071 129.007 137.283  0.00  0.00    +0.000 OA
BRANCH  31  36
ATOM     32  O   UNL     1     109.805 129.261 136.084  0.00  0.00    +0.000 OA
ATOM     33  O   UNL     1     108.160 130.356 137.012  0.00  0.00    +0.000 OA
ATOM     34  O   UNL     1     108.438 131.285 135.677  0.00  0.00    +0.000 OA
ATOM     35  O   UNL     1     109.627 130.865 134.613  0.00  0.00    +0.000 OA
ATOM     36  C   UNL     1     109.210 129.472 136.615  0.00  0.00    +0.000 C 
ATOM     37  C   UNL     1     108.755 130.145 136.480  0.00  0.00    +0.000 C 
ATOM     38  C   UNL     1     108.894 130.610 135.813  0.00  0.00    +0.000 C 
ATOM     39  C   UNL     1     109.488 130.401 135.280  0.00  0.00    +0.000 C 
ATOM     40  C   UNL     1     109.944 129.726 135.416  0.00  0.00    +0.000 C 
BRANCH  40  42
ATOM     41  O   UNL     1     111.332 129.590 135.102  0.00  0.00    +0.000 OA
ATOM     42  C   UNL     1     110.539 129.517 134.884  0.00  0.00    +0.000 C 
ENDBRANCH  40  42
ENDBRANCH  31  36
ENDBRANCH  24  31
ENDBRANCH  20  27
ENDBRANCH   4  20
BRANCH   5  43
ATOM     43  O   UNL     1     110.599 128.384 142.995  0.00  0.00    +0.000 OA
BRANCH  43  51
ATOM     44  O   UNL     1     109.921 129.593 143.343  0.00  0.00    +0.000 OA
ATOM     45  O   UNL     1     111.563 129.991 145.152  0.00  0.00    +0.000 OA
ATOM     46  O   UNL     1     111.694 128.649 144.201  0.00  0.00    +0.000 OA
ATOM     47  C   UNL     1     110.403 130.396 144.421  0.00  0.00    +0.000 C 
ATOM     48  C   UNL     1     111.016 129.858 144.549  0.00  0.00    +0.000 C 
ATOM     49  C   UNL     1     109.856 130.263 143.818  0.00  0.00    +0.000 C 
ATOM     50  C   UNL     1     111.081 129.187 144.073  0.00  0.00    +0.000 C 
ATOM     51  C   UNL     1     110.534 129.055 143.471  0.00  0.00    +0.000 C 
BRANCH  49  53
ATOM     52  O   UNL     1     108.481 130.531 143.536  0.00  0.00    +0.000 OA
ATOM     53  C   UNL     1     109.244 130.802 143.692  0.00  0.00    +0.000 C 
ENDBRANCH  49  53
BRANCH  47  54
ATOM     54  O   UNL     1     110.338 131.067 144.898  0.00  0.00    +0.000 OA
BRANCH  54  59
ATOM     55  O   UNL     1     111.247 131.774 144.052  0.00  0.00    +0.000 OA
ATOM     56  O   UNL     1     110.435 132.277 146.015  0.00  0.00    +0.000 OA
ATOM     57  O   UNL     1     111.393 133.590 145.727  0.00  0.00    +0.000 OA
ATOM     58  O   UNL     1     112.253 133.693 144.323  0.00  0.00    +0.000 OA
ATOM     59  C   UNL     1     110.817 131.723 144.754  0.00  0.00    +0.000 C 
ATOM     60  C   UNL     1     110.866 132.329 145.312  0.00  0.00    +0.000 C 
ATOM     61  C   UNL     1     111.344 132.985 145.169  0.00  0.00    +0.000 C 
ATOM     62  C   UNL     1     111.774 133.036 144.466  0.00  0.00    +0.000 C 
ATOM     63  C   UNL     1     111.725 132.430 143.908  0.00  0.00    +0.000 C 
BRANCH  63  65
ATOM     64  O   UNL     1     111.763 132.597 142.489  0.00  0.00    +0.000 OA
ATOM     65  C   UNL     1     112.156 132.481 143.206  0.00  0.00    +0.000 C 
ENDBRANCH  63  65
ENDBRANCH  54  59
ENDBRANCH  47  54
ENDBRANCH  43  51
ENDBRANCH   5  43
TORSDOF 13
ENDMDL
MODEL 8
REMARK VINA RESULT:     -10.0      2.338      3.985
REMARK  Name = 74978112
REMARK  13 active torsions:
REMARK  status: ('A' for Active; 'I' for Inactive)
REMARK    1  A    between atoms: O_1  and  C_27
REMARK    2  A    between atoms: O_1  and  C_32
REMARK    3  A    between atoms: O_2  and  C_28
REMARK    4  A    between atoms: O_2  and  C_34
REMARK    5  A    between atoms: O_7  and  C_38
REMARK    6  A    between atoms: O_7  and  C_51
REMARK    7  A    between atoms: O_10  and  C_45
REMARK    8  A    between atoms: O_10  and  C_52
REMARK    9  A    between atoms: C_31  and  C_47
REMARK   10  A    between atoms: C_40  and  C_48
REMARK   11  A    between atoms: C_44  and  C_49
REMARK   12  A    between atoms: C_46  and  C_50
REMARK   13  A    between atoms: C_54  and  C_60
REMARK                            x       y       z     vdW  Elec       q    Type
REMARK                         _______ _______ _______ _____ _____    ______ ____
ROOT
ATOM      1  O   UNL     1     111.513 129.801 139.537  0.00  0.00    +0.000 OA
ATOM      2  O   UNL     1     113.326 128.208 138.989  0.00  0.00    +0.000 OA
ATOM      3  O   UNL     1     114.075 128.617 140.152  0.00  0.00    +0.000 OA
ATOM      4  C   UNL     1     112.058 128.793 138.684  0.00  0.00    +0.000 A 
ATOM      5  C   UNL     1     112.913 130.198 141.233  0.00  0.00    +0.000 A 
ATOM      6  C   UNL     1     112.722 128.739 139.172  0.00  0.00    +0.000 A 
ATOM      7  C   UNL     1     111.454 129.324 138.867  0.00  0.00    +0.000 A 
ATOM      8  C   UNL     1     112.780 129.216 139.843  0.00  0.00    +0.000 A 
ATOM      9  C   UNL     1     112.175 129.747 140.025  0.00  0.00    +0.000 A 
ATOM     10  C   UNL     1     112.224 130.249 140.720  0.00  0.00    +0.000 A 
ATOM     11  C   UNL     1     113.542 129.645 141.042  0.00  0.00    +0.000 A 
ATOM     12  C   UNL     1     113.476 129.151 140.343  0.00  0.00    +0.000 A 
ENDROOT
BRANCH   7  14
ATOM     13  O   UNL     1     108.802 129.538 136.915  0.00  0.00    +0.000 OA
ATOM     14  C   UNL     1     110.790 129.377 138.378  0.00  0.00    +0.000 A 
ATOM     15  C   UNL     1     110.730 129.992 137.831  0.00  0.00    +0.000 A 
ATOM     16  C   UNL     1     110.189 128.817 138.438  0.00  0.00    +0.000 A 
ATOM     17  C   UNL     1     110.067 130.045 137.344  0.00  0.00    +0.000 A 
ATOM     18  C   UNL     1     109.525 128.870 137.950  0.00  0.00    +0.000 A 
ATOM     19  C   UNL     1     109.464 129.485 137.402  0.00  0.00    +0.000 A 
ENDBRANCH   7  14
BRANCH   4  20
ATOM     20  O   UNL     1     112.000 128.316 138.013  0.00  0.00    +0.000 OA
BRANCH  20  27
ATOM     21  O   UNL     1     112.922 129.052 137.207  0.00  0.00    +0.000 OA
ATOM     22  O   UNL     1     113.729 126.939 136.202  0.00  0.00    +0.000 OA
ATOM     23  O   UNL     1     114.382 128.379 135.731  0.00  0.00    +0.000 OA
ATOM     24  C   UNL     1     112.865 127.628 137.107  0.00  0.00    +0.000 C 
ATOM     25  C   UNL     1     113.460 127.643 136.537  0.00  0.00    +0.000 C 
ATOM     26  C   UNL     1     113.787 128.364 136.301  0.00  0.00    +0.000 C 
ATOM     27  C   UNL     1     112.596 128.332 137.442  0.00  0.00    +0.000 C 
ATOM     28  C   UNL     1     113.518 129.068 136.636  0.00  0.00    +0.000 C 
BRANCH  28  30
ATOM     29  O   UNL     1     113.364 130.369 136.065  0.00  0.00    +0.000 OA
ATOM     30  C   UNL     1     113.844 129.788 136.401  0.00  0.00    +0.000 C 
ENDBRANCH  28  30
BRANCH  24  31
ATOM     31  O   UNL     1     112.538 126.907 137.343  0.00  0.00    +0.000 OA
BRANCH  31  36
ATOM     32  O   UNL     1     111.732 126.876 136.164  0.00  0.00    +0.000 OA
ATOM     33  O   UNL     1     112.093 125.357 137.690  0.00  0.00    +0.000 OA
ATOM     34  O   UNL     1     111.065 124.549 136.684  0.00  0.00    +0.000 OA
ATOM     35  O   UNL     1     110.480 125.292 135.332  0.00  0.00    +0.000 OA
ATOM     36  C   UNL     1     112.024 126.504 136.840  0.00  0.00    +0.000 C 
ATOM     37  C   UNL     1     111.802 125.729 137.014  0.00  0.00    +0.000 C 
ATOM     38  C   UNL     1     111.287 125.325 136.511  0.00  0.00    +0.000 C 
ATOM     39  C   UNL     1     110.995 125.696 135.835  0.00  0.00    +0.000 C 
ATOM     40  C   UNL     1     111.217 126.472 135.661  0.00  0.00    +0.000 C 
BRANCH  40  42
ATOM     41  O   UNL     1     110.349 127.431 135.054  0.00  0.00    +0.000 OA
ATOM     42  C   UNL     1     110.925 126.843 134.985  0.00  0.00    +0.000 C 
ENDBRANCH  40  42
ENDBRANCH  31  36
ENDBRANCH  24  31
ENDBRANCH  20  27
ENDBRANCH   4  20
BRANCH   5  43
ATOM     43  O   UNL     1     112.969 130.676 141.903  0.00  0.00    +0.000 OA
BRANCH  43  51
ATOM     44  O   UNL     1     112.083 129.955 142.762  0.00  0.00    +0.000 OA
ATOM     45  O   UNL     1     111.115 132.090 143.554  0.00  0.00    +0.000 OA
ATOM     46  O   UNL     1     112.323 132.100 142.431  0.00  0.00    +0.000 OA
ATOM     47  C   UNL     1     111.156 130.662 143.587  0.00  0.00    +0.000 C 
ATOM     48  C   UNL     1     111.438 131.379 143.290  0.00  0.00    +0.000 C 
ATOM     49  C   UNL     1     111.479 129.951 143.323  0.00  0.00    +0.000 C 
ATOM     50  C   UNL     1     112.042 131.383 142.728  0.00  0.00    +0.000 C 
ATOM     51  C   UNL     1     112.364 130.671 142.465  0.00  0.00    +0.000 C 
BRANCH  49  53
ATOM     52  O   UNL     1     111.717 128.611 143.759  0.00  0.00    +0.000 OA
ATOM     53  C   UNL     1     111.197 129.235 143.621  0.00  0.00    +0.000 C 
ENDBRANCH  49  53
BRANCH  47  54
ATOM     54  O   UNL     1     110.552 130.658 144.149  0.00  0.00    +0.000 OA
BRANCH  54  59
ATOM     55  O   UNL     1     109.566 130.603 143.117  0.00  0.00    +0.000 OA
ATOM     56  O   UNL     1     109.376 131.003 145.254  0.00  0.00    +0.000 OA
ATOM     57  O   UNL     1     107.802 131.120 144.775  0.00  0.00    +0.000 OA
ATOM     58  O   UNL     1     107.403 130.892 143.190  0.00  0.00    +0.000 OA
ATOM     59  C   UNL     1     109.764 130.717 143.909  0.00  0.00    +0.000 C 
ATOM     60  C   UNL     1     109.177 130.889 144.462  0.00  0.00    +0.000 C 
ATOM     61  C   UNL     1     108.389 130.947 144.222  0.00  0.00    +0.000 C 
ATOM     62  C   UNL     1     108.190 130.834 143.430  0.00  0.00    +0.000 C 
ATOM     63  C   UNL     1     108.779 130.661 142.877  0.00  0.00    +0.000 C 
BRANCH  63  65
ATOM     64  O   UNL     1     108.751 131.132 141.528  0.00  0.00    +0.000 OA
ATOM     65  C   UNL     1     108.579 130.548 142.085  0.00  0.00    +0.000 C 
ENDBRANCH  63  65
ENDBRANCH  54  59
ENDBRANCH  47  54
ENDBRANCH  43  51
ENDBRANCH   5  43
TORSDOF 13
ENDMDL
MODEL 9
REMARK VINA RESULT:     -10.0      1.848      3.476
REMARK  Name = 74978112
REMARK  13 active torsions:
REMARK  status: ('A' for Active; 'I' for Inactive)
REMARK    1  A    between atoms: O_1  and  C_27
REMARK    2  A    between atoms: O_1  and  C_32
REMARK    3  A    between atoms: O_2  and  C_28
REMARK    4  A    between atoms: O_2  and  C_34
REMARK    5  A    between atoms: O_7  and  C_38
REMARK    6  A    between atoms: O_7  and  C_51
REMARK    7  A    between atoms: O_10  and  C_45
REMARK    8  A    between atoms: O_10  and  C_52
REMARK    9  A    between atoms: C_31  and  C_47
REMARK   10  A    between atoms: C_40  and  C_48
REMARK   11  A    between atoms: C_44  and  C_49
REMARK   12  A    between atoms: C_46  and  C_50
REMARK   13  A    between atoms: C_54  and  C_60
REMARK                            x       y       z     vdW  Elec       q    Type
REMARK                         _______ _______ _______ _____ _____    ______ ____
ROOT
ATOM      1  O   UNL     1     111.604 129.164 140.824  0.00  0.00    +0.000 OA
ATOM      2  O   UNL     1     111.144 130.984 139.212  0.00  0.00    +0.000 OA
ATOM      3  O   UNL     1     110.445 131.741 140.223  0.00  0.00    +0.000 OA
ATOM      4  C   UNL     1     111.717 129.709 139.508  0.00  0.00    +0.000 A 
ATOM      5  C   UNL     1     110.474 130.576 142.136  0.00  0.00    +0.000 A 
ATOM      6  C   UNL     1     111.297 130.378 139.750  0.00  0.00    +0.000 A 
ATOM      7  C   UNL     1     111.871 129.103 140.046  0.00  0.00    +0.000 A 
ATOM      8  C   UNL     1     111.031 130.439 140.528  0.00  0.00    +0.000 A 
ATOM      9  C   UNL     1     111.185 129.831 141.065  0.00  0.00    +0.000 A 
ATOM     10  C   UNL     1     110.912 129.883 141.878  0.00  0.00    +0.000 A 
ATOM     11  C   UNL     1     110.314 131.208 141.576  0.00  0.00    +0.000 A 
ATOM     12  C   UNL     1     110.594 131.139 140.767  0.00  0.00    +0.000 A 
ENDROOT
BRANCH   7  14
ATOM     13  O   UNL     1     113.552 126.432 139.080  0.00  0.00    +0.000 OA
ATOM     14  C   UNL     1     112.291 128.435 139.804  0.00  0.00    +0.000 A 
ATOM     15  C   UNL     1     111.887 127.746 139.596  0.00  0.00    +0.000 A 
ATOM     16  C   UNL     1     113.115 128.456 139.771  0.00  0.00    +0.000 A 
ATOM     17  C   UNL     1     112.307 127.079 139.355  0.00  0.00    +0.000 A 
ATOM     18  C   UNL     1     113.535 127.788 139.529  0.00  0.00    +0.000 A 
ATOM     19  C   UNL     1     113.132 127.099 139.321  0.00  0.00    +0.000 A 
ENDBRANCH   7  14
BRANCH   4  20
ATOM     20  O   UNL     1     111.984 129.649 138.730  0.00  0.00    +0.000 OA
BRANCH  20  27
ATOM     21  O   UNL     1     110.705 129.392 138.147  0.00  0.00    +0.000 OA
ATOM     22  O   UNL     1     111.358 130.687 136.142  0.00  0.00    +0.000 OA
ATOM     23  O   UNL     1     109.861 129.999 136.228  0.00  0.00    +0.000 OA
ATOM     24  C   UNL     1     111.670 130.167 137.436  0.00  0.00    +0.000 C 
ATOM     25  C   UNL     1     111.140 130.255 136.810  0.00  0.00    +0.000 C 
ATOM     26  C   UNL     1     110.391 129.911 136.853  0.00  0.00    +0.000 C 
ATOM     27  C   UNL     1     111.453 129.736 138.104  0.00  0.00    +0.000 C 
ATOM     28  C   UNL     1     110.173 129.479 137.522  0.00  0.00    +0.000 C 
BRANCH  28  30
ATOM     29  O   UNL     1     109.350 128.322 137.680  0.00  0.00    +0.000 OA
ATOM     30  C   UNL     1     109.425 129.135 137.565  0.00  0.00    +0.000 C 
ENDBRANCH  28  30
BRANCH  24  31
ATOM     31  O   UNL     1     112.419 130.512 137.393  0.00  0.00    +0.000 OA
BRANCH  31  36
ATOM     32  O   UNL     1     112.858 129.457 136.535  0.00  0.00    +0.000 OA
ATOM     33  O   UNL     1     113.872 131.272 137.202  0.00  0.00    +0.000 OA
ATOM     34  O   UNL     1     115.037 130.597 136.248  0.00  0.00    +0.000 OA
ATOM     35  O   UNL     1     114.750 129.162 135.486  0.00  0.00    +0.000 OA
ATOM     36  C   UNL     1     113.002 130.174 136.916  0.00  0.00    +0.000 C 
ATOM     37  C   UNL     1     113.727 130.554 136.821  0.00  0.00    +0.000 C 
ATOM     38  C   UNL     1     114.310 130.217 136.344  0.00  0.00    +0.000 C 
ATOM     39  C   UNL     1     114.167 129.499 135.963  0.00  0.00    +0.000 C 
ATOM     40  C   UNL     1     113.441 129.119 136.058  0.00  0.00    +0.000 C 
BRANCH  40  42
ATOM     41  O   UNL     1     113.279 127.700 136.112  0.00  0.00    +0.000 OA
ATOM     42  C   UNL     1     113.298 128.402 135.677  0.00  0.00    +0.000 C 
ENDBRANCH  40  42
ENDBRANCH  31  36
ENDBRANCH  24  31
ENDBRANCH  20  27
ENDBRANCH   4  20
BRANCH   5  43
ATOM     43  O   UNL     1     110.209 130.634 142.915  0.00  0.00    +0.000 OA
BRANCH  43  51
ATOM     44  O   UNL     1     111.208 131.541 143.385  0.00  0.00    +0.000 OA
ATOM     45  O   UNL     1     111.303 130.321 145.536  0.00  0.00    +0.000 OA
ATOM     46  O   UNL     1     110.272 129.820 144.349  0.00  0.00    +0.000 OA
ATOM     47  C   UNL     1     111.755 131.384 144.695  0.00  0.00    +0.000 C 
ATOM     48  C   UNL     1     111.271 130.727 144.819  0.00  0.00    +0.000 C 
ATOM     49  C   UNL     1     111.723 131.791 143.978  0.00  0.00    +0.000 C 
ATOM     50  C   UNL     1     110.756 130.477 144.225  0.00  0.00    +0.000 C 
ATOM     51  C   UNL     1     110.724 130.884 143.509  0.00  0.00    +0.000 C 
BRANCH  49  53
ATOM     52  O   UNL     1     112.647 132.513 143.162  0.00  0.00    +0.000 OA
ATOM     53  C   UNL     1     112.207 132.448 143.856  0.00  0.00    +0.000 C 
ENDBRANCH  49  53
BRANCH  47  54
ATOM     54  O   UNL     1     112.270 131.634 145.290  0.00  0.00    +0.000 OA
BRANCH  54  59
ATOM     55  O   UNL     1     111.280 132.518 145.818  0.00  0.00    +0.000 OA
ATOM     56  O   UNL     1     113.144 131.781 146.681  0.00  0.00    +0.000 OA
ATOM     57  O   UNL     1     112.591 132.739 147.906  0.00  0.00    +0.000 OA
ATOM     58  O   UNL     1     111.164 133.550 147.739  0.00  0.00    +0.000 OA
ATOM     59  C   UNL     1     111.993 132.113 145.902  0.00  0.00    +0.000 C 
ATOM     60  C   UNL     1     112.431 132.187 146.598  0.00  0.00    +0.000 C 
ATOM     61  C   UNL     1     112.154 132.665 147.210  0.00  0.00    +0.000 C 
ATOM     62  C   UNL     1     111.441 133.071 147.127  0.00  0.00    +0.000 C 
ATOM     63  C   UNL     1     111.004 132.997 146.430  0.00  0.00    +0.000 C 
BRANCH  63  65
ATOM     64  O   UNL     1     109.575 132.996 146.408  0.00  0.00    +0.000 OA
ATOM     65  C   UNL     1     110.290 133.403 146.346  0.00  0.00    +0.000 C 
ENDBRANCH  63  65
ENDBRANCH  54  59
ENDBRANCH  47  54
ENDBRANCH  43  51
ENDBRANCH   5  43
TORSDOF 13
ENDMDL
MODEL 10
REMARK VINA RESULT:     -10.0      1.629      2.712
REMARK  Name = 74978112
REMARK  13 active torsions:
REMARK  status: ('A' for Active; 'I' for Inactive)
REMARK    1  A    between atoms: O_1  and  C_27
REMARK    2  A    between atoms: O_1  and  C_32
REMARK    3  A    between atoms: O_2  and  C_28
REMARK    4  A    between atoms: O_2  and  C_34
REMARK    5  A    between atoms: O_7  and  C_38
REMARK    6  A    between atoms: O_7  and  C_51
REMARK    7  A    between atoms: O_10  and  C_45
REMARK    8  A    between atoms: O_10  and  C_52
REMARK    9  A    between atoms: C_31  and  C_47
REMARK   10  A    between atoms: C_40  and  C_48
REMARK   11  A    between atoms: C_44  and  C_49
REMARK   12  A    between atoms: C_46  and  C_50
REMARK   13  A    between atoms: C_54  and  C_60
REMARK                            x       y       z     vdW  Elec       q    Type
REMARK                         _______ _______ _______ _____ _____    ______ ____
ROOT
ATOM      1  O   UNL     1     112.021 130.703 140.355  0.00  0.00    +0.000 OA
ATOM      2  O   UNL     1     110.741 128.587 140.443  0.00  0.00    +0.000 OA
ATOM      3  O   UNL     1     110.035 129.030 141.621  0.00  0.00    +0.000 OA
ATOM      4  C   UNL     1     111.723 129.413 139.816  0.00  0.00    +0.000 A 
ATOM      5  C   UNL     1     110.763 131.078 142.163  0.00  0.00    +0.000 A 
ATOM      6  C   UNL     1     111.167 129.292 140.414  0.00  0.00    +0.000 A 
ATOM      7  C   UNL     1     112.149 130.119 139.786  0.00  0.00    +0.000 A 
ATOM      8  C   UNL     1     111.038 129.876 140.982  0.00  0.00    +0.000 A 
ATOM      9  C   UNL     1     111.466 130.582 140.952  0.00  0.00    +0.000 A 
ATOM     10  C   UNL     1     111.341 131.198 141.538  0.00  0.00    +0.000 A 
ATOM     11  C   UNL     1     110.319 130.343 142.194  0.00  0.00    +0.000 A 
ATOM     12  C   UNL     1     110.457 129.738 141.600  0.00  0.00    +0.000 A 
ENDROOT
BRANCH   7  14
ATOM     13  O   UNL     1     114.372 130.602 137.395  0.00  0.00    +0.000 OA
ATOM     14  C   UNL     1     112.705 130.240 139.188  0.00  0.00    +0.000 A 
ATOM     15  C   UNL     1     112.496 130.658 138.509  0.00  0.00    +0.000 A 
ATOM     16  C   UNL     1     113.470 129.942 139.270  0.00  0.00    +0.000 A 
ATOM     17  C   UNL     1     113.051 130.779 137.912  0.00  0.00    +0.000 A 
ATOM     18  C   UNL     1     114.026 130.063 138.672  0.00  0.00    +0.000 A 
ATOM     19  C   UNL     1     113.816 130.481 137.992  0.00  0.00    +0.000 A 
ENDBRANCH   7  14
BRANCH   4  20
ATOM     20  O   UNL     1     111.852 128.829 139.248  0.00  0.00    +0.000 OA
BRANCH  20  27
ATOM     21  O   UNL     1     110.634 129.050 138.533  0.00  0.00    +0.000 OA
ATOM     22  O   UNL     1     110.490 126.631 138.030  0.00  0.00    +0.000 OA
ATOM     23  O   UNL     1     109.320 127.658 137.483  0.00  0.00    +0.000 OA
ATOM     24  C   UNL     1     111.171 127.730 138.639  0.00  0.00    +0.000 C 
ATOM     25  C   UNL     1     110.538 127.437 138.198  0.00  0.00    +0.000 C 
ATOM     26  C   UNL     1     109.953 127.951 137.924  0.00  0.00    +0.000 C 
ATOM     27  C   UNL     1     111.218 128.537 138.806  0.00  0.00    +0.000 C 
ATOM     28  C   UNL     1     110.001 128.757 138.092  0.00  0.00    +0.000 C 
BRANCH  28  30
ATOM     29  O   UNL     1     109.614 129.886 137.305  0.00  0.00    +0.000 OA
ATOM     30  C   UNL     1     109.416 129.270 137.819  0.00  0.00    +0.000 C 
ENDBRANCH  28  30
BRANCH  24  31
ATOM     31  O   UNL     1     111.756 127.216 138.913  0.00  0.00    +0.000 OA
BRANCH  31  36
ATOM     32  O   UNL     1     112.329 127.172 137.605  0.00  0.00    +0.000 OA
ATOM     33  O   UNL     1     112.962 126.241 139.475  0.00  0.00    +0.000 OA
ATOM     34  O   UNL     1     114.139 125.709 138.448  0.00  0.00    +0.000 OA
ATOM     35  O   UNL     1     114.110 126.152 136.859  0.00  0.00    +0.000 OA
ATOM     36  C   UNL     1     112.344 126.950 138.399  0.00  0.00    +0.000 C 
ATOM     37  C   UNL     1     112.947 126.463 138.680  0.00  0.00    +0.000 C 
ATOM     38  C   UNL     1     113.536 126.197 138.167  0.00  0.00    +0.000 C 
ATOM     39  C   UNL     1     113.522 126.418 137.373  0.00  0.00    +0.000 C 
ATOM     40  C   UNL     1     112.918 126.906 137.091  0.00  0.00    +0.000 C 
BRANCH  40  42
ATOM     41  O   UNL     1     113.051 127.912 136.085  0.00  0.00    +0.000 OA
ATOM     42  C   UNL     1     112.904 127.127 136.297  0.00  0.00    +0.000 C 
ENDBRANCH  40  42
ENDBRANCH  31  36
ENDBRANCH  24  31
ENDBRANCH  20  27
ENDBRANCH   4  20
BRANCH   5  43
ATOM     43  O   UNL     1     110.637 131.664 142.730  0.00  0.00    +0.000 OA
BRANCH  43  51
ATOM     44  O   UNL     1     111.078 131.065 143.950  0.00  0.00    +0.000 OA
ATOM     45  O   UNL     1     112.554 133.007 144.368  0.00  0.00    +0.000 OA
ATOM     46  O   UNL     1     111.621 132.959 143.008  0.00  0.00    +0.000 OA
ATOM     47  C   UNL     1     112.037 131.736 144.768  0.00  0.00    +0.000 C 
ATOM     48  C   UNL     1     112.062 132.360 144.228  0.00  0.00    +0.000 C 
ATOM     49  C   UNL     1     111.545 131.089 144.629  0.00  0.00    +0.000 C 
ATOM     50  C   UNL     1     111.595 132.335 143.549  0.00  0.00    +0.000 C 
ATOM     51  C   UNL     1     111.104 131.688 143.410  0.00  0.00    +0.000 C 
BRANCH  49  53
ATOM     52  O   UNL     1     111.393 129.696 144.907  0.00  0.00    +0.000 OA
ATOM     53  C   UNL     1     111.520 130.466 145.170  0.00  0.00    +0.000 C 
ENDBRANCH  49  53
BRANCH  47  54
ATOM     54  O   UNL     1     112.504 131.761 145.448  0.00  0.00    +0.000 OA
BRANCH  54  59
ATOM     55  O   UNL     1     111.514 132.557 146.101  0.00  0.00    +0.000 OA
ATOM     56  O   UNL     1     113.450 131.829 146.799  0.00  0.00    +0.000 OA
ATOM     57  O   UNL     1     112.932 132.658 148.128  0.00  0.00    +0.000 OA
ATOM     58  O   UNL     1     111.469 133.421 148.106  0.00  0.00    +0.000 OA
ATOM     59  C   UNL     1     112.245 132.176 146.113  0.00  0.00    +0.000 C 
ATOM     60  C   UNL     1     112.718 132.210 146.788  0.00  0.00    +0.000 C 
ATOM     61  C   UNL     1     112.459 132.625 147.452  0.00  0.00    +0.000 C 
ATOM     62  C   UNL     1     111.728 133.006 147.442  0.00  0.00    +0.000 C 
ATOM     63  C   UNL     1     111.255 132.972 146.766  0.00  0.00    +0.000 C 
BRANCH  63  65
ATOM     64  O   UNL     1     109.828 132.911 146.789  0.00  0.00    +0.000 OA
ATOM     65  C   UNL     1     110.524 133.353 146.755  0.00  0.00    +0.000 C 
ENDBRANCH  63  65
ENDBRANCH  54  59
ENDBRANCH  47  54
ENDBRANCH  43  51
ENDBRANCH   5  43
TORSDOF 13
ENDMDL
