MODEL 1
REMARK VINA RESULT:     -10.2      0.000      0.000
REMARK  Name = 13889202
REMARK  7 active torsions:
REMARK  status: ('A' for Active; 'I' for Inactive)
REMARK    1  A    between atoms: O_2  and  C_19
REMARK    2  A    between atoms: O_2  and  C_24
REMARK    3  A    between atoms: O_3  and  C_21
REMARK    4  A    between atoms: O_3  and  C_23
REMARK    5  A    between atoms: C_20  and  C_22
REMARK    6  A    between atoms: C_24  and  C_27
REMARK    7  A    between atoms: C_25  and  C_30
REMARK                            x       y       z     vdW  Elec       q    Type
REMARK                         _______ _______ _______ _____ _____    ______ ____
ROOT
ATOM      1  O   UNL     1     111.812 127.409 137.013  0.00  0.00    +0.000 OA
ENDROOT
BRANCH   1   6
ATOM      2  O   UNL     1     113.411 127.815 138.442  0.00  0.00    +0.000 OA
ATOM      3  O   UNL     1     111.234 126.641 138.354  0.00  0.00    +0.000 OA
ATOM      4  O   UNL     1     111.358 126.246 139.736  0.00  0.00    +0.000 OA
ATOM      5  O   UNL     1     113.730 127.056 141.235  0.00  0.00    +0.000 OA
ATOM      6  C   UNL     1     112.249 127.416 137.713  0.00  0.00    +0.000 A 
ATOM      7  C   UNL     1     112.975 127.808 137.742  0.00  0.00    +0.000 A 
ATOM      8  C   UNL     1     111.960 127.032 138.383  0.00  0.00    +0.000 A 
ATOM      9  C   UNL     1     112.397 127.039 139.083  0.00  0.00    +0.000 A 
ATOM     10  C   UNL     1     113.122 127.431 139.113  0.00  0.00    +0.000 A 
ATOM     11  C   UNL     1     112.085 126.635 139.775  0.00  0.00    +0.000 A 
ATOM     12  C   UNL     1     113.587 127.446 139.835  0.00  0.00    +0.000 A 
ATOM     13  C   UNL     1     112.536 126.639 140.506  0.00  0.00    +0.000 A 
ATOM     14  C   UNL     1     113.291 127.047 140.537  0.00  0.00    +0.000 A 
BRANCH   7  17
ATOM     15  O   UNL     1     113.100 130.131 136.081  0.00  0.00    +0.000 OA
ATOM     16  O   UNL     1     114.131 129.345 135.060  0.00  0.00    +0.000 OA
ATOM     17  C   UNL     1     113.263 128.192 137.072  0.00  0.00    +0.000 A 
ATOM     18  C   UNL     1     113.037 128.970 136.912  0.00  0.00    +0.000 A 
ATOM     19  C   UNL     1     113.779 127.799 136.562  0.00  0.00    +0.000 A 
ATOM     20  C   UNL     1     113.326 129.354 136.242  0.00  0.00    +0.000 A 
ATOM     21  C   UNL     1     114.068 128.184 135.891  0.00  0.00    +0.000 A 
ATOM     22  C   UNL     1     113.842 128.961 135.731  0.00  0.00    +0.000 A 
ENDBRANCH   7  17
ENDBRANCH   1   6
BRANCH   1  30
ATOM     23  O   UNL     1     112.087 126.036 136.730  0.00  0.00    +0.000 OA
ATOM     24  O   UNL     1     109.924 125.849 135.541  0.00  0.00    +0.000 OA
ATOM     25  O   UNL     1     110.919 124.539 135.654  0.00  0.00    +0.000 OA
ATOM     26  C   UNL     1     110.645 125.911 135.937  0.00  0.00    +0.000 C 
ATOM     27  C   UNL     1     111.142 125.256 135.994  0.00  0.00    +0.000 C 
ATOM     28  C   UNL     1     110.867 126.630 136.277  0.00  0.00    +0.000 C 
ATOM     29  C   UNL     1     111.863 125.318 136.390  0.00  0.00    +0.000 C 
ATOM     30  C   UNL     1     111.588 126.692 136.673  0.00  0.00    +0.000 C 
BRANCH  29  32
ATOM     31  O   UNL     1     113.102 124.676 136.083  0.00  0.00    +0.000 OA
ATOM     32  C   UNL     1     112.361 124.663 136.447  0.00  0.00    +0.000 C 
ENDBRANCH  29  32
BRANCH  28  33
ATOM     33  O   UNL     1     110.370 127.285 136.221  0.00  0.00    +0.000 OA
BRANCH  33  35
ATOM     34  O   UNL     1     110.595 127.338 134.810  0.00  0.00    +0.000 OA
ATOM     35  C   UNL     1     110.261 127.658 135.493  0.00  0.00    +0.000 C 
BRANCH  35  39
ATOM     36  O   UNL     1     107.881 129.118 136.102  0.00  0.00    +0.000 OA
ATOM     37  O   UNL     1     109.979 130.363 134.614  0.00  0.00    +0.000 OA
ATOM     38  O   UNL     1     108.486 130.434 135.313  0.00  0.00    +0.000 OA
ATOM     39  C   UNL     1     109.817 128.353 135.448  0.00  0.00    +0.000 A 
ATOM     40  C   UNL     1     110.120 129.011 135.053  0.00  0.00    +0.000 A 
ATOM     41  C   UNL     1     109.071 128.388 135.798  0.00  0.00    +0.000 A 
ATOM     42  C   UNL     1     108.627 129.083 135.752  0.00  0.00    +0.000 A 
ATOM     43  C   UNL     1     109.676 129.705 135.009  0.00  0.00    +0.000 A 
ATOM     44  C   UNL     1     108.930 129.741 135.358  0.00  0.00    +0.000 A 
ENDBRANCH  35  39
ENDBRANCH  33  35
ENDBRANCH  28  33
ENDBRANCH   1  30
TORSDOF 7
ENDMDL
MODEL 2
REMARK VINA RESULT:     -10.2      1.512      4.846
REMARK  Name = 13889202
REMARK  7 active torsions:
REMARK  status: ('A' for Active; 'I' for Inactive)
REMARK    1  A    between atoms: O_2  and  C_19
REMARK    2  A    between atoms: O_2  and  C_24
REMARK    3  A    between atoms: O_3  and  C_21
REMARK    4  A    between atoms: O_3  and  C_23
REMARK    5  A    between atoms: C_20  and  C_22
REMARK    6  A    between atoms: C_24  and  C_27
REMARK    7  A    between atoms: C_25  and  C_30
REMARK                            x       y       z     vdW  Elec       q    Type
REMARK                         _______ _______ _______ _____ _____    ______ ____
ROOT
ATOM      1  O   UNL     1     111.956 128.481 137.057  0.00  0.00    +0.000 OA
ENDROOT
BRANCH   1   6
ATOM      2  O   UNL     1     111.224 129.897 135.566  0.00  0.00    +0.000 OA
ATOM      3  O   UNL     1     110.331 128.407 137.330  0.00  0.00    +0.000 OA
ATOM      4  O   UNL     1     108.979 128.816 137.032  0.00  0.00    +0.000 OA
ATOM      5  O   UNL     1     108.524 130.769 134.910  0.00  0.00    +0.000 OA
ATOM      6  C   UNL     1     111.441 128.941 136.606  0.00  0.00    +0.000 A 
ATOM      7  C   UNL     1     111.739 129.437 136.018  0.00  0.00    +0.000 A 
ATOM      8  C   UNL     1     110.629 128.903 136.742  0.00  0.00    +0.000 A 
ATOM      9  C   UNL     1     110.113 129.363 136.290  0.00  0.00    +0.000 A 
ATOM     10  C   UNL     1     110.410 129.859 135.702  0.00  0.00    +0.000 A 
ATOM     11  C   UNL     1     109.268 129.316 136.442  0.00  0.00    +0.000 A 
ATOM     12  C   UNL     1     109.884 130.343 135.225  0.00  0.00    +0.000 A 
ATOM     13  C   UNL     1     108.727 129.792 135.974  0.00  0.00    +0.000 A 
ATOM     14  C   UNL     1     109.037 130.309 135.363  0.00  0.00    +0.000 A 
BRANCH   7  17
ATOM     15  O   UNL     1     114.252 130.751 136.376  0.00  0.00    +0.000 OA
ATOM     16  O   UNL     1     114.990 129.585 135.472  0.00  0.00    +0.000 OA
ATOM     17  C   UNL     1     112.551 129.474 135.881  0.00  0.00    +0.000 A 
ATOM     18  C   UNL     1     112.995 130.094 136.197  0.00  0.00    +0.000 A 
ATOM     19  C   UNL     1     112.920 128.891 135.429  0.00  0.00    +0.000 A 
ATOM     20  C   UNL     1     113.808 130.131 136.061  0.00  0.00    +0.000 A 
ATOM     21  C   UNL     1     113.734 128.928 135.292  0.00  0.00    +0.000 A 
ATOM     22  C   UNL     1     114.177 129.548 135.608  0.00  0.00    +0.000 A 
ENDBRANCH   7  17
ENDBRANCH   1   6
BRANCH   1  30
ATOM     23  O   UNL     1     111.857 129.290 138.231  0.00  0.00    +0.000 OA
ATOM     24  O   UNL     1     112.166 127.279 139.642  0.00  0.00    +0.000 OA
ATOM     25  O   UNL     1     111.964 128.757 140.345  0.00  0.00    +0.000 OA
ATOM     26  C   UNL     1     112.063 127.949 139.171  0.00  0.00    +0.000 C 
ATOM     27  C   UNL     1     111.962 128.688 139.523  0.00  0.00    +0.000 C 
ATOM     28  C   UNL     1     112.061 127.880 138.349  0.00  0.00    +0.000 C 
ATOM     29  C   UNL     1     111.859 129.358 139.053  0.00  0.00    +0.000 C 
ATOM     30  C   UNL     1     111.958 128.550 137.879  0.00  0.00    +0.000 C 
BRANCH  29  32
ATOM     31  O   UNL     1     112.309 130.697 139.269  0.00  0.00    +0.000 OA
ATOM     32  C   UNL     1     111.758 130.097 139.405  0.00  0.00    +0.000 C 
ENDBRANCH  29  32
BRANCH  28  33
ATOM     33  O   UNL     1     112.163 127.141 137.997  0.00  0.00    +0.000 OA
BRANCH  33  35
ATOM     34  O   UNL     1     113.528 127.125 138.419  0.00  0.00    +0.000 OA
ATOM     35  C   UNL     1     112.901 126.774 138.014  0.00  0.00    +0.000 C 
BRANCH  35  39
ATOM     36  O   UNL     1     114.542 125.043 136.439  0.00  0.00    +0.000 OA
ATOM     37  O   UNL     1     111.938 124.193 137.253  0.00  0.00    +0.000 OA
ATOM     38  O   UNL     1     113.352 123.900 136.456  0.00  0.00    +0.000 OA
ATOM     39  C   UNL     1     113.014 126.055 137.624  0.00  0.00    +0.000 A 
ATOM     40  C   UNL     1     112.419 125.483 137.633  0.00  0.00    +0.000 A 
ATOM     41  C   UNL     1     113.722 125.909 137.226  0.00  0.00    +0.000 A 
ATOM     42  C   UNL     1     113.834 125.189 136.836  0.00  0.00    +0.000 A 
ATOM     43  C   UNL     1     112.532 124.765 137.244  0.00  0.00    +0.000 A 
ATOM     44  C   UNL     1     113.240 124.618 136.845  0.00  0.00    +0.000 A 
ENDBRANCH  35  39
ENDBRANCH  33  35
ENDBRANCH  28  33
ENDBRANCH   1  30
TORSDOF 7
ENDMDL
MODEL 3
REMARK VINA RESULT:     -10.1      1.834      4.296
REMARK  Name = 13889202
REMARK  7 active torsions:
REMARK  status: ('A' for Active; 'I' for Inactive)
REMARK    1  A    between atoms: O_2  and  C_19
REMARK    2  A    between atoms: O_2  and  C_24
REMARK    3  A    between atoms: O_3  and  C_21
REMARK    4  A    between atoms: O_3  and  C_23
REMARK    5  A    between atoms: C_20  and  C_22
REMARK    6  A    between atoms: C_24  and  C_27
REMARK    7  A    between atoms: C_25  and  C_30
REMARK                            x       y       z     vdW  Elec       q    Type
REMARK                         _______ _______ _______ _____ _____    ______ ____
ROOT
ATOM      1  O   UNL     1     112.083 127.837 137.665  0.00  0.00    +0.000 OA
ENDROOT
BRANCH   1   6
ATOM      2  O   UNL     1     112.531 126.249 136.237  0.00  0.00    +0.000 OA
ATOM      3  O   UNL     1     111.473 126.524 138.458  0.00  0.00    +0.000 OA
ATOM      4  O   UNL     1     111.202 125.109 138.535  0.00  0.00    +0.000 OA
ATOM      5  O   UNL     1     112.016 123.384 136.325  0.00  0.00    +0.000 OA
ATOM      6  C   UNL     1     112.131 127.089 137.321  0.00  0.00    +0.000 A 
ATOM      7  C   UNL     1     112.484 126.998 136.581  0.00  0.00    +0.000 A 
ATOM      8  C   UNL     1     111.826 126.433 137.717  0.00  0.00    +0.000 A 
ATOM      9  C   UNL     1     111.874 125.685 137.373  0.00  0.00    +0.000 A 
ATOM     10  C   UNL     1     112.226 125.592 136.633  0.00  0.00    +0.000 A 
ATOM     11  C   UNL     1     111.553 125.008 137.795  0.00  0.00    +0.000 A 
ATOM     12  C   UNL     1     112.283 124.819 136.263  0.00  0.00    +0.000 A 
ATOM     13  C   UNL     1     111.600 124.227 137.442  0.00  0.00    +0.000 A 
ATOM     14  C   UNL     1     111.967 124.131 136.671  0.00  0.00    +0.000 A 
BRANCH   7  17
ATOM     15  O   UNL     1     112.203 129.053 134.615  0.00  0.00    +0.000 OA
ATOM     16  O   UNL     1     113.703 129.623 134.997  0.00  0.00    +0.000 OA
ATOM     17  C   UNL     1     112.788 127.654 136.185  0.00  0.00    +0.000 A 
ATOM     18  C   UNL     1     112.343 128.025 135.598  0.00  0.00    +0.000 A 
ATOM     19  C   UNL     1     113.538 127.939 136.376  0.00  0.00    +0.000 A 
ATOM     20  C   UNL     1     112.648 128.681 135.202  0.00  0.00    +0.000 A 
ATOM     21  C   UNL     1     113.844 128.596 135.980  0.00  0.00    +0.000 A 
ATOM     22  C   UNL     1     113.398 128.966 135.393  0.00  0.00    +0.000 A 
ENDBRANCH   7  17
ENDBRANCH   1   6
BRANCH   1  30
ATOM     23  O   UNL     1     110.687 127.999 137.405  0.00  0.00    +0.000 OA
ATOM     24  O   UNL     1     110.466 129.381 139.446  0.00  0.00    +0.000 OA
ATOM     25  O   UNL     1     109.145 129.083 138.505  0.00  0.00    +0.000 OA
ATOM     26  C   UNL     1     110.540 128.921 138.766  0.00  0.00    +0.000 C 
ATOM     27  C   UNL     1     109.880 128.772 138.295  0.00  0.00    +0.000 C 
ATOM     28  C   UNL     1     111.275 128.609 138.556  0.00  0.00    +0.000 C 
ATOM     29  C   UNL     1     109.953 128.311 137.615  0.00  0.00    +0.000 C 
ATOM     30  C   UNL     1     111.349 128.149 137.876  0.00  0.00    +0.000 C 
BRANCH  29  32
ATOM     31  O   UNL     1     109.250 128.477 136.382  0.00  0.00    +0.000 OA
ATOM     32  C   UNL     1     109.293 128.162 137.144  0.00  0.00    +0.000 C 
ENDBRANCH  29  32
BRANCH  28  33
ATOM     33  O   UNL     1     111.936 128.758 139.026  0.00  0.00    +0.000 OA
BRANCH  33  35
ATOM     34  O   UNL     1     111.903 130.134 138.642  0.00  0.00    +0.000 OA
ATOM     35  C   UNL     1     112.269 129.513 139.042  0.00  0.00    +0.000 C 
BRANCH  35  39
ATOM     36  O   UNL     1     114.108 128.763 141.097  0.00  0.00    +0.000 OA
ATOM     37  O   UNL     1     114.631 131.061 139.481  0.00  0.00    +0.000 OA
ATOM     38  O   UNL     1     115.070 130.045 140.705  0.00  0.00    +0.000 OA
ATOM     39  C   UNL     1     112.970 129.646 139.458  0.00  0.00    +0.000 A 
ATOM     40  C   UNL     1     113.451 130.287 139.262  0.00  0.00    +0.000 A 
ATOM     41  C   UNL     1     113.189 129.138 140.070  0.00  0.00    +0.000 A 
ATOM     42  C   UNL     1     113.889 129.271 140.486  0.00  0.00    +0.000 A 
ATOM     43  C   UNL     1     114.150 130.420 139.677  0.00  0.00    +0.000 A 
ATOM     44  C   UNL     1     114.370 129.912 140.289  0.00  0.00    +0.000 A 
ENDBRANCH  35  39
ENDBRANCH  33  35
ENDBRANCH  28  33
ENDBRANCH   1  30
TORSDOF 7
ENDMDL
MODEL 4
REMARK VINA RESULT:     -10.0      1.703      4.390
REMARK  Name = 13889202
REMARK  7 active torsions:
REMARK  status: ('A' for Active; 'I' for Inactive)
REMARK    1  A    between atoms: O_2  and  C_19
REMARK    2  A    between atoms: O_2  and  C_24
REMARK    3  A    between atoms: O_3  and  C_21
REMARK    4  A    between atoms: O_3  and  C_23
REMARK    5  A    between atoms: C_20  and  C_22
REMARK    6  A    between atoms: C_24  and  C_27
REMARK    7  A    between atoms: C_25  and  C_30
REMARK                            x       y       z     vdW  Elec       q    Type
REMARK                         _______ _______ _______ _____ _____    ______ ____
ROOT
ATOM      1  O   UNL     1     112.188 126.914 137.276  0.00  0.00    +0.000 OA
ENDROOT
BRANCH   1   6
ATOM      2  O   UNL     1     113.977 127.473 136.158  0.00  0.00    +0.000 OA
ATOM      3  O   UNL     1     111.798 128.448 136.811  0.00  0.00    +0.000 OA
ATOM      4  O   UNL     1     112.113 129.681 136.130  0.00  0.00    +0.000 OA
ATOM      5  O   UNL     1     114.681 129.930 134.763  0.00  0.00    +0.000 OA
ATOM      6  C   UNL     1     112.719 127.356 136.826  0.00  0.00    +0.000 A 
ATOM      7  C   UNL     1     113.446 127.031 136.608  0.00  0.00    +0.000 A 
ATOM      8  C   UNL     1     112.524 128.123 136.594  0.00  0.00    +0.000 A 
ATOM      9  C   UNL     1     113.056 128.565 136.144  0.00  0.00    +0.000 A 
ATOM     10  C   UNL     1     113.782 128.241 135.926  0.00  0.00    +0.000 A 
ATOM     11  C   UNL     1     112.842 129.364 135.908  0.00  0.00    +0.000 A 
ATOM     12  C   UNL     1     114.345 128.691 135.457  0.00  0.00    +0.000 A 
ATOM     13  C   UNL     1     113.391 129.829 135.439  0.00  0.00    +0.000 A 
ATOM     14  C   UNL     1     114.147 129.490 135.213  0.00  0.00    +0.000 A 
BRANCH   7  17
ATOM     15  O   UNL     1     113.621 124.238 136.028  0.00  0.00    +0.000 OA
ATOM     16  O   UNL     1     114.226 123.962 137.538  0.00  0.00    +0.000 OA
ATOM     17  C   UNL     1     113.641 126.264 136.841  0.00  0.00    +0.000 A 
ATOM     18  C   UNL     1     113.533 125.634 136.318  0.00  0.00    +0.000 A 
ATOM     19  C   UNL     1     113.943 126.126 137.595  0.00  0.00    +0.000 A 
ATOM     20  C   UNL     1     113.728 124.867 136.550  0.00  0.00    +0.000 A 
ATOM     21  C   UNL     1     114.139 125.358 137.828  0.00  0.00    +0.000 A 
ATOM     22  C   UNL     1     114.031 124.730 137.305  0.00  0.00    +0.000 A 
ENDBRANCH   7  17
ENDBRANCH   1   6
BRANCH   1  30
ATOM     23  O   UNL     1     111.292 126.642 136.196  0.00  0.00    +0.000 OA
ATOM     24  O   UNL     1     109.384 126.669 137.772  0.00  0.00    +0.000 OA
ATOM     25  O   UNL     1     109.125 126.389 136.168  0.00  0.00    +0.000 OA
ATOM     26  C   UNL     1     110.020 126.660 137.247  0.00  0.00    +0.000 C 
ATOM     27  C   UNL     1     109.890 126.520 136.445  0.00  0.00    +0.000 C 
ATOM     28  C   UNL     1     110.786 126.792 137.525  0.00  0.00    +0.000 C 
ATOM     29  C   UNL     1     110.526 126.511 135.920  0.00  0.00    +0.000 C 
ATOM     30  C   UNL     1     111.422 126.783 136.999  0.00  0.00    +0.000 C 
BRANCH  29  32
ATOM     31  O   UNL     1     110.696 125.687 134.765  0.00  0.00    +0.000 OA
ATOM     32  C   UNL     1     110.397 126.371 135.117  0.00  0.00    +0.000 C 
ENDBRANCH  29  32
BRANCH  28  33
ATOM     33  O   UNL     1     110.916 126.932 138.327  0.00  0.00    +0.000 OA
BRANCH  33  35
ATOM     34  O   UNL     1     110.709 125.546 138.607  0.00  0.00    +0.000 OA
ATOM     35  C   UNL     1     110.838 126.316 138.871  0.00  0.00    +0.000 C 
BRANCH  35  39
ATOM     36  O   UNL     1     112.412 126.886 141.187  0.00  0.00    +0.000 OA
ATOM     37  O   UNL     1     109.570 126.679 141.406  0.00  0.00    +0.000 OA
ATOM     38  O   UNL     1     111.042 126.937 142.105  0.00  0.00    +0.000 OA
ATOM     39  C   UNL     1     110.888 126.472 139.680  0.00  0.00    +0.000 A 
ATOM     40  C   UNL     1     110.203 126.498 140.139  0.00  0.00    +0.000 A 
ATOM     41  C   UNL     1     111.625 126.601 140.029  0.00  0.00    +0.000 A 
ATOM     42  C   UNL     1     111.675 126.756 140.838  0.00  0.00    +0.000 A 
ATOM     43  C   UNL     1     110.255 126.653 140.947  0.00  0.00    +0.000 A 
ATOM     44  C   UNL     1     110.990 126.782 141.297  0.00  0.00    +0.000 A 
ENDBRANCH  35  39
ENDBRANCH  33  35
ENDBRANCH  28  33
ENDBRANCH   1  30
TORSDOF 7
ENDMDL
MODEL 5
REMARK VINA RESULT:      -9.9      2.739      4.192
REMARK  Name = 13889202
REMARK  7 active torsions:
REMARK  status: ('A' for Active; 'I' for Inactive)
REMARK    1  A    between atoms: O_2  and  C_19
REMARK    2  A    between atoms: O_2  and  C_24
REMARK    3  A    between atoms: O_3  and  C_21
REMARK    4  A    between atoms: O_3  and  C_23
REMARK    5  A    between atoms: C_20  and  C_22
REMARK    6  A    between atoms: C_24  and  C_27
REMARK    7  A    between atoms: C_25  and  C_30
REMARK                            x       y       z     vdW  Elec       q    Type
REMARK                         _______ _______ _______ _____ _____    ______ ____
ROOT
ATOM      1  O   UNL     1     110.212 129.815 138.080  0.00  0.00    +0.000 OA
ENDROOT
BRANCH   1   6
ATOM      2  O   UNL     1     111.622 128.152 137.969  0.00  0.00    +0.000 OA
ATOM      3  O   UNL     1     109.256 128.563 138.572  0.00  0.00    +0.000 OA
ATOM      4  O   UNL     1     109.060 127.165 138.874  0.00  0.00    +0.000 OA
ATOM      5  O   UNL     1     111.300 125.319 138.559  0.00  0.00    +0.000 OA
ATOM      6  C   UNL     1     110.522 129.052 138.125  0.00  0.00    +0.000 A 
ATOM      7  C   UNL     1     111.311 128.915 137.924  0.00  0.00    +0.000 A 
ATOM      8  C   UNL     1     110.045 128.426 138.371  0.00  0.00    +0.000 A 
ATOM      9  C   UNL     1     110.356 127.663 138.417  0.00  0.00    +0.000 A 
ATOM     10  C   UNL     1     111.144 127.526 138.216  0.00  0.00    +0.000 A 
ATOM     11  C   UNL     1     109.848 127.019 138.675  0.00  0.00    +0.000 A 
ATOM     12  C   UNL     1     111.480 126.736 138.259  0.00  0.00    +0.000 A 
ATOM     13  C   UNL     1     110.166 126.223 138.724  0.00  0.00    +0.000 A 
ATOM     14  C   UNL     1     110.987 126.080 138.514  0.00  0.00    +0.000 A 
BRANCH   7  17
ATOM     15  O   UNL     1     113.299 130.887 138.498  0.00  0.00    +0.000 OA
ATOM     16  O   UNL     1     113.222 131.419 136.938  0.00  0.00    +0.000 OA
ATOM     17  C   UNL     1     111.788 129.541 137.678  0.00  0.00    +0.000 A 
ATOM     18  C   UNL     1     112.305 129.901 138.211  0.00  0.00    +0.000 A 
ATOM     19  C   UNL     1     111.750 129.807 136.898  0.00  0.00    +0.000 A 
ATOM     20  C   UNL     1     112.782 130.526 137.965  0.00  0.00    +0.000 A 
ATOM     21  C   UNL     1     112.228 130.433 136.651  0.00  0.00    +0.000 A 
ATOM     22  C   UNL     1     112.744 130.792 137.185  0.00  0.00    +0.000 A 
ENDBRANCH   7  17
ENDBRANCH   1   6
BRANCH   1  30
ATOM     23  O   UNL     1     110.215 130.033 139.492  0.00  0.00    +0.000 OA
ATOM     24  O   UNL     1     108.223 131.486 139.272  0.00  0.00    +0.000 OA
ATOM     25  O   UNL     1     108.891 131.220 140.756  0.00  0.00    +0.000 OA
ATOM     26  C   UNL     1     108.887 131.002 139.345  0.00  0.00    +0.000 C 
ATOM     27  C   UNL     1     109.220 130.869 140.087  0.00  0.00    +0.000 C 
ATOM     28  C   UNL     1     109.217 130.650 138.675  0.00  0.00    +0.000 C 
ATOM     29  C   UNL     1     109.884 130.385 140.161  0.00  0.00    +0.000 C 
ATOM     30  C   UNL     1     109.881 130.166 138.749  0.00  0.00    +0.000 C 
BRANCH  29  32
ATOM     31  O   UNL     1     110.995 130.489 141.054  0.00  0.00    +0.000 OA
ATOM     32  C   UNL     1     110.218 130.252 140.903  0.00  0.00    +0.000 C 
ENDBRANCH  29  32
BRANCH  28  33
ATOM     33  O   UNL     1     108.884 130.783 137.933  0.00  0.00    +0.000 OA
BRANCH  33  35
ATOM     34  O   UNL     1     109.331 132.140 137.974  0.00  0.00    +0.000 OA
ATOM     35  C   UNL     1     108.940 131.528 137.583  0.00  0.00    +0.000 C 
BRANCH  35  39
ATOM     36  O   UNL     1     109.153 132.532 134.916  0.00  0.00    +0.000 OA
ATOM     37  O   UNL     1     106.717 131.325 135.798  0.00  0.00    +0.000 OA
ATOM     38  O   UNL     1     107.600 132.062 134.615  0.00  0.00    +0.000 OA
ATOM     39  C   UNL     1     108.605 131.662 136.840  0.00  0.00    +0.000 A 
ATOM     40  C   UNL     1     107.828 131.427 136.690  0.00  0.00    +0.000 A 
ATOM     41  C   UNL     1     109.047 132.030 136.249  0.00  0.00    +0.000 A 
ATOM     42  C   UNL     1     108.711 132.164 135.507  0.00  0.00    +0.000 A 
ATOM     43  C   UNL     1     107.494 131.560 135.948  0.00  0.00    +0.000 A 
ATOM     44  C   UNL     1     107.935 131.929 135.356  0.00  0.00    +0.000 A 
ENDBRANCH  35  39
ENDBRANCH  33  35
ENDBRANCH  28  33
ENDBRANCH   1  30
TORSDOF 7
ENDMDL
MODEL 6
REMARK VINA RESULT:      -9.9      0.987      2.878
REMARK  Name = 13889202
REMARK  7 active torsions:
REMARK  status: ('A' for Active; 'I' for Inactive)
REMARK    1  A    between atoms: O_2  and  C_19
REMARK    2  A    between atoms: O_2  and  C_24
REMARK    3  A    between atoms: O_3  and  C_21
REMARK    4  A    between atoms: O_3  and  C_23
REMARK    5  A    between atoms: C_20  and  C_22
REMARK    6  A    between atoms: C_24  and  C_27
REMARK    7  A    between atoms: C_25  and  C_30
REMARK                            x       y       z     vdW  Elec       q    Type
REMARK                         _______ _______ _______ _____ _____    ______ ____
ROOT
ATOM      1  O   UNL     1     112.100 127.730 137.084  0.00  0.00    +0.000 OA
ENDROOT
BRANCH   1   6
ATOM      2  O   UNL     1     112.772 126.451 138.720  0.00  0.00    +0.000 OA
ATOM      3  O   UNL     1     112.751 128.849 138.106  0.00  0.00    +0.000 OA
ATOM      4  O   UNL     1     113.416 129.200 139.338  0.00  0.00    +0.000 OA
ATOM      5  O   UNL     1     114.114 127.084 141.226  0.00  0.00    +0.000 OA
ATOM      6  C   UNL     1     112.432 127.491 137.800  0.00  0.00    +0.000 A 
ATOM      7  C   UNL     1     112.439 126.691 138.004  0.00  0.00    +0.000 A 
ATOM      8  C   UNL     1     112.758 128.050 138.311  0.00  0.00    +0.000 A 
ATOM      9  C   UNL     1     113.091 127.810 139.026  0.00  0.00    +0.000 A 
ATOM     10  C   UNL     1     113.098 127.011 139.232  0.00  0.00    +0.000 A 
ATOM     11  C   UNL     1     113.427 128.403 139.551  0.00  0.00    +0.000 A 
ATOM     12  C   UNL     1     113.441 126.749 139.974  0.00  0.00    +0.000 A 
ATOM     13  C   UNL     1     113.775 128.159 140.298  0.00  0.00    +0.000 A 
ATOM     14  C   UNL     1     113.782 127.327 140.510  0.00  0.00    +0.000 A 
BRANCH   7  17
ATOM     15  O   UNL     1     112.772 124.644 136.037  0.00  0.00    +0.000 OA
ATOM     16  O   UNL     1     111.135 124.452 135.960  0.00  0.00    +0.000 OA
ATOM     17  C   UNL     1     112.114 126.132 137.493  0.00  0.00    +0.000 A 
ATOM     18  C   UNL     1     112.606 125.668 137.021  0.00  0.00    +0.000 A 
ATOM     19  C   UNL     1     111.295 126.036 137.455  0.00  0.00    +0.000 A 
ATOM     20  C   UNL     1     112.280 125.108 136.510  0.00  0.00    +0.000 A 
ATOM     21  C   UNL     1     110.969 125.476 136.943  0.00  0.00    +0.000 A 
ATOM     22  C   UNL     1     111.462 125.012 136.471  0.00  0.00    +0.000 A 
ENDBRANCH   7  17
ENDBRANCH   1   6
BRANCH   1  30
ATOM     23  O   UNL     1     113.348 127.953 136.426  0.00  0.00    +0.000 OA
ATOM     24  O   UNL     1     112.331 129.791 135.117  0.00  0.00    +0.000 OA
ATOM     25  O   UNL     1     113.918 129.401 134.896  0.00  0.00    +0.000 OA
ATOM     26  C   UNL     1     112.670 129.178 135.554  0.00  0.00    +0.000 C 
ATOM     27  C   UNL     1     113.463 128.983 135.442  0.00  0.00    +0.000 C 
ATOM     28  C   UNL     1     112.215 128.761 136.101  0.00  0.00    +0.000 C 
ATOM     29  C   UNL     1     113.802 128.371 135.879  0.00  0.00    +0.000 C 
ATOM     30  C   UNL     1     112.554 128.148 136.537  0.00  0.00    +0.000 C 
BRANCH  29  32
ATOM     31  O   UNL     1     114.804 127.410 135.537  0.00  0.00    +0.000 OA
ATOM     32  C   UNL     1     114.596 128.175 135.768  0.00  0.00    +0.000 C 
ENDBRANCH  29  32
BRANCH  28  33
ATOM     33  O   UNL     1     111.421 128.956 136.212  0.00  0.00    +0.000 OA
BRANCH  33  35
ATOM     34  O   UNL     1     111.108 128.417 134.926  0.00  0.00    +0.000 OA
ATOM     35  C   UNL     1     110.871 128.797 135.618  0.00  0.00    +0.000 C 
BRANCH  35  39
ATOM     36  O   UNL     1     108.908 130.829 136.054  0.00  0.00    +0.000 OA
ATOM     37  O   UNL     1     108.103 128.101 135.772  0.00  0.00    +0.000 OA
ATOM     38  O   UNL     1     107.717 129.687 136.011  0.00  0.00    +0.000 OA
ATOM     39  C   UNL     1     110.082 129.020 135.716  0.00  0.00    +0.000 A 
ATOM     40  C   UNL     1     109.486 128.449 135.695  0.00  0.00    +0.000 A 
ATOM     41  C   UNL     1     109.889 129.813 135.836  0.00  0.00    +0.000 A 
ATOM     42  C   UNL     1     109.100 130.035 135.934  0.00  0.00    +0.000 A 
ATOM     43  C   UNL     1     108.699 128.672 135.793  0.00  0.00    +0.000 A 
ATOM     44  C   UNL     1     108.505 129.465 135.913  0.00  0.00    +0.000 A 
ENDBRANCH  35  39
ENDBRANCH  33  35
ENDBRANCH  28  33
ENDBRANCH   1  30
TORSDOF 7
ENDMDL
MODEL 7
REMARK VINA RESULT:      -9.9      2.180      4.830
REMARK  Name = 13889202
REMARK  7 active torsions:
REMARK  status: ('A' for Active; 'I' for Inactive)
REMARK    1  A    between atoms: O_2  and  C_19
REMARK    2  A    between atoms: O_2  and  C_24
REMARK    3  A    between atoms: O_3  and  C_21
REMARK    4  A    between atoms: O_3  and  C_23
REMARK    5  A    between atoms: C_20  and  C_22
REMARK    6  A    between atoms: C_24  and  C_27
REMARK    7  A    between atoms: C_25  and  C_30
REMARK                            x       y       z     vdW  Elec       q    Type
REMARK                         _______ _______ _______ _____ _____    ______ ____
ROOT
ATOM      1  O   UNL     1     112.619 129.275 137.935  0.00  0.00    +0.000 OA
ENDROOT
BRANCH   1   6
ATOM      2  O   UNL     1     112.105 131.089 136.834  0.00  0.00    +0.000 OA
ATOM      3  O   UNL     1     111.435 129.900 138.900  0.00  0.00    +0.000 OA
ATOM      4  O   UNL     1     110.458 130.918 139.203  0.00  0.00    +0.000 OA
ATOM      5  O   UNL     1     110.154 133.180 137.382  0.00  0.00    +0.000 OA
ATOM      6  C   UNL     1     112.250 129.984 137.729  0.00  0.00    +0.000 A 
ATOM      7  C   UNL     1     112.474 130.380 137.040  0.00  0.00    +0.000 A 
ATOM      8  C   UNL     1     111.659 130.296 138.211  0.00  0.00    +0.000 A 
ATOM      9  C   UNL     1     111.290 131.005 138.005  0.00  0.00    +0.000 A 
ATOM     10  C   UNL     1     111.513 131.402 137.317  0.00  0.00    +0.000 A 
ATOM     11  C   UNL     1     110.675 131.321 138.516  0.00  0.00    +0.000 A 
ATOM     12  C   UNL     1     111.137 132.140 137.091  0.00  0.00    +0.000 A 
ATOM     13  C   UNL     1     110.288 132.059 138.307  0.00  0.00    +0.000 A 
ATOM     14  C   UNL     1     110.521 132.471 137.590  0.00  0.00    +0.000 A 
BRANCH   7  17
ATOM     15  O   UNL     1     115.187 130.368 136.142  0.00  0.00    +0.000 OA
ATOM     16  O   UNL     1     114.840 129.129 135.109  0.00  0.00    +0.000 OA
ATOM     17  C   UNL     1     113.065 130.067 136.558  0.00  0.00    +0.000 A 
ATOM     18  C   UNL     1     113.830 130.374 136.591  0.00  0.00    +0.000 A 
ATOM     19  C   UNL     1     112.891 129.448 136.041  0.00  0.00    +0.000 A 
ATOM     20  C   UNL     1     114.422 130.062 136.109  0.00  0.00    +0.000 A 
ATOM     21  C   UNL     1     113.483 129.135 135.558  0.00  0.00    +0.000 A 
ATOM     22  C   UNL     1     114.248 129.442 135.592  0.00  0.00    +0.000 A 
ENDBRANCH   7  17
ENDBRANCH   1   6
BRANCH   1  30
ATOM     23  O   UNL     1     113.413 129.843 138.978  0.00  0.00    +0.000 OA
ATOM     24  O   UNL     1     113.300 127.709 140.226  0.00  0.00    +0.000 OA
ATOM     25  O   UNL     1     114.132 128.988 140.852  0.00  0.00    +0.000 OA
ATOM     26  C   UNL     1     113.338 128.420 139.810  0.00  0.00    +0.000 C 
ATOM     27  C   UNL     1     113.754 129.059 140.123  0.00  0.00    +0.000 C 
ATOM     28  C   UNL     1     112.959 128.491 139.080  0.00  0.00    +0.000 C 
ATOM     29  C   UNL     1     113.791 129.771 139.707  0.00  0.00    +0.000 C 
ATOM     30  C   UNL     1     112.997 129.203 138.664  0.00  0.00    +0.000 C 
BRANCH  29  32
ATOM     31  O   UNL     1     114.846 130.729 139.605  0.00  0.00    +0.000 OA
ATOM     32  C   UNL     1     114.207 130.411 140.020  0.00  0.00    +0.000 C 
ENDBRANCH  29  32
BRANCH  28  33
ATOM     33  O   UNL     1     112.543 127.852 138.767  0.00  0.00    +0.000 OA
BRANCH  33  35
ATOM     34  O   UNL     1     113.774 127.160 138.545  0.00  0.00    +0.000 OA
ATOM     35  C   UNL     1     112.950 127.186 138.500  0.00  0.00    +0.000 C 
BRANCH  35  39
ATOM     36  O   UNL     1     112.473 125.347 136.365  0.00  0.00    +0.000 OA
ATOM     37  O   UNL     1     110.932 125.181 138.766  0.00  0.00    +0.000 OA
ATOM     38  O   UNL     1     111.286 124.623 137.254  0.00  0.00    +0.000 OA
ATOM     39  C   UNL     1     112.534 126.545 138.189  0.00  0.00    +0.000 A 
ATOM     40  C   UNL     1     111.941 126.183 138.633  0.00  0.00    +0.000 A 
ATOM     41  C   UNL     1     112.712 126.267 137.433  0.00  0.00    +0.000 A 
ATOM     42  C   UNL     1     112.295 125.625 137.121  0.00  0.00    +0.000 A 
ATOM     43  C   UNL     1     111.525 125.543 138.322  0.00  0.00    +0.000 A 
ATOM     44  C   UNL     1     111.702 125.263 137.566  0.00  0.00    +0.000 A 
ENDBRANCH  35  39
ENDBRANCH  33  35
ENDBRANCH  28  33
ENDBRANCH   1  30
TORSDOF 7
ENDMDL
MODEL 8
REMARK VINA RESULT:      -9.8      1.966      4.875
REMARK  Name = 13889202
REMARK  7 active torsions:
REMARK  status: ('A' for Active; 'I' for Inactive)
REMARK    1  A    between atoms: O_2  and  C_19
REMARK    2  A    between atoms: O_2  and  C_24
REMARK    3  A    between atoms: O_3  and  C_21
REMARK    4  A    between atoms: O_3  and  C_23
REMARK    5  A    between atoms: C_20  and  C_22
REMARK    6  A    between atoms: C_24  and  C_27
REMARK    7  A    between atoms: C_25  and  C_30
REMARK                            x       y       z     vdW  Elec       q    Type
REMARK                         _______ _______ _______ _____ _____    ______ ____
ROOT
ATOM      1  O   UNL     1     112.308 129.197 137.930  0.00  0.00    +0.000 OA
ENDROOT
BRANCH   1   6
ATOM      2  O   UNL     1     111.426 130.060 136.130  0.00  0.00    +0.000 OA
ATOM      3  O   UNL     1     110.711 128.857 138.172  0.00  0.00    +0.000 OA
ATOM      4  O   UNL     1     109.331 128.906 137.752  0.00  0.00    +0.000 OA
ATOM      5  O   UNL     1     108.663 130.195 135.219  0.00  0.00    +0.000 OA
ATOM      6  C   UNL     1     111.747 129.428 137.370  0.00  0.00    +0.000 A 
ATOM      7  C   UNL     1     111.986 129.829 136.689  0.00  0.00    +0.000 A 
ATOM      8  C   UNL     1     110.950 129.258 137.491  0.00  0.00    +0.000 A 
ATOM      9  C   UNL     1     110.389 129.489 136.931  0.00  0.00    +0.000 A 
ATOM     10  C   UNL     1     110.627 129.890 136.251  0.00  0.00    +0.000 A 
ATOM     11  C   UNL     1     109.560 129.307 137.068  0.00  0.00    +0.000 A 
ATOM     12  C   UNL     1     110.054 130.136 135.660  0.00  0.00    +0.000 A 
ATOM     13  C   UNL     1     108.973 129.545 136.489  0.00  0.00    +0.000 A 
ATOM     14  C   UNL     1     109.221 129.963 135.781  0.00  0.00    +0.000 A 
BRANCH   7  17
ATOM     15  O   UNL     1     114.493 129.199 135.471  0.00  0.00    +0.000 OA
ATOM     16  O   UNL     1     115.179 130.508 136.205  0.00  0.00    +0.000 OA
ATOM     17  C   UNL     1     112.784 129.998 136.568  0.00  0.00    +0.000 A 
ATOM     18  C   UNL     1     113.240 129.514 136.080  0.00  0.00    +0.000 A 
ATOM     19  C   UNL     1     113.126 130.653 136.935  0.00  0.00    +0.000 A 
ATOM     20  C   UNL     1     114.037 129.683 135.959  0.00  0.00    +0.000 A 
ATOM     21  C   UNL     1     113.925 130.823 136.814  0.00  0.00    +0.000 A 
ATOM     22  C   UNL     1     114.380 130.338 136.326  0.00  0.00    +0.000 A 
ENDBRANCH   7  17
ENDBRANCH   1   6
BRANCH   1  30
ATOM     23  O   UNL     1     112.261 127.812 137.579  0.00  0.00    +0.000 OA
ATOM     24  O   UNL     1     112.794 127.202 139.918  0.00  0.00    +0.000 OA
ATOM     25  O   UNL     1     112.570 126.022 138.788  0.00  0.00    +0.000 OA
ATOM     26  C   UNL     1     112.616 127.405 139.139  0.00  0.00    +0.000 C 
ATOM     27  C   UNL     1     112.504 126.815 138.574  0.00  0.00    +0.000 C 
ATOM     28  C   UNL     1     112.551 128.200 138.925  0.00  0.00    +0.000 C 
ATOM     29  C   UNL     1     112.327 127.018 137.795  0.00  0.00    +0.000 C 
ATOM     30  C   UNL     1     112.373 128.403 138.145  0.00  0.00    +0.000 C 
BRANCH  29  32
ATOM     31  O   UNL     1     112.716 126.385 136.574  0.00  0.00    +0.000 OA
ATOM     32  C   UNL     1     112.215 126.428 137.229  0.00  0.00    +0.000 C 
ENDBRANCH  29  32
BRANCH  28  33
ATOM     33  O   UNL     1     112.663 128.790 139.489  0.00  0.00    +0.000 OA
BRANCH  33  35
ATOM     34  O   UNL     1     114.046 128.442 139.581  0.00  0.00    +0.000 OA
ATOM     35  C   UNL     1     113.415 128.927 139.800  0.00  0.00    +0.000 C 
BRANCH  35  39
ATOM     36  O   UNL     1     114.865 131.260 140.587  0.00  0.00    +0.000 OA
ATOM     37  O   UNL     1     112.693 130.319 142.189  0.00  0.00    +0.000 OA
ATOM     38  O   UNL     1     113.901 131.411 141.917  0.00  0.00    +0.000 OA
ATOM     39  C   UNL     1     113.536 129.548 140.329  0.00  0.00    +0.000 A 
ATOM     40  C   UNL     1     113.054 129.623 140.995  0.00  0.00    +0.000 A 
ATOM     41  C   UNL     1     114.140 130.093 140.193  0.00  0.00    +0.000 A 
ATOM     42  C   UNL     1     114.261 130.715 140.723  0.00  0.00    +0.000 A 
ATOM     43  C   UNL     1     113.175 130.244 141.523  0.00  0.00    +0.000 A 
ATOM     44  C   UNL     1     113.779 130.790 141.388  0.00  0.00    +0.000 A 
ENDBRANCH  35  39
ENDBRANCH  33  35
ENDBRANCH  28  33
ENDBRANCH   1  30
TORSDOF 7
ENDMDL
MODEL 9
REMARK VINA RESULT:      -9.8      1.553      4.651
REMARK  Name = 13889202
REMARK  7 active torsions:
REMARK  status: ('A' for Active; 'I' for Inactive)
REMARK    1  A    between atoms: O_2  and  C_19
REMARK    2  A    between atoms: O_2  and  C_24
REMARK    3  A    between atoms: O_3  and  C_21
REMARK    4  A    between atoms: O_3  and  C_23
REMARK    5  A    between atoms: C_20  and  C_22
REMARK    6  A    between atoms: C_24  and  C_27
REMARK    7  A    between atoms: C_25  and  C_30
REMARK                            x       y       z     vdW  Elec       q    Type
REMARK                         _______ _______ _______ _____ _____    ______ ____
ROOT
ATOM      1  O   UNL     1     111.270 128.156 137.121  0.00  0.00    +0.000 OA
ENDROOT
BRANCH   1   6
ATOM      2  O   UNL     1     112.903 127.998 135.681  0.00  0.00    +0.000 OA
ATOM      3  O   UNL     1     112.050 129.588 137.376  0.00  0.00    +0.000 OA
ATOM      4  O   UNL     1     113.114 130.516 137.083  0.00  0.00    +0.000 OA
ATOM      5  O   UNL     1     115.079 129.824 135.037  0.00  0.00    +0.000 OA
ATOM      6  C   UNL     1     111.945 128.342 136.683  0.00  0.00    +0.000 A 
ATOM      7  C   UNL     1     112.229 127.812 136.119  0.00  0.00    +0.000 A 
ATOM      8  C   UNL     1     112.334 129.057 136.811  0.00  0.00    +0.000 A 
ATOM      9  C   UNL     1     113.009 129.244 136.374  0.00  0.00    +0.000 A 
ATOM     10  C   UNL     1     113.294 128.714 135.809  0.00  0.00    +0.000 A 
ATOM     11  C   UNL     1     113.406 129.993 136.516  0.00  0.00    +0.000 A 
ATOM     12  C   UNL     1     113.995 128.896 135.347  0.00  0.00    +0.000 A 
ATOM     13  C   UNL     1     114.109 130.192 136.064  0.00  0.00    +0.000 A 
ATOM     14  C   UNL     1     114.405 129.640 135.476  0.00  0.00    +0.000 A 
BRANCH   7  17
ATOM     15  O   UNL     1     110.383 126.233 134.613  0.00  0.00    +0.000 OA
ATOM     16  O   UNL     1     110.670 124.948 135.607  0.00  0.00    +0.000 OA
ATOM     17  C   UNL     1     111.839 127.097 135.991  0.00  0.00    +0.000 A 
ATOM     18  C   UNL     1     111.306 127.022 135.366  0.00  0.00    +0.000 A 
ATOM     19  C   UNL     1     111.983 126.454 136.488  0.00  0.00    +0.000 A 
ATOM     20  C   UNL     1     110.917 126.307 135.238  0.00  0.00    +0.000 A 
ATOM     21  C   UNL     1     111.593 125.738 136.361  0.00  0.00    +0.000 A 
ATOM     22  C   UNL     1     111.060 125.665 135.735  0.00  0.00    +0.000 A 
ENDBRANCH   7  17
ENDBRANCH   1   6
BRANCH   1  30
ATOM     23  O   UNL     1     110.416 129.066 136.425  0.00  0.00    +0.000 OA
ATOM     24  O   UNL     1     109.088 129.397 138.487  0.00  0.00    +0.000 OA
ATOM     25  O   UNL     1     108.678 130.196 137.104  0.00  0.00    +0.000 OA
ATOM     26  C   UNL     1     109.531 129.287 137.799  0.00  0.00    +0.000 C 
ATOM     27  C   UNL     1     109.325 129.686 137.108  0.00  0.00    +0.000 C 
ATOM     28  C   UNL     1     110.179 128.776 137.804  0.00  0.00    +0.000 C 
ATOM     29  C   UNL     1     109.768 129.576 136.421  0.00  0.00    +0.000 C 
ATOM     30  C   UNL     1     110.622 128.666 137.117  0.00  0.00    +0.000 C 
BRANCH  29  32
ATOM     31  O   UNL     1     109.335 129.551 135.059  0.00  0.00    +0.000 OA
ATOM     32  C   UNL     1     109.563 129.976 135.729  0.00  0.00    +0.000 C 
ENDBRANCH  29  32
BRANCH  28  33
ATOM     33  O   UNL     1     110.385 128.376 138.495  0.00  0.00    +0.000 OA
BRANCH  33  35
ATOM     34  O   UNL     1     109.221 127.556 138.368  0.00  0.00    +0.000 OA
ATOM     35  C   UNL     1     109.917 127.753 138.766  0.00  0.00    +0.000 C 
BRANCH  35  39
ATOM     36  O   UNL     1     110.008 125.294 140.219  0.00  0.00    +0.000 OA
ATOM     37  O   UNL     1     111.186 127.652 141.324  0.00  0.00    +0.000 OA
ATOM     38  O   UNL     1     110.824 126.046 141.441  0.00  0.00    +0.000 OA
ATOM     39  C   UNL     1     110.144 127.326 139.435  0.00  0.00    +0.000 A 
ATOM     40  C   UNL     1     110.551 127.702 140.046  0.00  0.00    +0.000 A 
ATOM     41  C   UNL     1     109.962 126.523 139.493  0.00  0.00    +0.000 A 
ATOM     42  C   UNL     1     110.189 126.097 140.162  0.00  0.00    +0.000 A 
ATOM     43  C   UNL     1     110.778 127.276 140.714  0.00  0.00    +0.000 A 
ATOM     44  C   UNL     1     110.597 126.473 140.772  0.00  0.00    +0.000 A 
ENDBRANCH  35  39
ENDBRANCH  33  35
ENDBRANCH  28  33
ENDBRANCH   1  30
TORSDOF 7
ENDMDL
MODEL 10
REMARK VINA RESULT:      -9.7      2.095      4.839
REMARK  Name = 13889202
REMARK  7 active torsions:
REMARK  status: ('A' for Active; 'I' for Inactive)
REMARK    1  A    between atoms: O_2  and  C_19
REMARK    2  A    between atoms: O_2  and  C_24
REMARK    3  A    between atoms: O_3  and  C_21
REMARK    4  A    between atoms: O_3  and  C_23
REMARK    5  A    between atoms: C_20  and  C_22
REMARK    6  A    between atoms: C_24  and  C_27
REMARK    7  A    between atoms: C_25  and  C_30
REMARK                            x       y       z     vdW  Elec       q    Type
REMARK                         _______ _______ _______ _____ _____    ______ ____
ROOT
ATOM      1  O   UNL     1     112.676 128.252 138.950  0.00  0.00    +0.000 OA
ENDROOT
BRANCH   1   6
ATOM      2  O   UNL     1     113.332 129.112 140.846  0.00  0.00    +0.000 OA
ATOM      3  O   UNL     1     113.593 129.517 138.418  0.00  0.00    +0.000 OA
ATOM      4  O   UNL     1     114.433 130.662 138.670  0.00  0.00    +0.000 OA
ATOM      5  O   UNL     1     115.020 131.412 141.430  0.00  0.00    +0.000 OA
ATOM      6  C   UNL     1     113.048 128.750 139.493  0.00  0.00    +0.000 A 
ATOM      7  C   UNL     1     112.960 128.614 140.303  0.00  0.00    +0.000 A 
ATOM      8  C   UNL     1     113.506 129.382 139.227  0.00  0.00    +0.000 A 
ATOM      9  C   UNL     1     113.877 129.879 139.771  0.00  0.00    +0.000 A 
ATOM     10  C   UNL     1     113.790 129.745 140.580  0.00  0.00    +0.000 A 
ATOM     11  C   UNL     1     114.352 130.535 139.481  0.00  0.00    +0.000 A 
ATOM     12  C   UNL     1     114.172 130.256 141.156  0.00  0.00    +0.000 A 
ATOM     13  C   UNL     1     114.741 131.057 140.043  0.00  0.00    +0.000 A 
ATOM     14  C   UNL     1     114.650 130.916 140.885  0.00  0.00    +0.000 A 
BRANCH   7  17
ATOM     15  O   UNL     1     110.505 127.612 141.367  0.00  0.00    +0.000 OA
ATOM     16  O   UNL     1     111.128 126.084 141.367  0.00  0.00    +0.000 OA
ATOM     17  C   UNL     1     112.503 127.983 140.569  0.00  0.00    +0.000 A 
ATOM     18  C   UNL     1     111.733 128.113 140.835  0.00  0.00    +0.000 A 
ATOM     19  C   UNL     1     112.814 127.219 140.569  0.00  0.00    +0.000 A 
ATOM     20  C   UNL     1     111.275 127.481 141.101  0.00  0.00    +0.000 A 
ATOM     21  C   UNL     1     112.356 126.586 140.835  0.00  0.00    +0.000 A 
ATOM     22  C   UNL     1     111.587 126.718 141.101  0.00  0.00    +0.000 A 
ENDBRANCH   7  17
ENDBRANCH   1   6
BRANCH   1  30
ATOM     23  O   UNL     1     111.656 129.189 138.599  0.00  0.00    +0.000 OA
ATOM     24  O   UNL     1     111.594 128.260 136.305  0.00  0.00    +0.000 OA
ATOM     25  O   UNL     1     110.595 129.505 136.718  0.00  0.00    +0.000 OA
ATOM     26  C   UNL     1     111.614 128.570 137.070  0.00  0.00    +0.000 C 
ATOM     27  C   UNL     1     111.115 129.192 137.276  0.00  0.00    +0.000 C 
ATOM     28  C   UNL     1     112.135 128.256 137.627  0.00  0.00    +0.000 C 
ATOM     29  C   UNL     1     111.136 129.502 138.040  0.00  0.00    +0.000 C 
ATOM     30  C   UNL     1     112.156 128.565 138.392  0.00  0.00    +0.000 C 
BRANCH  29  32
ATOM     31  O   UNL     1     110.071 130.020 138.840  0.00  0.00    +0.000 OA
ATOM     32  C   UNL     1     110.636 130.125 138.247  0.00  0.00    +0.000 C 
ENDBRANCH  29  32
BRANCH  28  33
ATOM     33  O   UNL     1     112.635 127.633 137.421  0.00  0.00    +0.000 OA
BRANCH  33  35
ATOM     34  O   UNL     1     111.514 126.748 137.377  0.00  0.00    +0.000 OA
ATOM     35  C   UNL     1     112.325 126.877 137.305  0.00  0.00    +0.000 C 
BRANCH  35  39
ATOM     36  O   UNL     1     114.803 125.922 136.249  0.00  0.00    +0.000 OA
ATOM     37  O   UNL     1     112.860 124.071 137.233  0.00  0.00    +0.000 OA
ATOM     38  O   UNL     1     114.334 124.369 136.553  0.00  0.00    +0.000 OA
ATOM     39  C   UNL     1     112.828 126.249 137.117  0.00  0.00    +0.000 A 
ATOM     40  C   UNL     1     112.593 125.473 137.269  0.00  0.00    +0.000 A 
ATOM     41  C   UNL     1     113.564 126.399 136.777  0.00  0.00    +0.000 A 
ATOM     42  C   UNL     1     114.067 125.772 136.589  0.00  0.00    +0.000 A 
ATOM     43  C   UNL     1     113.095 124.847 137.081  0.00  0.00    +0.000 A 
ATOM     44  C   UNL     1     113.832 124.995 136.741  0.00  0.00    +0.000 A 
ENDBRANCH  35  39
ENDBRANCH  33  35
ENDBRANCH  28  33
ENDBRANCH   1  30
TORSDOF 7
ENDMDL
