MODEL 1
REMARK VINA RESULT:      -8.8      0.000      0.000
REMARK  Name = 131831813
REMARK  3 active torsions:
REMARK  status: ('A' for Active; 'I' for Inactive)
REMARK    1  A    between atoms: S_1  and  O_3
REMARK    2  A    between atoms: O_3  and  C_12
REMARK    3  A    between atoms: C_11  and  C_14
REMARK                            x       y       z     vdW  Elec       q    Type
REMARK                         _______ _______ _______ _____ _____    ______ ____
ROOT
ATOM      1  O   UNL     1     105.620 124.387 147.715  0.00  0.00    +0.000 OA
ATOM      2  O   UNL     1     107.025 125.577 146.061  0.00  0.00    +0.000 OA
ATOM      3  O   UNL     1     108.141 125.589 146.974  0.00  0.00    +0.000 OA
ATOM      4  O   UNL     1     107.829 124.374 149.612  0.00  0.00    +0.000 OA
ATOM      5  C   UNL     1     105.309 124.587 146.976  0.00  0.00    +0.000 C 
ATOM      6  C   UNL     1     105.777 124.983 146.425  0.00  0.00    +0.000 C 
ATOM      7  C   UNL     1     106.556 125.181 146.612  0.00  0.00    +0.000 C 
ATOM      8  C   UNL     1     106.867 124.982 147.349  0.00  0.00    +0.000 A 
ATOM      9  C   UNL     1     106.399 124.585 147.901  0.00  0.00    +0.000 A 
ATOM     10  C   UNL     1     107.680 125.193 147.532  0.00  0.00    +0.000 A 
ATOM     11  C   UNL     1     106.711 124.372 148.673  0.00  0.00    +0.000 A 
ATOM     12  C   UNL     1     108.009 124.988 148.299  0.00  0.00    +0.000 A 
ATOM     13  C   UNL     1     107.521 124.575 148.873  0.00  0.00    +0.000 A 
ENDROOT
BRANCH   5  15
ATOM     14  O   UNL     1     103.412 122.739 145.901  0.00  0.00    +0.000 OA
ATOM     15  C   UNL     1     104.530 124.389 146.790  0.00  0.00    +0.000 A 
ATOM     16  C   UNL     1     104.361 123.662 146.438  0.00  0.00    +0.000 A 
ATOM     17  C   UNL     1     103.919 124.919 146.957  0.00  0.00    +0.000 A 
ATOM     18  C   UNL     1     103.581 123.466 146.253  0.00  0.00    +0.000 A 
ATOM     19  C   UNL     1     103.140 124.722 146.771  0.00  0.00    +0.000 A 
ATOM     20  C   UNL     1     102.971 123.995 146.419  0.00  0.00    +0.000 A 
ENDBRANCH   5  15
BRANCH   6  21
ATOM     21  O   UNL     1     105.467 125.182 145.687  0.00  0.00    +0.000 OA
BRANCH  21  22
ATOM     22  S   UNL     1     105.973 125.368 145.063  0.00  0.00    +0.000 S 
ATOM     23  O   UNL     1     106.480 125.554 144.439  0.00  0.00    +0.000 OA
ATOM     24  O   UNL     1     106.139 124.567 144.959  0.00  0.00    +0.000 OA
ATOM     25  O   UNL     1     105.807 126.170 145.167  0.00  0.00    +0.000 OA
ENDBRANCH  21  22
ENDBRANCH   6  21
TORSDOF 3
ENDMDL
MODEL 2
REMARK VINA RESULT:      -8.7      7.209      8.343
REMARK  Name = 131831813
REMARK  3 active torsions:
REMARK  status: ('A' for Active; 'I' for Inactive)
REMARK    1  A    between atoms: S_1  and  O_3
REMARK    2  A    between atoms: O_3  and  C_12
REMARK    3  A    between atoms: C_11  and  C_14
REMARK                            x       y       z     vdW  Elec       q    Type
REMARK                         _______ _______ _______ _____ _____    ______ ____
ROOT
ATOM      1  O   UNL     1     103.292 130.259 142.364  0.00  0.00    +0.000 OA
ATOM      2  O   UNL     1     103.248 128.780 140.380  0.00  0.00    +0.000 OA
ATOM      3  O   UNL     1     104.242 127.915 140.967  0.00  0.00    +0.000 OA
ATOM      4  O   UNL     1     105.301 128.560 143.612  0.00  0.00    +0.000 OA
ATOM      5  C   UNL     1     102.792 130.433 141.730  0.00  0.00    +0.000 C 
ATOM      6  C   UNL     1     102.777 129.940 141.069  0.00  0.00    +0.000 C 
ATOM      7  C   UNL     1     103.263 129.273 141.041  0.00  0.00    +0.000 C 
ATOM      8  C   UNL     1     103.763 129.100 141.674  0.00  0.00    +0.000 A 
ATOM      9  C   UNL     1     103.777 129.593 142.335  0.00  0.00    +0.000 A 
ATOM     10  C   UNL     1     104.264 128.403 141.632  0.00  0.00    +0.000 A 
ATOM     11  C   UNL     1     104.294 129.423 143.000  0.00  0.00    +0.000 A 
ATOM     12  C   UNL     1     104.786 128.217 142.288  0.00  0.00    +0.000 A 
ATOM     13  C   UNL     1     104.802 128.730 142.977  0.00  0.00    +0.000 A 
ENDROOT
BRANCH   5  15
ATOM     14  O   UNL     1     102.422 133.244 141.372  0.00  0.00    +0.000 OA
ATOM     15  C   UNL     1     102.307 131.099 141.759  0.00  0.00    +0.000 A 
ATOM     16  C   UNL     1     102.608 131.839 141.551  0.00  0.00    +0.000 A 
ATOM     17  C   UNL     1     101.519 131.026 141.996  0.00  0.00    +0.000 A 
ATOM     18  C   UNL     1     102.121 132.505 141.580  0.00  0.00    +0.000 A 
ATOM     19  C   UNL     1     101.034 131.692 142.025  0.00  0.00    +0.000 A 
ATOM     20  C   UNL     1     101.335 132.432 141.817  0.00  0.00    +0.000 A 
ENDBRANCH   5  15
BRANCH   6  21
ATOM     21  O   UNL     1     102.278 130.113 140.436  0.00  0.00    +0.000 OA
BRANCH  21  22
ATOM     22  S   UNL     1     102.401 129.755 139.703  0.00  0.00    +0.000 S 
ATOM     23  O   UNL     1     102.525 129.398 138.970  0.00  0.00    +0.000 OA
ATOM     24  O   UNL     1     101.827 129.190 139.882  0.00  0.00    +0.000 OA
ATOM     25  O   UNL     1     102.975 130.320 139.524  0.00  0.00    +0.000 OA
ENDBRANCH  21  22
ENDBRANCH   6  21
TORSDOF 3
ENDMDL
MODEL 3
REMARK VINA RESULT:      -8.7      1.352      3.720
REMARK  Name = 131831813
REMARK  3 active torsions:
REMARK  status: ('A' for Active; 'I' for Inactive)
REMARK    1  A    between atoms: S_1  and  O_3
REMARK    2  A    between atoms: O_3  and  C_12
REMARK    3  A    between atoms: C_11  and  C_14
REMARK                            x       y       z     vdW  Elec       q    Type
REMARK                         _______ _______ _______ _____ _____    ______ ____
ROOT
ATOM      1  O   UNL     1     104.100 124.279 147.409  0.00  0.00    +0.000 OA
ATOM      2  O   UNL     1     104.408 123.845 144.992  0.00  0.00    +0.000 OA
ATOM      3  O   UNL     1     103.152 123.138 144.930  0.00  0.00    +0.000 OA
ATOM      4  O   UNL     1     101.555 122.865 147.360  0.00  0.00    +0.000 OA
ATOM      5  C   UNL     1     104.776 124.554 147.023  0.00  0.00    +0.000 C 
ATOM      6  C   UNL     1     104.879 124.410 146.217  0.00  0.00    +0.000 C 
ATOM      7  C   UNL     1     104.305 123.989 145.798  0.00  0.00    +0.000 C 
ATOM      8  C   UNL     1     103.631 123.714 146.183  0.00  0.00    +0.000 A 
ATOM      9  C   UNL     1     103.528 123.859 146.989  0.00  0.00    +0.000 A 
ATOM     10  C   UNL     1     103.041 123.278 145.735  0.00  0.00    +0.000 A 
ATOM     11  C   UNL     1     102.829 123.577 147.402  0.00  0.00    +0.000 A 
ATOM     12  C   UNL     1     102.336 122.989 146.131  0.00  0.00    +0.000 A 
ATOM     13  C   UNL     1     102.229 123.139 146.970  0.00  0.00    +0.000 A 
ENDROOT
BRANCH   5  15
ATOM     14  O   UNL     1     105.738 127.013 148.118  0.00  0.00    +0.000 OA
ATOM     15  C   UNL     1     105.348 124.974 147.443  0.00  0.00    +0.000 A 
ATOM     16  C   UNL     1     105.256 125.784 147.570  0.00  0.00    +0.000 A 
ATOM     17  C   UNL     1     106.013 124.583 147.737  0.00  0.00    +0.000 A 
ATOM     18  C   UNL     1     105.830 126.203 147.991  0.00  0.00    +0.000 A 
ATOM     19  C   UNL     1     106.586 125.003 148.158  0.00  0.00    +0.000 A 
ATOM     20  C   UNL     1     106.494 125.813 148.284  0.00  0.00    +0.000 A 
ENDBRANCH   5  15
BRANCH   6  21
ATOM     21  O   UNL     1     105.553 124.685 145.832  0.00  0.00    +0.000 OA
BRANCH  21  22
ATOM     22  S   UNL     1     105.546 124.792 145.014  0.00  0.00    +0.000 S 
ATOM     23  O   UNL     1     105.539 124.899 144.196  0.00  0.00    +0.000 OA
ATOM     24  O   UNL     1     105.081 125.467 145.107  0.00  0.00    +0.000 OA
ATOM     25  O   UNL     1     106.011 124.117 144.921  0.00  0.00    +0.000 OA
ENDBRANCH  21  22
ENDBRANCH   6  21
TORSDOF 3
ENDMDL
MODEL 4
REMARK VINA RESULT:      -8.7      1.656      4.093
REMARK  Name = 131831813
REMARK  3 active torsions:
REMARK  status: ('A' for Active; 'I' for Inactive)
REMARK    1  A    between atoms: S_1  and  O_3
REMARK    2  A    between atoms: O_3  and  C_12
REMARK    3  A    between atoms: C_11  and  C_14
REMARK                            x       y       z     vdW  Elec       q    Type
REMARK                         _______ _______ _______ _____ _____    ______ ____
ROOT
ATOM      1  O   UNL     1     105.510 124.257 147.425  0.00  0.00    +0.000 OA
ATOM      2  O   UNL     1     104.016 126.016 148.319  0.00  0.00    +0.000 OA
ATOM      3  O   UNL     1     102.913 125.517 147.535  0.00  0.00    +0.000 OA
ATOM      4  O   UNL     1     103.330 123.194 145.814  0.00  0.00    +0.000 OA
ATOM      5  C   UNL     1     105.799 124.808 147.968  0.00  0.00    +0.000 C 
ATOM      6  C   UNL     1     105.301 125.394 148.266  0.00  0.00    +0.000 C 
ATOM      7  C   UNL     1     104.514 125.429 148.021  0.00  0.00    +0.000 C 
ATOM      8  C   UNL     1     104.225 124.880 147.479  0.00  0.00    +0.000 A 
ATOM      9  C   UNL     1     104.723 124.293 147.181  0.00  0.00    +0.000 A 
ATOM     10  C   UNL     1     103.403 124.927 147.231  0.00  0.00    +0.000 A 
ATOM     11  C   UNL     1     104.434 123.714 146.615  0.00  0.00    +0.000 A 
ATOM     12  C   UNL     1     103.097 124.357 146.667  0.00  0.00    +0.000 A 
ATOM     13  C   UNL     1     103.615 123.747 146.357  0.00  0.00    +0.000 A 
ENDROOT
BRANCH   5  15
ATOM     14  O   UNL     1     108.564 125.367 147.507  0.00  0.00    +0.000 OA
ATOM     15  C   UNL     1     106.586 124.771 148.213  0.00  0.00    +0.000 A 
ATOM     16  C   UNL     1     107.181 125.087 147.737  0.00  0.00    +0.000 A 
ATOM     17  C   UNL     1     106.778 124.417 148.934  0.00  0.00    +0.000 A 
ATOM     18  C   UNL     1     107.968 125.050 147.983  0.00  0.00    +0.000 A 
ATOM     19  C   UNL     1     107.565 124.381 149.178  0.00  0.00    +0.000 A 
ATOM     20  C   UNL     1     108.160 124.697 148.702  0.00  0.00    +0.000 A 
ENDBRANCH   5  15
BRANCH   6  21
ATOM     21  O   UNL     1     105.590 125.944 148.808  0.00  0.00    +0.000 OA
BRANCH  21  22
ATOM     22  S   UNL     1     105.184 126.651 148.935  0.00  0.00    +0.000 S 
ATOM     23  O   UNL     1     104.778 127.358 149.061  0.00  0.00    +0.000 OA
ATOM     24  O   UNL     1     104.837 126.330 149.611  0.00  0.00    +0.000 OA
ATOM     25  O   UNL     1     105.531 126.971 148.258  0.00  0.00    +0.000 OA
ENDBRANCH  21  22
ENDBRANCH   6  21
TORSDOF 3
ENDMDL
MODEL 5
REMARK VINA RESULT:      -8.5     11.859     12.869
REMARK  Name = 131831813
REMARK  3 active torsions:
REMARK  status: ('A' for Active; 'I' for Inactive)
REMARK    1  A    between atoms: S_1  and  O_3
REMARK    2  A    between atoms: O_3  and  C_12
REMARK    3  A    between atoms: C_11  and  C_14
REMARK                            x       y       z     vdW  Elec       q    Type
REMARK                         _______ _______ _______ _____ _____    ______ ____
ROOT
ATOM      1  O   UNL     1     110.060 130.480 136.727  0.00  0.00    +0.000 OA
ATOM      2  O   UNL     1     107.801 130.208 135.751  0.00  0.00    +0.000 OA
ATOM      3  O   UNL     1     107.977 128.778 135.670  0.00  0.00    +0.000 OA
ATOM      4  O   UNL     1     110.486 127.603 136.594  0.00  0.00    +0.000 OA
ATOM      5  C   UNL     1     109.582 131.142 136.598  0.00  0.00    +0.000 C 
ATOM      6  C   UNL     1     108.830 131.051 136.273  0.00  0.00    +0.000 C 
ATOM      7  C   UNL     1     108.554 130.298 136.076  0.00  0.00    +0.000 C 
ATOM      8  C   UNL     1     109.030 129.638 136.204  0.00  0.00    +0.000 A 
ATOM      9  C   UNL     1     109.783 129.729 136.529  0.00  0.00    +0.000 A 
ATOM     10  C   UNL     1     108.731 128.859 135.995  0.00  0.00    +0.000 A 
ATOM     11  C   UNL     1     110.289 129.047 136.668  0.00  0.00    +0.000 A 
ATOM     12  C   UNL     1     109.223 128.167 136.126  0.00  0.00    +0.000 A 
ATOM     13  C   UNL     1     110.007 128.262 136.464  0.00  0.00    +0.000 A 
ENDROOT
BRANCH   5  15
ATOM     14  O   UNL     1     110.101 133.153 138.562  0.00  0.00    +0.000 OA
ATOM     15  C   UNL     1     109.859 131.893 136.796  0.00  0.00    +0.000 A 
ATOM     16  C   UNL     1     109.842 132.147 137.581  0.00  0.00    +0.000 A 
ATOM     17  C   UNL     1     110.154 132.392 136.207  0.00  0.00    +0.000 A 
ATOM     18  C   UNL     1     110.119 132.899 137.777  0.00  0.00    +0.000 A 
ATOM     19  C   UNL     1     110.430 133.143 136.404  0.00  0.00    +0.000 A 
ATOM     20  C   UNL     1     110.413 133.397 137.189  0.00  0.00    +0.000 A 
ENDBRANCH   5  15
BRANCH   6  21
ATOM     21  O   UNL     1     108.354 131.712 136.145  0.00  0.00    +0.000 OA
BRANCH  21  22
ATOM     22  S   UNL     1     107.548 131.617 135.995  0.00  0.00    +0.000 S 
ATOM     23  O   UNL     1     106.742 131.522 135.846  0.00  0.00    +0.000 OA
ATOM     24  O   UNL     1     107.405 131.554 136.806  0.00  0.00    +0.000 OA
ATOM     25  O   UNL     1     107.691 131.679 135.185  0.00  0.00    +0.000 OA
ENDBRANCH  21  22
ENDBRANCH   6  21
TORSDOF 3
ENDMDL
MODEL 6
REMARK VINA RESULT:      -8.4     12.262     13.157
REMARK  Name = 131831813
REMARK  3 active torsions:
REMARK  status: ('A' for Active; 'I' for Inactive)
REMARK    1  A    between atoms: S_1  and  O_3
REMARK    2  A    between atoms: O_3  and  C_12
REMARK    3  A    between atoms: C_11  and  C_14
REMARK                            x       y       z     vdW  Elec       q    Type
REMARK                         _______ _______ _______ _____ _____    ______ ____
ROOT
ATOM      1  O   UNL     1     112.061 125.725 136.067  0.00  0.00    +0.000 OA
ATOM      2  O   UNL     1     111.905 128.195 136.039  0.00  0.00    +0.000 OA
ATOM      3  O   UNL     1     110.645 128.136 135.338  0.00  0.00    +0.000 OA
ATOM      4  O   UNL     1     109.523 125.528 134.653  0.00  0.00    +0.000 OA
ATOM      5  C   UNL     1     112.659 126.180 136.409  0.00  0.00    +0.000 C 
ATOM      6  C   UNL     1     112.607 127.004 136.400  0.00  0.00    +0.000 C 
ATOM      7  C   UNL     1     111.957 127.371 136.048  0.00  0.00    +0.000 C 
ATOM      8  C   UNL     1     111.360 126.917 135.706  0.00  0.00    +0.000 A 
ATOM      9  C   UNL     1     111.412 126.094 135.715  0.00  0.00    +0.000 A 
ATOM     10  C   UNL     1     110.689 127.312 135.343  0.00  0.00    +0.000 A 
ATOM     11  C   UNL     1     110.797 125.609 135.362  0.00  0.00    +0.000 A 
ATOM     12  C   UNL     1     110.064 126.844 134.985  0.00  0.00    +0.000 A 
ATOM     13  C   UNL     1     110.118 125.986 134.995  0.00  0.00    +0.000 A 
ENDROOT
BRANCH   5  15
ATOM     14  O   UNL     1     115.246 124.986 136.191  0.00  0.00    +0.000 OA
ATOM     15  C   UNL     1     113.308 125.812 136.760  0.00  0.00    +0.000 A 
ATOM     16  C   UNL     1     113.952 125.583 136.299  0.00  0.00    +0.000 A 
ATOM     17  C   UNL     1     113.311 125.671 137.574  0.00  0.00    +0.000 A 
ATOM     18  C   UNL     1     114.601 125.215 136.652  0.00  0.00    +0.000 A 
ATOM     19  C   UNL     1     113.960 125.302 137.925  0.00  0.00    +0.000 A 
ATOM     20  C   UNL     1     114.605 125.074 137.464  0.00  0.00    +0.000 A 
ENDBRANCH   5  15
BRANCH   6  21
ATOM     21  O   UNL     1     113.203 127.458 136.742  0.00  0.00    +0.000 OA
BRANCH  21  22
ATOM     22  S   UNL     1     113.261 128.262 136.566  0.00  0.00    +0.000 S 
ATOM     23  O   UNL     1     113.319 129.066 136.390  0.00  0.00    +0.000 OA
ATOM     24  O   UNL     1     112.882 128.445 137.276  0.00  0.00    +0.000 OA
ATOM     25  O   UNL     1     113.640 128.080 135.856  0.00  0.00    +0.000 OA
ENDBRANCH  21  22
ENDBRANCH   6  21
TORSDOF 3
ENDMDL
MODEL 7
REMARK VINA RESULT:      -8.3     12.121     12.796
REMARK  Name = 131831813
REMARK  3 active torsions:
REMARK  status: ('A' for Active; 'I' for Inactive)
REMARK    1  A    between atoms: S_1  and  O_3
REMARK    2  A    between atoms: O_3  and  C_12
REMARK    3  A    between atoms: C_11  and  C_14
REMARK                            x       y       z     vdW  Elec       q    Type
REMARK                         _______ _______ _______ _____ _____    ______ ____
ROOT
ATOM      1  O   UNL     1     112.939 126.636 136.528  0.00  0.00    +0.000 OA
ATOM      2  O   UNL     1     111.254 124.912 135.967  0.00  0.00    +0.000 OA
ATOM      3  O   UNL     1     112.152 123.860 136.374  0.00  0.00    +0.000 OA
ATOM      4  O   UNL     1     114.806 124.565 137.369  0.00  0.00    +0.000 OA
ATOM      5  C   UNL     1     112.203 126.860 136.229  0.00  0.00    +0.000 C 
ATOM      6  C   UNL     1     111.641 126.286 136.042  0.00  0.00    +0.000 C 
ATOM      7  C   UNL     1     111.815 125.487 136.154  0.00  0.00    +0.000 C 
ATOM      8  C   UNL     1     112.550 125.263 136.452  0.00  0.00    +0.000 A 
ATOM      9  C   UNL     1     113.112 125.837 136.639  0.00  0.00    +0.000 A 
ATOM     10  C   UNL     1     112.720 124.427 136.564  0.00  0.00    +0.000 A 
ATOM     11  C   UNL     1     113.882 125.616 136.951  0.00  0.00    +0.000 A 
ATOM     12  C   UNL     1     113.484 124.188 136.875  0.00  0.00    +0.000 A 
ATOM     13  C   UNL     1     114.069 124.786 137.070  0.00  0.00    +0.000 A 
ENDROOT
BRANCH   5  15
ATOM     14  O   UNL     1     112.313 129.216 134.614  0.00  0.00    +0.000 OA
ATOM     15  C   UNL     1     112.030 127.659 136.117  0.00  0.00    +0.000 A 
ATOM     16  C   UNL     1     112.258 128.038 135.421  0.00  0.00    +0.000 A 
ATOM     17  C   UNL     1     111.627 128.079 136.703  0.00  0.00    +0.000 A 
ATOM     18  C   UNL     1     112.085 128.837 135.311  0.00  0.00    +0.000 A 
ATOM     19  C   UNL     1     111.454 128.878 136.592  0.00  0.00    +0.000 A 
ATOM     20  C   UNL     1     111.683 129.257 135.895  0.00  0.00    +0.000 A 
ENDBRANCH   5  15
BRANCH   6  21
ATOM     21  O   UNL     1     110.906 126.510 135.743  0.00  0.00    +0.000 OA
BRANCH  21  22
ATOM     22  S   UNL     1     110.414 125.948 135.393  0.00  0.00    +0.000 S 
ATOM     23  O   UNL     1     109.922 125.385 135.044  0.00  0.00    +0.000 OA
ATOM     24  O   UNL     1     110.833 126.021 134.686  0.00  0.00    +0.000 OA
ATOM     25  O   UNL     1     109.996 125.874 136.101  0.00  0.00    +0.000 OA
ENDBRANCH  21  22
ENDBRANCH   6  21
TORSDOF 3
ENDMDL
MODEL 8
REMARK VINA RESULT:      -8.2     11.172     12.566
REMARK  Name = 131831813
REMARK  3 active torsions:
REMARK  status: ('A' for Active; 'I' for Inactive)
REMARK    1  A    between atoms: S_1  and  O_3
REMARK    2  A    between atoms: O_3  and  C_12
REMARK    3  A    between atoms: C_11  and  C_14
REMARK                            x       y       z     vdW  Elec       q    Type
REMARK                         _______ _______ _______ _____ _____    ______ ____
ROOT
ATOM      1  O   UNL     1     112.300 126.611 136.550  0.00  0.00    +0.000 OA
ATOM      2  O   UNL     1     111.256 124.436 135.994  0.00  0.00    +0.000 OA
ATOM      3  O   UNL     1     110.385 125.067 135.033  0.00  0.00    +0.000 OA
ATOM      4  O   UNL     1     110.573 127.953 134.627  0.00  0.00    +0.000 OA
ATOM      5  C   UNL     1     112.551 125.923 136.931  0.00  0.00    +0.000 C 
ATOM      6  C   UNL     1     112.204 125.198 136.745  0.00  0.00    +0.000 C 
ATOM      7  C   UNL     1     111.604 125.161 136.179  0.00  0.00    +0.000 C 
ATOM      8  C   UNL     1     111.353 125.848 135.799  0.00  0.00    +0.000 A 
ATOM      9  C   UNL     1     111.700 126.573 135.985  0.00  0.00    +0.000 A 
ATOM     10  C   UNL     1     110.727 125.796 135.212  0.00  0.00    +0.000 A 
ATOM     11  C   UNL     1     111.446 127.296 135.595  0.00  0.00    +0.000 A 
ATOM     12  C   UNL     1     110.461 126.508 134.813  0.00  0.00    +0.000 A 
ATOM     13  C   UNL     1     110.823 127.263 135.005  0.00  0.00    +0.000 A 
ENDROOT
BRANCH   5  15
ATOM     14  O   UNL     1     113.411 126.507 139.593  0.00  0.00    +0.000 OA
ATOM     15  C   UNL     1     113.151 125.961 137.496  0.00  0.00    +0.000 A 
ATOM     16  C   UNL     1     112.980 126.215 138.262  0.00  0.00    +0.000 A 
ATOM     17  C   UNL     1     113.922 125.744 137.295  0.00  0.00    +0.000 A 
ATOM     18  C   UNL     1     113.581 126.252 138.827  0.00  0.00    +0.000 A 
ATOM     19  C   UNL     1     114.521 125.782 137.860  0.00  0.00    +0.000 A 
ATOM     20  C   UNL     1     114.351 126.036 138.626  0.00  0.00    +0.000 A 
ENDBRANCH   5  15
BRANCH   6  21
ATOM     21  O   UNL     1     112.455 124.511 137.125  0.00  0.00    +0.000 OA
BRANCH  21  22
ATOM     22  S   UNL     1     111.999 123.825 137.083  0.00  0.00    +0.000 S 
ATOM     23  O   UNL     1     111.542 123.140 137.041  0.00  0.00    +0.000 OA
ATOM     24  O   UNL     1     112.465 123.553 136.460  0.00  0.00    +0.000 OA
ATOM     25  O   UNL     1     111.532 124.098 137.707  0.00  0.00    +0.000 OA
ENDBRANCH  21  22
ENDBRANCH   6  21
TORSDOF 3
ENDMDL
MODEL 9
REMARK VINA RESULT:      -8.2     10.794     12.016
REMARK  Name = 131831813
REMARK  3 active torsions:
REMARK  status: ('A' for Active; 'I' for Inactive)
REMARK    1  A    between atoms: S_1  and  O_3
REMARK    2  A    between atoms: O_3  and  C_12
REMARK    3  A    between atoms: C_11  and  C_14
REMARK                            x       y       z     vdW  Elec       q    Type
REMARK                         _______ _______ _______ _____ _____    ______ ____
ROOT
ATOM      1  O   UNL     1     112.555 125.640 136.077  0.00  0.00    +0.000 OA
ATOM      2  O   UNL     1     112.150 126.060 138.482  0.00  0.00    +0.000 OA
ATOM      3  O   UNL     1     113.520 125.741 138.799  0.00  0.00    +0.000 OA
ATOM      4  O   UNL     1     115.335 124.981 136.640  0.00  0.00    +0.000 OA
ATOM      5  C   UNL     1     111.806 125.871 136.335  0.00  0.00    +0.000 C 
ATOM      6  C   UNL     1     111.670 126.011 137.137  0.00  0.00    +0.000 C 
ATOM      7  C   UNL     1     112.285 125.920 137.680  0.00  0.00    +0.000 C 
ATOM      8  C   UNL     1     113.033 125.690 137.423  0.00  0.00    +0.000 A 
ATOM      9  C   UNL     1     113.168 125.550 136.621  0.00  0.00    +0.000 A 
ATOM     10  C   UNL     1     113.665 125.598 137.999  0.00  0.00    +0.000 A 
ATOM     11  C   UNL     1     113.944 125.309 136.340  0.00  0.00    +0.000 A 
ATOM     12  C   UNL     1     114.446 125.358 137.737  0.00  0.00    +0.000 A 
ATOM     13  C   UNL     1     114.587 125.212 136.902  0.00  0.00    +0.000 A 
ENDROOT
BRANCH   5  15
ATOM     14  O   UNL     1     110.250 127.538 134.612  0.00  0.00    +0.000 OA
ATOM     15  C   UNL     1     111.193 125.962 135.791  0.00  0.00    +0.000 A 
ATOM     16  C   UNL     1     111.028 126.706 135.474  0.00  0.00    +0.000 A 
ATOM     17  C   UNL     1     110.743 125.307 135.564  0.00  0.00    +0.000 A 
ATOM     18  C   UNL     1     110.415 126.795 134.929  0.00  0.00    +0.000 A 
ATOM     19  C   UNL     1     110.130 125.398 135.019  0.00  0.00    +0.000 A 
ATOM     20  C   UNL     1     109.966 126.142 134.702  0.00  0.00    +0.000 A 
ENDBRANCH   5  15
BRANCH   6  21
ATOM     21  O   UNL     1     110.922 126.242 137.394  0.00  0.00    +0.000 OA
BRANCH  21  22
ATOM     22  S   UNL     1     110.726 126.187 138.194  0.00  0.00    +0.000 S 
ATOM     23  O   UNL     1     110.530 126.133 138.993  0.00  0.00    +0.000 OA
ATOM     24  O   UNL     1     110.594 125.378 138.106  0.00  0.00    +0.000 OA
ATOM     25  O   UNL     1     110.859 126.997 138.282  0.00  0.00    +0.000 OA
ENDBRANCH  21  22
ENDBRANCH   6  21
TORSDOF 3
ENDMDL
MODEL 10
REMARK VINA RESULT:      -8.1     12.195     13.280
REMARK  Name = 131831813
REMARK  3 active torsions:
REMARK  status: ('A' for Active; 'I' for Inactive)
REMARK    1  A    between atoms: S_1  and  O_3
REMARK    2  A    between atoms: O_3  and  C_12
REMARK    3  A    between atoms: C_11  and  C_14
REMARK                            x       y       z     vdW  Elec       q    Type
REMARK                         _______ _______ _______ _____ _____    ______ ____
ROOT
ATOM      1  O   UNL     1     112.028 127.173 135.873  0.00  0.00    +0.000 OA
ATOM      2  O   UNL     1     112.947 125.130 136.924  0.00  0.00    +0.000 OA
ATOM      3  O   UNL     1     111.822 124.353 136.466  0.00  0.00    +0.000 OA
ATOM      4  O   UNL     1     109.726 125.670 134.915  0.00  0.00    +0.000 OA
ATOM      5  C   UNL     1     112.745 127.206 136.282  0.00  0.00    +0.000 C 
ATOM      6  C   UNL     1     113.051 126.524 136.632  0.00  0.00    +0.000 C 
ATOM      7  C   UNL     1     112.641 125.811 136.574  0.00  0.00    +0.000 C 
ATOM      8  C   UNL     1     111.925 125.778 136.166  0.00  0.00    +0.000 A 
ATOM      9  C   UNL     1     111.619 126.460 135.816  0.00  0.00    +0.000 A 
ATOM     10  C   UNL     1     111.507 125.029 136.112  0.00  0.00    +0.000 A 
ATOM     11  C   UNL     1     110.874 126.439 135.388  0.00  0.00    +0.000 A 
ATOM     12  C   UNL     1     110.761 124.989 135.689  0.00  0.00    +0.000 A 
ATOM     13  C   UNL     1     110.442 125.698 135.324  0.00  0.00    +0.000 A 
ENDROOT
BRANCH   5  15
ATOM     14  O   UNL     1     114.588 129.098 135.192  0.00  0.00    +0.000 OA
ATOM     15  C   UNL     1     113.154 127.920 136.340  0.00  0.00    +0.000 A 
ATOM     16  C   UNL     1     113.667 128.152 135.736  0.00  0.00    +0.000 A 
ATOM     17  C   UNL     1     113.051 128.402 137.002  0.00  0.00    +0.000 A 
ATOM     18  C   UNL     1     114.076 128.866 135.795  0.00  0.00    +0.000 A 
ATOM     19  C   UNL     1     113.460 129.115 137.060  0.00  0.00    +0.000 A 
ATOM     20  C   UNL     1     113.972 129.348 136.456  0.00  0.00    +0.000 A 
ENDBRANCH   5  15
BRANCH   6  21
ATOM     21  O   UNL     1     113.767 126.557 137.040  0.00  0.00    +0.000 OA
BRANCH  21  22
ATOM     22  S   UNL     1     114.156 125.859 137.246  0.00  0.00    +0.000 S 
ATOM     23  O   UNL     1     114.546 125.162 137.451  0.00  0.00    +0.000 OA
ATOM     24  O   UNL     1     113.835 125.904 138.004  0.00  0.00    +0.000 OA
ATOM     25  O   UNL     1     114.478 125.815 136.487  0.00  0.00    +0.000 OA
ENDBRANCH  21  22
ENDBRANCH   6  21
TORSDOF 3
ENDMDL
