MODEL 1
REMARK VINA RESULT:      -7.2      0.000      0.000
REMARK  Name = 44260076
REMARK  7 active torsions:
REMARK  status: ('A' for Active; 'I' for Inactive)
REMARK    1  A    between atoms: O_2  and  C_13
REMARK    2  A    between atoms: O_3  and  C_15
REMARK    3  A    between atoms: O_4  and  C_17
REMARK    4  A    between atoms: O_5  and  C_18
REMARK    5  A    between atoms: O_6  and  C_19
REMARK    6  A    between atoms: O_8  and  C_25
REMARK    7  A    between atoms: C_14  and  C_20
REMARK                            x       y       z     vdW  Elec       q    Type
REMARK                         _______ _______ _______ _____ _____    ______ ____
ROOT
ATOM      1  O   UNL     1     113.548 127.387 136.447  0.00  0.00    +0.000 OA
ATOM      2  O   UNL     1     111.167 127.506 135.595  0.00  0.00    +0.000 OA
ATOM      3  C   UNL     1     112.241 126.757 136.242  0.00  0.00    +0.000 A 
ATOM      4  C   UNL     1     113.017 126.716 136.521  0.00  0.00    +0.000 A 
ATOM      5  C   UNL     1     111.740 126.106 136.318  0.00  0.00    +0.000 A 
ATOM      6  C   UNL     1     113.268 128.111 136.079  0.00  0.00    +0.000 A 
ATOM      7  C   UNL     1     113.291 126.023 136.875  0.00  0.00    +0.000 A 
ATOM      8  C   UNL     1     111.943 127.473 135.871  0.00  0.00    +0.000 A 
ATOM      9  C   UNL     1     112.460 128.155 135.788  0.00  0.00    +0.000 A 
ATOM     10  C   UNL     1     112.015 125.414 136.673  0.00  0.00    +0.000 A 
ATOM     11  C   UNL     1     112.790 125.373 136.951  0.00  0.00    +0.000 A 
ENDROOT
BRANCH   6  14
ATOM     12  O   UNL     1     115.259 129.544 134.612  0.00  0.00    +0.000 OA
ATOM     13  O   UNL     1     114.295 130.576 137.097  0.00  0.00    +0.000 OA
ATOM     14  C   UNL     1     113.771 128.761 136.004  0.00  0.00    +0.000 A 
ATOM     15  C   UNL     1     113.782 129.344 136.588  0.00  0.00    +0.000 A 
ATOM     16  C   UNL     1     114.264 128.828 135.345  0.00  0.00    +0.000 A 
ATOM     17  C   UNL     1     114.767 129.478 135.271  0.00  0.00    +0.000 A 
ATOM     18  C   UNL     1     114.284 129.993 136.513  0.00  0.00    +0.000 A 
ATOM     19  C   UNL     1     114.777 130.061 135.855  0.00  0.00    +0.000 A 
BRANCH  19  20
ATOM     20  O   UNL     1     115.280 130.710 135.780  0.00  0.00    +0.000 OA
ATOM     21  C   UNL     1     115.041 131.369 135.346  0.00  0.00    +0.000 C 
ENDBRANCH  19  20
ENDBRANCH   6  14
BRANCH   5  22
ATOM     22  O   UNL     1     110.964 126.147 136.040  0.00  0.00    +0.000 OA
ATOM     23  C   UNL     1     110.794 125.933 135.263  0.00  0.00    +0.000 C 
ENDBRANCH   5  22
BRANCH   7  24
ATOM     24  O   UNL     1     114.066 125.982 137.154  0.00  0.00    +0.000 OA
ATOM     25  C   UNL     1     114.217 126.021 137.964  0.00  0.00    +0.000 C 
ENDBRANCH   7  24
BRANCH   9  26
ATOM     26  O   UNL     1     112.183 128.846 135.433  0.00  0.00    +0.000 OA
ATOM     27  C   UNL     1     111.396 129.074 135.534  0.00  0.00    +0.000 C 
ENDBRANCH   9  26
BRANCH  10  28
ATOM     28  O   UNL     1     111.513 124.762 136.749  0.00  0.00    +0.000 OA
ATOM     29  C   UNL     1     111.105 124.638 137.455  0.00  0.00    +0.000 C 
ENDBRANCH  10  28
BRANCH  11  30
ATOM     30  O   UNL     1     113.064 124.680 137.306  0.00  0.00    +0.000 OA
ATOM     31  C   UNL     1     113.415 124.092 136.847  0.00  0.00    +0.000 C 
ENDBRANCH  11  30
TORSDOF 7
ENDMDL
MODEL 2
REMARK VINA RESULT:      -7.2      1.332      4.814
REMARK  Name = 44260076
REMARK  7 active torsions:
REMARK  status: ('A' for Active; 'I' for Inactive)
REMARK    1  A    between atoms: O_2  and  C_13
REMARK    2  A    between atoms: O_3  and  C_15
REMARK    3  A    between atoms: O_4  and  C_17
REMARK    4  A    between atoms: O_5  and  C_18
REMARK    5  A    between atoms: O_6  and  C_19
REMARK    6  A    between atoms: O_8  and  C_25
REMARK    7  A    between atoms: C_14  and  C_20
REMARK                            x       y       z     vdW  Elec       q    Type
REMARK                         _______ _______ _______ _____ _____    ______ ____
ROOT
ATOM      1  O   UNL     1     113.525 127.867 136.455  0.00  0.00    +0.000 OA
ATOM      2  O   UNL     1     112.803 128.751 138.715  0.00  0.00    +0.000 OA
ATOM      3  C   UNL     1     113.347 128.988 137.381  0.00  0.00    +0.000 A 
ATOM      4  C   UNL     1     113.582 128.703 136.643  0.00  0.00    +0.000 A 
ATOM      5  C   UNL     1     113.407 129.794 137.550  0.00  0.00    +0.000 A 
ATOM      6  C   UNL     1     113.217 127.320 137.043  0.00  0.00    +0.000 A 
ATOM      7  C   UNL     1     113.878 129.224 136.076  0.00  0.00    +0.000 A 
ATOM      8  C   UNL     1     113.037 128.458 137.981  0.00  0.00    +0.000 A 
ATOM      9  C   UNL     1     112.971 127.618 137.811  0.00  0.00    +0.000 A 
ATOM     10  C   UNL     1     113.703 130.314 136.982  0.00  0.00    +0.000 A 
ATOM     11  C   UNL     1     113.939 130.029 136.245  0.00  0.00    +0.000 A 
ENDROOT
BRANCH   6  14
ATOM     12  O   UNL     1     114.330 124.688 137.099  0.00  0.00    +0.000 OA
ATOM     13  O   UNL     1     111.749 125.125 135.953  0.00  0.00    +0.000 OA
ATOM     14  C   UNL     1     113.158 126.516 136.871  0.00  0.00    +0.000 A 
ATOM     15  C   UNL     1     112.483 126.222 136.498  0.00  0.00    +0.000 A 
ATOM     16  C   UNL     1     113.774 126.004 137.071  0.00  0.00    +0.000 A 
ATOM     17  C   UNL     1     113.714 125.199 136.899  0.00  0.00    +0.000 A 
ATOM     18  C   UNL     1     112.423 125.418 136.326  0.00  0.00    +0.000 A 
ATOM     19  C   UNL     1     113.039 124.906 136.526  0.00  0.00    +0.000 A 
BRANCH  19  20
ATOM     20  O   UNL     1     112.979 124.102 136.354  0.00  0.00    +0.000 OA
ATOM     21  C   UNL     1     112.585 123.597 136.873  0.00  0.00    +0.000 C 
ENDBRANCH  19  20
ENDBRANCH   6  14
BRANCH   5  22
ATOM     22  O   UNL     1     113.171 130.080 138.288  0.00  0.00    +0.000 OA
ATOM     23  C   UNL     1     113.706 130.092 138.915  0.00  0.00    +0.000 C 
ENDBRANCH   5  22
BRANCH   7  24
ATOM     24  O   UNL     1     114.114 128.939 135.338  0.00  0.00    +0.000 OA
ATOM     25  C   UNL     1     113.633 129.054 134.678  0.00  0.00    +0.000 C 
ENDBRANCH   7  24
BRANCH   9  26
ATOM     26  O   UNL     1     112.675 127.100 138.381  0.00  0.00    +0.000 OA
ATOM     27  C   UNL     1     112.062 127.340 138.878  0.00  0.00    +0.000 C 
ENDBRANCH   9  26
BRANCH  10  28
ATOM     28  O   UNL     1     113.763 131.120 137.152  0.00  0.00    +0.000 OA
ATOM     29  C   UNL     1     113.134 131.625 136.980  0.00  0.00    +0.000 C 
ENDBRANCH  10  28
BRANCH  11  30
ATOM     30  O   UNL     1     114.235 130.549 135.677  0.00  0.00    +0.000 OA
ATOM     31  C   UNL     1     115.044 130.698 135.636  0.00  0.00    +0.000 C 
ENDBRANCH  11  30
TORSDOF 7
ENDMDL
MODEL 3
REMARK VINA RESULT:      -7.2     10.013     12.232
REMARK  Name = 44260076
REMARK  7 active torsions:
REMARK  status: ('A' for Active; 'I' for Inactive)
REMARK    1  A    between atoms: O_2  and  C_13
REMARK    2  A    between atoms: O_3  and  C_15
REMARK    3  A    between atoms: O_4  and  C_17
REMARK    4  A    between atoms: O_5  and  C_18
REMARK    5  A    between atoms: O_6  and  C_19
REMARK    6  A    between atoms: O_8  and  C_25
REMARK    7  A    between atoms: C_14  and  C_20
REMARK                            x       y       z     vdW  Elec       q    Type
REMARK                         _______ _______ _______ _____ _____    ______ ____
ROOT
ATOM      1  O   UNL     1     106.615 126.375 145.624  0.00  0.00    +0.000 OA
ATOM      2  O   UNL     1     105.326 124.649 144.294  0.00  0.00    +0.000 OA
ATOM      3  C   UNL     1     106.044 125.919 144.355  0.00  0.00    +0.000 A 
ATOM      4  C   UNL     1     106.465 126.483 144.786  0.00  0.00    +0.000 A 
ATOM      5  C   UNL     1     105.906 126.034 143.549  0.00  0.00    +0.000 A 
ATOM      6  C   UNL     1     106.323 125.670 146.020  0.00  0.00    +0.000 A 
ATOM      7  C   UNL     1     106.747 127.162 144.410  0.00  0.00    +0.000 A 
ATOM      8  C   UNL     1     105.745 125.207 144.732  0.00  0.00    +0.000 A 
ATOM      9  C   UNL     1     105.885 125.082 145.571  0.00  0.00    +0.000 A 
ATOM     10  C   UNL     1     106.189 126.712 143.175  0.00  0.00    +0.000 A 
ATOM     11  C   UNL     1     106.609 127.277 143.606  0.00  0.00    +0.000 A 
ENDROOT
BRANCH   6  14
ATOM     12  O   UNL     1     107.974 124.679 148.133  0.00  0.00    +0.000 OA
ATOM     13  O   UNL     1     105.508 125.989 148.740  0.00  0.00    +0.000 OA
ATOM     14  C   UNL     1     106.463 125.558 146.826  0.00  0.00    +0.000 A 
ATOM     15  C   UNL     1     105.916 125.830 147.381  0.00  0.00    +0.000 A 
ATOM     16  C   UNL     1     107.149 125.174 147.076  0.00  0.00    +0.000 A 
ATOM     17  C   UNL     1     107.288 125.063 147.882  0.00  0.00    +0.000 A 
ATOM     18  C   UNL     1     106.055 125.718 148.185  0.00  0.00    +0.000 A 
ATOM     19  C   UNL     1     106.741 125.334 148.437  0.00  0.00    +0.000 A 
BRANCH  19  20
ATOM     20  O   UNL     1     106.880 125.222 149.242  0.00  0.00    +0.000 OA
ATOM     21  C   UNL     1     106.638 124.524 149.609  0.00  0.00    +0.000 C 
ENDBRANCH  19  20
ENDBRANCH   6  14
BRANCH   5  22
ATOM     22  O   UNL     1     105.486 125.469 143.118  0.00  0.00    +0.000 OA
ATOM     23  C   UNL     1     105.883 124.834 142.773  0.00  0.00    +0.000 C 
ENDBRANCH   5  22
BRANCH   7  24
ATOM     24  O   UNL     1     107.167 127.726 144.841  0.00  0.00    +0.000 OA
ATOM     25  C   UNL     1     106.788 128.408 145.109  0.00  0.00    +0.000 C 
ENDBRANCH   7  24
BRANCH   9  26
ATOM     26  O   UNL     1     105.602 124.402 145.943  0.00  0.00    +0.000 OA
ATOM     27  C   UNL     1     104.861 124.101 145.742  0.00  0.00    +0.000 C 
ENDBRANCH   9  26
BRANCH  10  28
ATOM     28  O   UNL     1     106.051 126.827 142.369  0.00  0.00    +0.000 OA
ATOM     29  C   UNL     1     105.382 127.241 142.121  0.00  0.00    +0.000 C 
ENDBRANCH  10  28
BRANCH  11  30
ATOM     30  O   UNL     1     106.891 127.955 143.231  0.00  0.00    +0.000 OA
ATOM     31  C   UNL     1     107.639 127.955 142.884  0.00  0.00    +0.000 C 
ENDBRANCH  11  30
TORSDOF 7
ENDMDL
MODEL 4
REMARK VINA RESULT:      -7.1     12.737     14.860
REMARK  Name = 44260076
REMARK  7 active torsions:
REMARK  status: ('A' for Active; 'I' for Inactive)
REMARK    1  A    between atoms: O_2  and  C_13
REMARK    2  A    between atoms: O_3  and  C_15
REMARK    3  A    between atoms: O_4  and  C_17
REMARK    4  A    between atoms: O_5  and  C_18
REMARK    5  A    between atoms: O_6  and  C_19
REMARK    6  A    between atoms: O_8  and  C_25
REMARK    7  A    between atoms: C_14  and  C_20
REMARK                            x       y       z     vdW  Elec       q    Type
REMARK                         _______ _______ _______ _____ _____    ______ ____
ROOT
ATOM      1  O   UNL     1     103.697 124.929 147.491  0.00  0.00    +0.000 OA
ATOM      2  O   UNL     1     102.652 123.396 145.768  0.00  0.00    +0.000 OA
ATOM      3  C   UNL     1     102.599 124.056 147.069  0.00  0.00    +0.000 A 
ATOM      4  C   UNL     1     102.937 124.555 147.633  0.00  0.00    +0.000 A 
ATOM      5  C   UNL     1     101.867 123.702 147.217  0.00  0.00    +0.000 A 
ATOM      6  C   UNL     1     104.111 124.781 146.752  0.00  0.00    +0.000 A 
ATOM      7  C   UNL     1     102.544 124.701 148.344  0.00  0.00    +0.000 A 
ATOM      8  C   UNL     1     102.997 123.896 146.325  0.00  0.00    +0.000 A 
ATOM      9  C   UNL     1     103.759 124.261 146.165  0.00  0.00    +0.000 A 
ATOM     10  C   UNL     1     101.476 123.848 147.928  0.00  0.00    +0.000 A 
ATOM     11  C   UNL     1     101.814 124.348 148.491  0.00  0.00    +0.000 A 
ENDROOT
BRANCH   6  14
ATOM     12  O   UNL     1     106.957 124.783 147.010  0.00  0.00    +0.000 OA
ATOM     13  O   UNL     1     105.647 126.909 145.622  0.00  0.00    +0.000 OA
ATOM     14  C   UNL     1     104.842 125.136 146.607  0.00  0.00    +0.000 A 
ATOM     15  C   UNL     1     104.880 125.845 146.187  0.00  0.00    +0.000 A 
ATOM     16  C   UNL     1     105.534 124.782 146.881  0.00  0.00    +0.000 A 
ATOM     17  C   UNL     1     106.265 125.137 146.736  0.00  0.00    +0.000 A 
ATOM     18  C   UNL     1     105.609 126.200 146.041  0.00  0.00    +0.000 A 
ATOM     19  C   UNL     1     106.303 125.846 146.316  0.00  0.00    +0.000 A 
BRANCH  19  20
ATOM     20  O   UNL     1     107.032 126.201 146.170  0.00  0.00    +0.000 OA
ATOM     21  C   UNL     1     107.307 126.800 146.667  0.00  0.00    +0.000 C 
ENDBRANCH  19  20
ENDBRANCH   6  14
BRANCH   5  22
ATOM     22  O   UNL     1     101.529 123.203 146.654  0.00  0.00    +0.000 OA
ATOM     23  C   UNL     1     101.055 123.517 146.057  0.00  0.00    +0.000 C 
ENDBRANCH   5  22
BRANCH   7  24
ATOM     24  O   UNL     1     102.882 125.200 148.907  0.00  0.00    +0.000 OA
ATOM     25  C   UNL     1     103.274 124.881 149.559  0.00  0.00    +0.000 C 
ENDBRANCH   7  24
BRANCH   9  26
ATOM     26  O   UNL     1     104.149 124.114 145.453  0.00  0.00    +0.000 OA
ATOM     27  C   UNL     1     104.230 123.339 145.180  0.00  0.00    +0.000 C 
ENDBRANCH   9  26
BRANCH  10  28
ATOM     28  O   UNL     1     100.744 123.495 148.076  0.00  0.00    +0.000 OA
ATOM     29  C   UNL     1     100.711 122.743 148.414  0.00  0.00    +0.000 C 
ENDBRANCH  10  28
BRANCH  11  30
ATOM     30  O   UNL     1     101.421 124.493 149.202  0.00  0.00    +0.000 OA
ATOM     31  C   UNL     1     101.006 125.197 149.308  0.00  0.00    +0.000 C 
ENDBRANCH  11  30
TORSDOF 7
ENDMDL
MODEL 5
REMARK VINA RESULT:      -7.0      1.586      4.539
REMARK  Name = 44260076
REMARK  7 active torsions:
REMARK  status: ('A' for Active; 'I' for Inactive)
REMARK    1  A    between atoms: O_2  and  C_13
REMARK    2  A    between atoms: O_3  and  C_15
REMARK    3  A    between atoms: O_4  and  C_17
REMARK    4  A    between atoms: O_5  and  C_18
REMARK    5  A    between atoms: O_6  and  C_19
REMARK    6  A    between atoms: O_8  and  C_25
REMARK    7  A    between atoms: C_14  and  C_20
REMARK                            x       y       z     vdW  Elec       q    Type
REMARK                         _______ _______ _______ _____ _____    ______ ____
ROOT
ATOM      1  O   UNL     1     112.571 127.325 137.161  0.00  0.00    +0.000 OA
ATOM      2  O   UNL     1     111.232 128.098 135.156  0.00  0.00    +0.000 OA
ATOM      3  C   UNL     1     112.047 128.409 136.326  0.00  0.00    +0.000 A 
ATOM      4  C   UNL     1     112.484 128.160 136.980  0.00  0.00    +0.000 A 
ATOM      5  C   UNL     1     111.971 129.215 136.163  0.00  0.00    +0.000 A 
ATOM      6  C   UNL     1     112.198 126.740 136.653  0.00  0.00    +0.000 A 
ATOM      7  C   UNL     1     112.845 128.717 137.471  0.00  0.00    +0.000 A 
ATOM      8  C   UNL     1     111.667 127.840 135.807  0.00  0.00    +0.000 A 
ATOM      9  C   UNL     1     111.742 127.000 135.971  0.00  0.00    +0.000 A 
ATOM     10  C   UNL     1     112.332 129.770 136.655  0.00  0.00    +0.000 A 
ATOM     11  C   UNL     1     112.769 129.521 137.309  0.00  0.00    +0.000 A 
ENDROOT
BRANCH   6  14
ATOM     12  O   UNL     1     113.559 124.256 136.276  0.00  0.00    +0.000 OA
ATOM     13  O   UNL     1     111.302 124.398 138.022  0.00  0.00    +0.000 OA
ATOM     14  C   UNL     1     112.276 125.936 136.818  0.00  0.00    +0.000 A 
ATOM     15  C   UNL     1     111.750 125.569 137.337  0.00  0.00    +0.000 A 
ATOM     16  C   UNL     1     112.879 125.498 136.464  0.00  0.00    +0.000 A 
ATOM     17  C   UNL     1     112.956 124.693 136.630  0.00  0.00    +0.000 A 
ATOM     18  C   UNL     1     111.827 124.765 137.503  0.00  0.00    +0.000 A 
ATOM     19  C   UNL     1     112.431 124.326 137.149  0.00  0.00    +0.000 A 
BRANCH  19  20
ATOM     20  O   UNL     1     112.508 123.522 137.314  0.00  0.00    +0.000 OA
ATOM     21  C   UNL     1     112.022 122.974 136.935  0.00  0.00    +0.000 C 
ENDBRANCH  19  20
ENDBRANCH   6  14
BRANCH   5  22
ATOM     22  O   UNL     1     111.534 129.464 135.509  0.00  0.00    +0.000 OA
ATOM     23  C   UNL     1     111.881 129.472 134.761  0.00  0.00    +0.000 C 
ENDBRANCH   5  22
BRANCH   7  24
ATOM     24  O   UNL     1     113.282 128.468 138.125  0.00  0.00    +0.000 OA
ATOM     25  C   UNL     1     112.949 128.497 138.880  0.00  0.00    +0.000 C 
ENDBRANCH   7  24
BRANCH   9  26
ATOM     26  O   UNL     1     111.380 126.446 135.478  0.00  0.00    +0.000 OA
ATOM     27  C   UNL     1     110.638 126.603 135.156  0.00  0.00    +0.000 C 
ENDBRANCH   9  26
BRANCH  10  28
ATOM     28  O   UNL     1     112.255 130.576 136.492  0.00  0.00    +0.000 OA
ATOM     29  C   UNL     1     111.636 131.007 136.825  0.00  0.00    +0.000 C 
ENDBRANCH  10  28
BRANCH  11  30
ATOM     30  O   UNL     1     113.129 130.078 137.800  0.00  0.00    +0.000 OA
ATOM     31  C   UNL     1     113.896 130.335 137.639  0.00  0.00    +0.000 C 
ENDBRANCH  11  30
TORSDOF 7
ENDMDL
MODEL 6
REMARK VINA RESULT:      -7.0      2.390      4.961
REMARK  Name = 44260076
REMARK  7 active torsions:
REMARK  status: ('A' for Active; 'I' for Inactive)
REMARK    1  A    between atoms: O_2  and  C_13
REMARK    2  A    between atoms: O_3  and  C_15
REMARK    3  A    between atoms: O_4  and  C_17
REMARK    4  A    between atoms: O_5  and  C_18
REMARK    5  A    between atoms: O_6  and  C_19
REMARK    6  A    between atoms: O_8  and  C_25
REMARK    7  A    between atoms: C_14  and  C_20
REMARK                            x       y       z     vdW  Elec       q    Type
REMARK                         _______ _______ _______ _____ _____    ______ ____
ROOT
ATOM      1  O   UNL     1     113.047 127.415 139.006  0.00  0.00    +0.000 OA
ATOM      2  O   UNL     1     113.162 129.242 137.258  0.00  0.00    +0.000 OA
ATOM      3  C   UNL     1     113.278 128.817 138.650  0.00  0.00    +0.000 A 
ATOM      4  C   UNL     1     113.241 128.223 139.222  0.00  0.00    +0.000 A 
ATOM      5  C   UNL     1     113.466 129.590 138.869  0.00  0.00    +0.000 A 
ATOM      6  C   UNL     1     112.889 127.221 138.184  0.00  0.00    +0.000 A 
ATOM      7  C   UNL     1     113.392 128.403 140.013  0.00  0.00    +0.000 A 
ATOM      8  C   UNL     1     113.123 128.644 137.823  0.00  0.00    +0.000 A 
ATOM      9  C   UNL     1     112.928 127.840 137.588  0.00  0.00    +0.000 A 
ATOM     10  C   UNL     1     113.616 129.769 139.660  0.00  0.00    +0.000 A 
ATOM     11  C   UNL     1     113.579 129.176 140.232  0.00  0.00    +0.000 A 
ENDROOT
BRANCH   6  14
ATOM     12  O   UNL     1     113.714 124.618 137.340  0.00  0.00    +0.000 OA
ATOM     13  O   UNL     1     110.940 125.182 137.730  0.00  0.00    +0.000 OA
ATOM     14  C   UNL     1     112.702 126.447 137.967  0.00  0.00    +0.000 A 
ATOM     15  C   UNL     1     111.915 126.201 137.957  0.00  0.00    +0.000 A 
ATOM     16  C   UNL     1     113.302 125.920 137.762  0.00  0.00    +0.000 A 
ATOM     17  C   UNL     1     113.114 125.146 137.545  0.00  0.00    +0.000 A 
ATOM     18  C   UNL     1     111.727 125.428 137.740  0.00  0.00    +0.000 A 
ATOM     19  C   UNL     1     112.327 124.900 137.534  0.00  0.00    +0.000 A 
BRANCH  19  20
ATOM     20  O   UNL     1     112.139 124.127 137.318  0.00  0.00    +0.000 OA
ATOM     21  C   UNL     1     112.029 123.936 136.523  0.00  0.00    +0.000 C 
ENDBRANCH  19  20
ENDBRANCH   6  14
BRANCH   5  22
ATOM     22  O   UNL     1     113.502 130.184 138.297  0.00  0.00    +0.000 OA
ATOM     23  C   UNL     1     112.821 130.597 138.088  0.00  0.00    +0.000 C 
ENDBRANCH   5  22
BRANCH   7  24
ATOM     24  O   UNL     1     113.355 127.810 140.585  0.00  0.00    +0.000 OA
ATOM     25  C   UNL     1     114.049 127.456 140.858  0.00  0.00    +0.000 C 
ENDBRANCH   7  24
BRANCH   9  26
ATOM     26  O   UNL     1     112.777 127.663 136.796  0.00  0.00    +0.000 OA
ATOM     27  C   UNL     1     113.204 128.043 136.201  0.00  0.00    +0.000 C 
ENDBRANCH   9  26
BRANCH  10  28
ATOM     28  O   UNL     1     113.804 130.543 139.879  0.00  0.00    +0.000 OA
ATOM     29  C   UNL     1     114.593 130.781 139.915  0.00  0.00    +0.000 C 
ENDBRANCH  10  28
BRANCH  11  30
ATOM     30  O   UNL     1     113.730 129.356 141.023  0.00  0.00    +0.000 OA
ATOM     31  C   UNL     1     113.112 129.577 141.521  0.00  0.00    +0.000 C 
ENDBRANCH  11  30
TORSDOF 7
ENDMDL
MODEL 7
REMARK VINA RESULT:      -7.0     12.348     14.449
REMARK  Name = 44260076
REMARK  7 active torsions:
REMARK  status: ('A' for Active; 'I' for Inactive)
REMARK    1  A    between atoms: O_2  and  C_13
REMARK    2  A    between atoms: O_3  and  C_15
REMARK    3  A    between atoms: O_4  and  C_17
REMARK    4  A    between atoms: O_5  and  C_18
REMARK    5  A    between atoms: O_6  and  C_19
REMARK    6  A    between atoms: O_8  and  C_25
REMARK    7  A    between atoms: C_14  and  C_20
REMARK                            x       y       z     vdW  Elec       q    Type
REMARK                         _______ _______ _______ _____ _____    ______ ____
ROOT
ATOM      1  O   UNL     1     103.788 124.593 146.242  0.00  0.00    +0.000 OA
ATOM      2  O   UNL     1     103.115 125.354 148.561  0.00  0.00    +0.000 OA
ATOM      3  C   UNL     1     102.867 124.532 147.380  0.00  0.00    +0.000 A 
ATOM      4  C   UNL     1     103.084 124.282 146.624  0.00  0.00    +0.000 A 
ATOM      5  C   UNL     1     102.189 124.226 147.737  0.00  0.00    +0.000 A 
ATOM      6  C   UNL     1     104.273 125.172 146.653  0.00  0.00    +0.000 A 
ATOM      7  C   UNL     1     102.623 123.727 146.226  0.00  0.00    +0.000 A 
ATOM      8  C   UNL     1     103.339 125.110 147.807  0.00  0.00    +0.000 A 
ATOM      9  C   UNL     1     104.047 125.432 147.441  0.00  0.00    +0.000 A 
ATOM     10  C   UNL     1     101.728 123.671 147.338  0.00  0.00    +0.000 A 
ATOM     11  C   UNL     1     101.945 123.421 146.582  0.00  0.00    +0.000 A 
ENDROOT
BRANCH   6  14
ATOM     12  O   UNL     1     105.521 127.101 144.953  0.00  0.00    +0.000 OA
ATOM     13  O   UNL     1     107.092 125.065 146.200  0.00  0.00    +0.000 OA
ATOM     14  C   UNL     1     104.951 125.476 146.294  0.00  0.00    +0.000 A 
ATOM     15  C   UNL     1     105.683 125.119 146.426  0.00  0.00    +0.000 A 
ATOM     16  C   UNL     1     104.897 126.137 145.803  0.00  0.00    +0.000 A 
ATOM     17  C   UNL     1     105.575 126.440 145.444  0.00  0.00    +0.000 A 
ATOM     18  C   UNL     1     106.360 125.422 146.068  0.00  0.00    +0.000 A 
ATOM     19  C   UNL     1     106.307 126.083 145.576  0.00  0.00    +0.000 A 
BRANCH  19  20
ATOM     20  O   UNL     1     106.985 126.387 145.218  0.00  0.00    +0.000 OA
ATOM     21  C   UNL     1     107.182 127.182 145.314  0.00  0.00    +0.000 C 
ENDBRANCH  19  20
ENDBRANCH   6  14
BRANCH   5  22
ATOM     22  O   UNL     1     101.972 124.476 148.493  0.00  0.00    +0.000 OA
ATOM     23  C   UNL     1     101.428 125.089 148.584  0.00  0.00    +0.000 C 
ENDBRANCH   5  22
BRANCH   7  24
ATOM     24  O   UNL     1     102.840 123.477 145.470  0.00  0.00    +0.000 OA
ATOM     25  C   UNL     1     103.193 122.739 145.364  0.00  0.00    +0.000 C 
ENDBRANCH   7  24
BRANCH   9  26
ATOM     26  O   UNL     1     104.506 125.988 147.842  0.00  0.00    +0.000 OA
ATOM     27  C   UNL     1     104.289 126.233 148.599  0.00  0.00    +0.000 C 
ENDBRANCH   9  26
BRANCH  10  28
ATOM     28  O   UNL     1     101.049 123.365 147.695  0.00  0.00    +0.000 OA
ATOM     29  C   UNL     1     101.111 122.743 148.233  0.00  0.00    +0.000 C 
ENDBRANCH  10  28
BRANCH  11  30
ATOM     30  O   UNL     1     101.483 122.865 146.183  0.00  0.00    +0.000 OA
ATOM     31  C   UNL     1     100.930 123.113 145.624  0.00  0.00    +0.000 C 
ENDBRANCH  11  30
TORSDOF 7
ENDMDL
MODEL 8
REMARK VINA RESULT:      -6.9      1.711      4.258
REMARK  Name = 44260076
REMARK  7 active torsions:
REMARK  status: ('A' for Active; 'I' for Inactive)
REMARK    1  A    between atoms: O_2  and  C_13
REMARK    2  A    between atoms: O_3  and  C_15
REMARK    3  A    between atoms: O_4  and  C_17
REMARK    4  A    between atoms: O_5  and  C_18
REMARK    5  A    between atoms: O_6  and  C_19
REMARK    6  A    between atoms: O_8  and  C_25
REMARK    7  A    between atoms: C_14  and  C_20
REMARK                            x       y       z     vdW  Elec       q    Type
REMARK                         _______ _______ _______ _____ _____    ______ ____
ROOT
ATOM      1  O   UNL     1     112.121 128.143 136.603  0.00  0.00    +0.000 OA
ATOM      2  O   UNL     1     110.124 127.050 135.494  0.00  0.00    +0.000 OA
ATOM      3  C   UNL     1     110.826 128.255 135.927  0.00  0.00    +0.000 A 
ATOM      4  C   UNL     1     111.475 128.614 136.288  0.00  0.00    +0.000 A 
ATOM      5  C   UNL     1     110.212 128.719 135.628  0.00  0.00    +0.000 A 
ATOM      6  C   UNL     1     112.090 127.286 136.542  0.00  0.00    +0.000 A 
ATOM      7  C   UNL     1     111.510 129.436 136.350  0.00  0.00    +0.000 A 
ATOM      8  C   UNL     1     110.776 127.400 135.856  0.00  0.00    +0.000 A 
ATOM      9  C   UNL     1     111.413 126.912 136.166  0.00  0.00    +0.000 A 
ATOM     10  C   UNL     1     110.248 129.540 135.690  0.00  0.00    +0.000 A 
ATOM     11  C   UNL     1     110.897 129.899 136.051  0.00  0.00    +0.000 A 
ENDROOT
BRANCH   6  14
ATOM     12  O   UNL     1     113.236 125.775 138.680  0.00  0.00    +0.000 OA
ATOM     13  O   UNL     1     114.635 126.033 136.201  0.00  0.00    +0.000 OA
ATOM     14  C   UNL     1     112.705 126.825 136.842  0.00  0.00    +0.000 A 
ATOM     15  C   UNL     1     113.363 126.659 136.372  0.00  0.00    +0.000 A 
ATOM     16  C   UNL     1     112.663 126.531 137.611  0.00  0.00    +0.000 A 
ATOM     17  C   UNL     1     113.279 126.070 137.911  0.00  0.00    +0.000 A 
ATOM     18  C   UNL     1     113.977 126.199 136.671  0.00  0.00    +0.000 A 
ATOM     19  C   UNL     1     113.936 125.904 137.441  0.00  0.00    +0.000 A 
BRANCH  19  20
ATOM     20  O   UNL     1     114.551 125.444 137.740  0.00  0.00    +0.000 OA
ATOM     21  C   UNL     1     114.619 124.652 137.519  0.00  0.00    +0.000 C 
ENDBRANCH  19  20
ENDBRANCH   6  14
BRANCH   5  22
ATOM     22  O   UNL     1     109.562 128.360 135.267  0.00  0.00    +0.000 OA
ATOM     23  C   UNL     1     108.917 128.123 135.722  0.00  0.00    +0.000 C 
ENDBRANCH   5  22
BRANCH   7  24
ATOM     24  O   UNL     1     112.159 129.795 136.711  0.00  0.00    +0.000 OA
ATOM     25  C   UNL     1     112.762 130.119 136.250  0.00  0.00    +0.000 C 
ENDBRANCH   7  24
BRANCH   9  26
ATOM     26  O   UNL     1     111.375 126.090 136.102  0.00  0.00    +0.000 OA
ATOM     27  C   UNL     1     110.998 125.744 135.455  0.00  0.00    +0.000 C 
ENDBRANCH   9  26
BRANCH  10  28
ATOM     28  O   UNL     1     109.633 130.004 135.391  0.00  0.00    +0.000 OA
ATOM     29  C   UNL     1     109.662 130.273 134.612  0.00  0.00    +0.000 C 
ENDBRANCH  10  28
BRANCH  11  30
ATOM     30  O   UNL     1     110.932 130.721 136.113  0.00  0.00    +0.000 OA
ATOM     31  C   UNL     1     110.631 131.098 136.782  0.00  0.00    +0.000 C 
ENDBRANCH  11  30
TORSDOF 7
ENDMDL
MODEL 9
REMARK VINA RESULT:      -6.9     11.942     14.162
REMARK  Name = 44260076
REMARK  7 active torsions:
REMARK  status: ('A' for Active; 'I' for Inactive)
REMARK    1  A    between atoms: O_2  and  C_13
REMARK    2  A    between atoms: O_3  and  C_15
REMARK    3  A    between atoms: O_4  and  C_17
REMARK    4  A    between atoms: O_5  and  C_18
REMARK    5  A    between atoms: O_6  and  C_19
REMARK    6  A    between atoms: O_8  and  C_25
REMARK    7  A    between atoms: C_14  and  C_20
REMARK                            x       y       z     vdW  Elec       q    Type
REMARK                         _______ _______ _______ _____ _____    ______ ____
ROOT
ATOM      1  O   UNL     1     104.084 124.734 146.355  0.00  0.00    +0.000 OA
ATOM      2  O   UNL     1     105.363 125.020 148.521  0.00  0.00    +0.000 OA
ATOM      3  C   UNL     1     104.129 124.680 147.818  0.00  0.00    +0.000 A 
ATOM      4  C   UNL     1     103.710 124.586 147.114  0.00  0.00    +0.000 A 
ATOM      5  C   UNL     1     103.759 124.535 148.542  0.00  0.00    +0.000 A 
ATOM      6  C   UNL     1     104.906 124.983 146.329  0.00  0.00    +0.000 A 
ATOM      7  C   UNL     1     102.920 124.347 147.133  0.00  0.00    +0.000 A 
ATOM      8  C   UNL     1     104.952 124.928 147.813  0.00  0.00    +0.000 A 
ATOM      9  C   UNL     1     105.343 125.081 147.063  0.00  0.00    +0.000 A 
ATOM     10  C   UNL     1     102.969 124.297 148.560  0.00  0.00    +0.000 A 
ATOM     11  C   UNL     1     102.550 124.203 147.856  0.00  0.00    +0.000 A 
ENDROOT
BRANCH   6  14
ATOM     12  O   UNL     1     106.389 124.041 144.075  0.00  0.00    +0.000 OA
ATOM     13  O   UNL     1     105.629 126.791 144.238  0.00  0.00    +0.000 OA
ATOM     14  C   UNL     1     105.274 125.127 145.605  0.00  0.00    +0.000 A 
ATOM     15  C   UNL     1     105.268 125.887 145.283  0.00  0.00    +0.000 A 
ATOM     16  C   UNL     1     105.648 124.511 145.202  0.00  0.00    +0.000 A 
ATOM     17  C   UNL     1     106.016 124.656 144.477  0.00  0.00    +0.000 A 
ATOM     18  C   UNL     1     105.635 126.031 144.559  0.00  0.00    +0.000 A 
ATOM     19  C   UNL     1     106.010 125.416 144.156  0.00  0.00    +0.000 A 
BRANCH  19  20
ATOM     20  O   UNL     1     106.377 125.560 143.432  0.00  0.00    +0.000 OA
ATOM     21  C   UNL     1     105.963 125.442 142.728  0.00  0.00    +0.000 C 
ENDBRANCH  19  20
ENDBRANCH   6  14
BRANCH   5  22
ATOM     22  O   UNL     1     104.178 124.629 149.246  0.00  0.00    +0.000 OA
ATOM     23  C   UNL     1     104.209 125.367 149.612  0.00  0.00    +0.000 C 
ENDBRANCH   5  22
BRANCH   7  24
ATOM     24  O   UNL     1     102.501 124.253 146.429  0.00  0.00    +0.000 OA
ATOM     25  C   UNL     1     102.386 123.500 146.115  0.00  0.00    +0.000 C 
ENDBRANCH   7  24
BRANCH   9  26
ATOM     26  O   UNL     1     106.133 125.319 147.047  0.00  0.00    +0.000 OA
ATOM     27  C   UNL     1     106.672 124.997 147.583  0.00  0.00    +0.000 C 
ENDBRANCH   9  26
BRANCH  10  28
ATOM     28  O   UNL     1     102.599 124.152 149.284  0.00  0.00    +0.000 OA
ATOM     29  C   UNL     1     102.619 123.395 149.612  0.00  0.00    +0.000 C 
ENDBRANCH  10  28
BRANCH  11  30
ATOM     30  O   UNL     1     101.760 123.964 147.875  0.00  0.00    +0.000 OA
ATOM     31  C   UNL     1     101.160 124.526 147.927  0.00  0.00    +0.000 C 
ENDBRANCH  11  30
TORSDOF 7
ENDMDL
MODEL 10
REMARK VINA RESULT:      -6.9     10.045     12.215
REMARK  Name = 44260076
REMARK  7 active torsions:
REMARK  status: ('A' for Active; 'I' for Inactive)
REMARK    1  A    between atoms: O_2  and  C_13
REMARK    2  A    between atoms: O_3  and  C_15
REMARK    3  A    between atoms: O_4  and  C_17
REMARK    4  A    between atoms: O_5  and  C_18
REMARK    5  A    between atoms: O_6  and  C_19
REMARK    6  A    between atoms: O_8  and  C_25
REMARK    7  A    between atoms: C_14  and  C_20
REMARK                            x       y       z     vdW  Elec       q    Type
REMARK                         _______ _______ _______ _____ _____    ______ ____
ROOT
ATOM      1  O   UNL     1     106.463 125.637 145.393  0.00  0.00    +0.000 OA
ATOM      2  O   UNL     1     106.347 128.164 145.505  0.00  0.00    +0.000 OA
ATOM      3  C   UNL     1     106.294 126.930 144.726  0.00  0.00    +0.000 A 
ATOM      4  C   UNL     1     106.332 126.107 144.686  0.00  0.00    +0.000 A 
ATOM      5  C   UNL     1     106.168 127.371 144.039  0.00  0.00    +0.000 A 
ATOM      6  C   UNL     1     106.556 126.030 146.153  0.00  0.00    +0.000 A 
ATOM      7  C   UNL     1     106.243 125.725 143.961  0.00  0.00    +0.000 A 
ATOM      8  C   UNL     1     106.385 127.342 145.475  0.00  0.00    +0.000 A 
ATOM      9  C   UNL     1     106.517 126.888 146.193  0.00  0.00    +0.000 A 
ATOM     10  C   UNL     1     106.079 126.988 143.314  0.00  0.00    +0.000 A 
ATOM     11  C   UNL     1     106.117 126.164 143.275  0.00  0.00    +0.000 A 
ENDROOT
BRANCH   6  14
ATOM     12  O   UNL     1     108.344 124.870 148.056  0.00  0.00    +0.000 OA
ATOM     13  O   UNL     1     105.522 124.534 148.356  0.00  0.00    +0.000 OA
ATOM     14  C   UNL     1     106.682 125.587 146.837  0.00  0.00    +0.000 A 
ATOM     15  C   UNL     1     106.040 125.282 147.255  0.00  0.00    +0.000 A 
ATOM     16  C   UNL     1     107.451 125.450 147.104  0.00  0.00    +0.000 A 
ATOM     17  C   UNL     1     107.576 125.007 147.789  0.00  0.00    +0.000 A 
ATOM     18  C   UNL     1     106.165 124.839 147.939  0.00  0.00    +0.000 A 
ATOM     19  C   UNL     1     106.933 124.701 148.207  0.00  0.00    +0.000 A 
BRANCH  19  20
ATOM     20  O   UNL     1     107.059 124.259 148.891  0.00  0.00    +0.000 OA
ATOM     21  C   UNL     1     107.182 124.640 149.612  0.00  0.00    +0.000 C 
ENDBRANCH  19  20
ENDBRANCH   6  14
BRANCH   5  22
ATOM     22  O   UNL     1     106.131 128.194 144.078  0.00  0.00    +0.000 OA
ATOM     23  C   UNL     1     106.821 128.641 144.022  0.00  0.00    +0.000 C 
ENDBRANCH   5  22
BRANCH   7  24
ATOM     24  O   UNL     1     106.280 124.901 143.921  0.00  0.00    +0.000 OA
ATOM     25  C   UNL     1     105.586 124.458 143.887  0.00  0.00    +0.000 C 
ENDBRANCH   7  24
BRANCH   9  26
ATOM     26  O   UNL     1     106.606 127.274 146.917  0.00  0.00    +0.000 OA
ATOM     27  C   UNL     1     106.216 127.988 147.055  0.00  0.00    +0.000 C 
ENDBRANCH   9  26
BRANCH  10  28
ATOM     28  O   UNL     1     105.953 127.429 142.627  0.00  0.00    +0.000 OA
ATOM     29  C   UNL     1     105.185 127.617 142.395  0.00  0.00    +0.000 C 
ENDBRANCH  10  28
BRANCH  11  30
ATOM     30  O   UNL     1     106.028 125.782 142.549  0.00  0.00    +0.000 OA
ATOM     31  C   UNL     1     106.687 125.632 142.078  0.00  0.00    +0.000 C 
ENDBRANCH  11  30
TORSDOF 7
ENDMDL
