MODEL 1
REMARK VINA RESULT:      -8.2      0.000      0.000
REMARK  Name = 5323515
REMARK  5 active torsions:
REMARK  status: ('A' for Active; 'I' for Inactive)
REMARK    1  A    between atoms: S_1  and  O_4
REMARK    2  A    between atoms: O_3  and  C_17
REMARK    3  A    between atoms: O_4  and  C_22
REMARK    4  A    between atoms: O_5  and  C_20
REMARK    5  A    between atoms: C_15  and  C_21
REMARK                            x       y       z     vdW  Elec       q    Type
REMARK                         _______ _______ _______ _____ _____    ______ ____
ROOT
ATOM      1  O   UNL     1     113.794 127.785 136.233  0.00  0.00    +0.000 OA
ATOM      2  O   UNL     1     111.183 126.557 136.078  0.00  0.00    +0.000 OA
ATOM      3  O   UNL     1     111.412 127.886 135.566  0.00  0.00    +0.000 OA
ATOM      4  C   UNL     1     112.504 127.177 136.157  0.00  0.00    +0.000 A 
ATOM      5  C   UNL     1     113.297 127.143 136.379  0.00  0.00    +0.000 A 
ATOM      6  C   UNL     1     113.498 128.461 135.864  0.00  0.00    +0.000 A 
ATOM      7  C   UNL     1     112.206 127.852 135.788  0.00  0.00    +0.000 A 
ATOM      8  C   UNL     1     112.704 128.495 135.642  0.00  0.00    +0.000 A 
ATOM      9  C   UNL     1     111.975 126.514 136.304  0.00  0.00    +0.000 A 
ATOM     10  C   UNL     1     113.618 126.445 136.764  0.00  0.00    +0.000 A 
ATOM     11  C   UNL     1     112.278 125.808 136.687  0.00  0.00    +0.000 A 
ATOM     12  C   UNL     1     113.106 125.773 136.919  0.00  0.00    +0.000 A 
ENDROOT
BRANCH   6  15
ATOM     13  O   UNL     1     114.654 130.936 136.702  0.00  0.00    +0.000 OA
ATOM     14  O   UNL     1     115.485 131.030 135.278  0.00  0.00    +0.000 OA
ATOM     15  C   UNL     1     113.994 129.103 135.718  0.00  0.00    +0.000 A 
ATOM     16  C   UNL     1     114.076 129.698 136.283  0.00  0.00    +0.000 A 
ATOM     17  C   UNL     1     114.409 129.150 135.007  0.00  0.00    +0.000 A 
ATOM     18  C   UNL     1     114.572 130.340 136.137  0.00  0.00    +0.000 A 
ATOM     19  C   UNL     1     114.906 129.792 134.860  0.00  0.00    +0.000 A 
ATOM     20  C   UNL     1     114.988 130.387 135.425  0.00  0.00    +0.000 A 
ENDBRANCH   6  15
BRANCH   8  21
ATOM     21  O   UNL     1     112.406 129.170 135.273  0.00  0.00    +0.000 OA
ATOM     22  C   UNL     1     111.628 129.182 134.999  0.00  0.00    +0.000 C 
ENDBRANCH   8  21
BRANCH  11  23
ATOM     23  O   UNL     1     111.779 125.168 136.833  0.00  0.00    +0.000 OA
ATOM     24  C   UNL     1     111.167 125.238 137.382  0.00  0.00    +0.000 C 
ENDBRANCH  11  23
BRANCH  12  25
ATOM     25  O   UNL     1     113.405 125.099 137.288  0.00  0.00    +0.000 OA
BRANCH  25  26
ATOM     26  S   UNL     1     114.220 124.974 137.321  0.00  0.00    +0.000 S 
ATOM     27  O   UNL     1     115.035 124.850 137.354  0.00  0.00    +0.000 OA
ATOM     28  O   UNL     1     114.245 125.334 138.063  0.00  0.00    +0.000 OA
ATOM     29  O   UNL     1     114.195 124.614 136.579  0.00  0.00    +0.000 OA
ENDBRANCH  25  26
ENDBRANCH  12  25
TORSDOF 5
ENDMDL
MODEL 2
REMARK VINA RESULT:      -8.1     13.138     15.276
REMARK  Name = 5323515
REMARK  5 active torsions:
REMARK  status: ('A' for Active; 'I' for Inactive)
REMARK    1  A    between atoms: S_1  and  O_4
REMARK    2  A    between atoms: O_3  and  C_17
REMARK    3  A    between atoms: O_4  and  C_22
REMARK    4  A    between atoms: O_5  and  C_20
REMARK    5  A    between atoms: C_15  and  C_21
REMARK                            x       y       z     vdW  Elec       q    Type
REMARK                         _______ _______ _______ _____ _____    ______ ____
ROOT
ATOM      1  O   UNL     1     103.904 124.818 146.975  0.00  0.00    +0.000 OA
ATOM      2  O   UNL     1     102.611 123.905 149.391  0.00  0.00    +0.000 OA
ATOM      3  O   UNL     1     103.903 124.544 149.435  0.00  0.00    +0.000 OA
ATOM      4  C   UNL     1     103.263 124.366 148.169  0.00  0.00    +0.000 A 
ATOM      5  C   UNL     1     103.264 124.458 147.349  0.00  0.00    +0.000 A 
ATOM      6  C   UNL     1     104.544 125.088 147.420  0.00  0.00    +0.000 A 
ATOM      7  C   UNL     1     103.903 124.635 148.615  0.00  0.00    +0.000 A 
ATOM      8  C   UNL     1     104.544 124.996 148.240  0.00  0.00    +0.000 A 
ATOM      9  C   UNL     1     102.602 123.992 148.572  0.00  0.00    +0.000 A 
ATOM     10  C   UNL     1     102.603 124.181 146.874  0.00  0.00    +0.000 A 
ATOM     11  C   UNL     1     101.933 123.709 148.114  0.00  0.00    +0.000 A 
ATOM     12  C   UNL     1     101.933 123.805 147.259  0.00  0.00    +0.000 A 
ENDROOT
BRANCH   6  15
ATOM     13  O   UNL     1     107.072 124.889 146.101  0.00  0.00    +0.000 OA
ATOM     14  O   UNL     1     107.107 126.530 145.922  0.00  0.00    +0.000 OA
ATOM     15  C   UNL     1     105.184 125.448 147.046  0.00  0.00    +0.000 A 
ATOM     16  C   UNL     1     105.808 124.989 146.761  0.00  0.00    +0.000 A 
ATOM     17  C   UNL     1     105.202 126.267 146.957  0.00  0.00    +0.000 A 
ATOM     18  C   UNL     1     106.448 125.349 146.386  0.00  0.00    +0.000 A 
ATOM     19  C   UNL     1     105.843 126.629 146.582  0.00  0.00    +0.000 A 
ATOM     20  C   UNL     1     106.466 126.169 146.297  0.00  0.00    +0.000 A 
ENDBRANCH   6  15
BRANCH   8  21
ATOM     21  O   UNL     1     105.184 125.266 148.686  0.00  0.00    +0.000 OA
ATOM     22  C   UNL     1     105.236 125.078 149.488  0.00  0.00    +0.000 C 
ENDBRANCH   8  21
BRANCH  11  23
ATOM     23  O   UNL     1     101.294 123.349 148.491  0.00  0.00    +0.000 OA
ATOM     24  C   UNL     1     100.856 123.768 149.051  0.00  0.00    +0.000 C 
ENDBRANCH  11  23
BRANCH  12  25
ATOM     25  O   UNL     1     101.294 123.536 146.811  0.00  0.00    +0.000 OA
BRANCH  25  26
ATOM     26  S   UNL     1     101.357 123.490 145.990  0.00  0.00    +0.000 S 
ATOM     27  O   UNL     1     101.419 123.444 145.168  0.00  0.00    +0.000 OA
ATOM     28  O   UNL     1     101.695 122.741 146.057  0.00  0.00    +0.000 OA
ATOM     29  O   UNL     1     101.018 124.239 145.922  0.00  0.00    +0.000 OA
ENDBRANCH  25  26
ENDBRANCH  12  25
TORSDOF 5
ENDMDL
MODEL 3
REMARK VINA RESULT:      -8.0     11.786     14.422
REMARK  Name = 5323515
REMARK  5 active torsions:
REMARK  status: ('A' for Active; 'I' for Inactive)
REMARK    1  A    between atoms: S_1  and  O_4
REMARK    2  A    between atoms: O_3  and  C_17
REMARK    3  A    between atoms: O_4  and  C_22
REMARK    4  A    between atoms: O_5  and  C_20
REMARK    5  A    between atoms: C_15  and  C_21
REMARK                            x       y       z     vdW  Elec       q    Type
REMARK                         _______ _______ _______ _____ _____    ______ ____
ROOT
ATOM      1  O   UNL     1     104.096 124.477 146.025  0.00  0.00    +0.000 OA
ATOM      2  O   UNL     1     106.391 125.402 147.516  0.00  0.00    +0.000 OA
ATOM      3  O   UNL     1     105.243 124.843 148.187  0.00  0.00    +0.000 OA
ATOM      4  C   UNL     1     105.231 124.934 146.761  0.00  0.00    +0.000 A 
ATOM      5  C   UNL     1     104.849 124.812 146.041  0.00  0.00    +0.000 A 
ATOM      6  C   UNL     1     103.725 124.262 146.730  0.00  0.00    +0.000 A 
ATOM      7  C   UNL     1     104.861 124.721 147.467  0.00  0.00    +0.000 A 
ATOM      8  C   UNL     1     104.107 124.384 147.451  0.00  0.00    +0.000 A 
ATOM      9  C   UNL     1     106.017 125.284 146.791  0.00  0.00    +0.000 A 
ATOM     10  C   UNL     1     105.225 125.031 145.299  0.00  0.00    +0.000 A 
ATOM     11  C   UNL     1     106.408 125.509 146.060  0.00  0.00    +0.000 A 
ATOM     12  C   UNL     1     106.009 125.382 145.309  0.00  0.00    +0.000 A 
ENDROOT
BRANCH   6  15
ATOM     13  O   UNL     1     100.883 124.557 146.773  0.00  0.00    +0.000 OA
ATOM     14  O   UNL     1     100.711 122.918 146.669  0.00  0.00    +0.000 OA
ATOM     15  C   UNL     1     102.972 123.926 146.715  0.00  0.00    +0.000 A 
ATOM     16  C   UNL     1     102.304 124.409 146.751  0.00  0.00    +0.000 A 
ATOM     17  C   UNL     1     102.886 123.108 146.663  0.00  0.00    +0.000 A 
ATOM     18  C   UNL     1     101.551 124.074 146.736  0.00  0.00    +0.000 A 
ATOM     19  C   UNL     1     102.133 122.772 146.648  0.00  0.00    +0.000 A 
ATOM     20  C   UNL     1     101.465 123.255 146.684  0.00  0.00    +0.000 A 
ENDBRANCH   6  15
BRANCH   8  21
ATOM     21  O   UNL     1     103.737 124.170 148.156  0.00  0.00    +0.000 OA
ATOM     22  C   UNL     1     103.963 124.526 148.866  0.00  0.00    +0.000 C 
ENDBRANCH   8  21
BRANCH  11  23
ATOM     23  O   UNL     1     107.161 125.845 146.079  0.00  0.00    +0.000 OA
ATOM     24  C   UNL     1     107.280 126.570 146.454  0.00  0.00    +0.000 C 
ENDBRANCH  11  23
BRANCH  12  25
ATOM     25  O   UNL     1     106.378 125.595 144.602  0.00  0.00    +0.000 OA
BRANCH  25  26
ATOM     26  S   UNL     1     106.025 125.408 143.881  0.00  0.00    +0.000 S 
ATOM     27  O   UNL     1     105.672 125.220 143.159  0.00  0.00    +0.000 OA
ATOM     28  O   UNL     1     105.644 126.139 143.877  0.00  0.00    +0.000 OA
ATOM     29  O   UNL     1     106.406 124.676 143.884  0.00  0.00    +0.000 OA
ENDBRANCH  25  26
ENDBRANCH  12  25
TORSDOF 5
ENDMDL
MODEL 4
REMARK VINA RESULT:      -8.0     12.652     15.194
REMARK  Name = 5323515
REMARK  5 active torsions:
REMARK  status: ('A' for Active; 'I' for Inactive)
REMARK    1  A    between atoms: S_1  and  O_4
REMARK    2  A    between atoms: O_3  and  C_17
REMARK    3  A    between atoms: O_4  and  C_22
REMARK    4  A    between atoms: O_5  and  C_20
REMARK    5  A    between atoms: C_15  and  C_21
REMARK                            x       y       z     vdW  Elec       q    Type
REMARK                         _______ _______ _______ _____ _____    ______ ____
ROOT
ATOM      1  O   UNL     1     103.779 124.448 147.434  0.00  0.00    +0.000 OA
ATOM      2  O   UNL     1     104.685 123.870 144.753  0.00  0.00    +0.000 OA
ATOM      3  O   UNL     1     103.368 123.480 145.194  0.00  0.00    +0.000 OA
ATOM      4  C   UNL     1     104.228 124.162 146.109  0.00  0.00    +0.000 A 
ATOM      5  C   UNL     1     104.365 124.485 146.856  0.00  0.00    +0.000 A 
ATOM      6  C   UNL     1     103.056 124.088 147.268  0.00  0.00    +0.000 A 
ATOM      7  C   UNL     1     103.505 123.802 145.941  0.00  0.00    +0.000 A 
ATOM      8  C   UNL     1     102.919 123.765 146.521  0.00  0.00    +0.000 A 
ATOM      9  C   UNL     1     104.831 124.195 145.496  0.00  0.00    +0.000 A 
ATOM     10  C   UNL     1     105.115 124.863 147.042  0.00  0.00    +0.000 A 
ATOM     11  C   UNL     1     105.586 124.568 145.665  0.00  0.00    +0.000 A 
ATOM     12  C   UNL     1     105.729 124.905 146.443  0.00  0.00    +0.000 A 
ENDROOT
BRANCH   6  15
ATOM     13  O   UNL     1     101.849 122.746 149.483  0.00  0.00    +0.000 OA
ATOM     14  O   UNL     1     100.711 123.937 149.585  0.00  0.00    +0.000 OA
ATOM     15  C   UNL     1     102.470 124.050 147.846  0.00  0.00    +0.000 A 
ATOM     16  C   UNL     1     102.452 123.417 148.375  0.00  0.00    +0.000 A 
ATOM     17  C   UNL     1     101.902 124.645 147.897  0.00  0.00    +0.000 A 
ATOM     18  C   UNL     1     101.866 123.379 148.954  0.00  0.00    +0.000 A 
ATOM     19  C   UNL     1     101.315 124.608 148.476  0.00  0.00    +0.000 A 
ATOM     20  C   UNL     1     101.297 123.975 149.005  0.00  0.00    +0.000 A 
ENDBRANCH   6  15
BRANCH   8  21
ATOM     21  O   UNL     1     102.196 123.405 146.353  0.00  0.00    +0.000 OA
ATOM     22  C   UNL     1     102.134 122.876 145.722  0.00  0.00    +0.000 C 
ENDBRANCH   8  21
BRANCH  11  23
ATOM     23  O   UNL     1     106.170 124.604 145.084  0.00  0.00    +0.000 OA
ATOM     24  C   UNL     1     106.041 125.040 144.395  0.00  0.00    +0.000 C 
ENDBRANCH  11  23
BRANCH  12  25
ATOM     25  O   UNL     1     106.451 125.265 146.613  0.00  0.00    +0.000 OA
BRANCH  25  26
ATOM     26  S   UNL     1     106.669 125.401 147.397  0.00  0.00    +0.000 S 
ATOM     27  O   UNL     1     106.887 125.538 148.181  0.00  0.00    +0.000 OA
ATOM     28  O   UNL     1     106.383 126.173 147.343  0.00  0.00    +0.000 OA
ATOM     29  O   UNL     1     106.956 124.630 147.452  0.00  0.00    +0.000 OA
ENDBRANCH  25  26
ENDBRANCH  12  25
TORSDOF 5
ENDMDL
MODEL 5
REMARK VINA RESULT:      -8.0     13.062     15.190
REMARK  Name = 5323515
REMARK  5 active torsions:
REMARK  status: ('A' for Active; 'I' for Inactive)
REMARK    1  A    between atoms: S_1  and  O_4
REMARK    2  A    between atoms: O_3  and  C_17
REMARK    3  A    between atoms: O_4  and  C_22
REMARK    4  A    between atoms: O_5  and  C_20
REMARK    5  A    between atoms: C_15  and  C_21
REMARK                            x       y       z     vdW  Elec       q    Type
REMARK                         _______ _______ _______ _____ _____    ______ ____
ROOT
ATOM      1  O   UNL     1     103.743 124.307 147.410  0.00  0.00    +0.000 OA
ATOM      2  O   UNL     1     102.606 122.985 145.106  0.00  0.00    +0.000 OA
ATOM      3  O   UNL     1     103.960 123.479 145.087  0.00  0.00    +0.000 OA
ATOM      4  C   UNL     1     103.180 123.653 146.271  0.00  0.00    +0.000 A 
ATOM      5  C   UNL     1     103.107 123.929 147.045  0.00  0.00    +0.000 A 
ATOM      6  C   UNL     1     104.452 124.409 147.000  0.00  0.00    +0.000 A 
ATOM      7  C   UNL     1     103.888 123.755 145.861  0.00  0.00    +0.000 A 
ATOM      8  C   UNL     1     104.525 124.134 146.226  0.00  0.00    +0.000 A 
ATOM      9  C   UNL     1     102.524 123.257 145.880  0.00  0.00    +0.000 A 
ATOM     10  C   UNL     1     102.374 123.828 147.483  0.00  0.00    +0.000 A 
ATOM     11  C   UNL     1     101.783 123.148 146.301  0.00  0.00    +0.000 A 
ATOM     12  C   UNL     1     101.708 123.435 147.108  0.00  0.00    +0.000 A 
ENDROOT
BRANCH   6  15
ATOM     13  O   UNL     1     105.837 126.811 147.690  0.00  0.00    +0.000 OA
ATOM     14  O   UNL     1     106.997 125.922 148.458  0.00  0.00    +0.000 OA
ATOM     15  C   UNL     1     105.088 124.787 147.365  0.00  0.00    +0.000 A 
ATOM     16  C   UNL     1     105.145 125.610 147.345  0.00  0.00    +0.000 A 
ATOM     17  C   UNL     1     105.667 124.343 147.748  0.00  0.00    +0.000 A 
ATOM     18  C   UNL     1     105.780 125.989 147.709  0.00  0.00    +0.000 A 
ATOM     19  C   UNL     1     106.304 124.721 148.113  0.00  0.00    +0.000 A 
ATOM     20  C   UNL     1     106.360 125.544 148.093  0.00  0.00    +0.000 A 
ENDBRANCH   6  15
BRANCH   8  21
ATOM     21  O   UNL     1     105.233 124.236 145.816  0.00  0.00    +0.000 OA
ATOM     22  C   UNL     1     105.233 124.263 144.992  0.00  0.00    +0.000 C 
ENDBRANCH   8  21
BRANCH  11  23
ATOM     23  O   UNL     1     101.149 122.769 145.934  0.00  0.00    +0.000 OA
ATOM     24  C   UNL     1     100.814 123.092 145.253  0.00  0.00    +0.000 C 
ENDBRANCH  11  23
BRANCH  12  25
ATOM     25  O   UNL     1     101.000 123.334 147.520  0.00  0.00    +0.000 OA
BRANCH  25  26
ATOM     26  S   UNL     1     100.964 123.505 148.326  0.00  0.00    +0.000 S 
ATOM     27  O   UNL     1     100.928 123.676 149.133  0.00  0.00    +0.000 OA
ATOM     28  O   UNL     1     101.216 122.739 148.500  0.00  0.00    +0.000 OA
ATOM     29  O   UNL     1     100.712 124.271 148.153  0.00  0.00    +0.000 OA
ENDBRANCH  25  26
ENDBRANCH  12  25
TORSDOF 5
ENDMDL
MODEL 6
REMARK VINA RESULT:      -7.9      2.074      2.607
REMARK  Name = 5323515
REMARK  5 active torsions:
REMARK  status: ('A' for Active; 'I' for Inactive)
REMARK    1  A    between atoms: S_1  and  O_4
REMARK    2  A    between atoms: O_3  and  C_17
REMARK    3  A    between atoms: O_4  and  C_22
REMARK    4  A    between atoms: O_5  and  C_20
REMARK    5  A    between atoms: C_15  and  C_21
REMARK                            x       y       z     vdW  Elec       q    Type
REMARK                         _______ _______ _______ _____ _____    ______ ____
ROOT
ATOM      1  O   UNL     1     112.200 126.711 136.255  0.00  0.00    +0.000 OA
ATOM      2  O   UNL     1     111.296 123.982 135.971  0.00  0.00    +0.000 OA
ATOM      3  O   UNL     1     110.526 125.080 135.440  0.00  0.00    +0.000 OA
ATOM      4  C   UNL     1     111.754 125.361 136.115  0.00  0.00    +0.000 A 
ATOM      5  C   UNL     1     112.312 125.905 136.387  0.00  0.00    +0.000 A 
ATOM      6  C   UNL     1     111.530 126.975 135.851  0.00  0.00    +0.000 A 
ATOM      7  C   UNL     1     111.084 125.624 135.711  0.00  0.00    +0.000 A 
ATOM      8  C   UNL     1     110.972 126.431 135.579  0.00  0.00    +0.000 A 
ATOM      9  C   UNL     1     111.858 124.518 136.246  0.00  0.00    +0.000 A 
ATOM     10  C   UNL     1     113.014 125.643 136.809  0.00  0.00    +0.000 A 
ATOM     11  C   UNL     1     112.554 124.238 136.666  0.00  0.00    +0.000 A 
ATOM     12  C   UNL     1     113.135 124.804 136.949  0.00  0.00    +0.000 A 
ENDROOT
BRANCH   6  15
ATOM     13  O   UNL     1     110.552 129.513 136.726  0.00  0.00    +0.000 OA
ATOM     14  O   UNL     1     111.083 130.201 135.323  0.00  0.00    +0.000 OA
ATOM     15  C   UNL     1     111.419 127.781 135.719  0.00  0.00    +0.000 A 
ATOM     16  C   UNL     1     111.042 128.244 136.288  0.00  0.00    +0.000 A 
ATOM     17  C   UNL     1     111.684 128.124 135.018  0.00  0.00    +0.000 A 
ATOM     18  C   UNL     1     110.930 129.050 136.157  0.00  0.00    +0.000 A 
ATOM     19  C   UNL     1     111.572 128.931 134.885  0.00  0.00    +0.000 A 
ATOM     20  C   UNL     1     111.195 129.394 135.455  0.00  0.00    +0.000 A 
ENDBRANCH   6  15
BRANCH   8  21
ATOM     21  O   UNL     1     110.303 126.694 135.176  0.00  0.00    +0.000 OA
ATOM     22  C   UNL     1     109.769 126.148 134.863  0.00  0.00    +0.000 C 
ENDBRANCH   8  21
BRANCH  11  23
ATOM     23  O   UNL     1     112.663 123.431 136.797  0.00  0.00    +0.000 OA
ATOM     24  C   UNL     1     112.116 123.008 137.248  0.00  0.00    +0.000 C 
ENDBRANCH  11  23
BRANCH  12  25
ATOM     25  O   UNL     1     113.806 124.544 137.353  0.00  0.00    +0.000 OA
BRANCH  25  26
ATOM     26  S   UNL     1     114.460 125.041 137.431  0.00  0.00    +0.000 S 
ATOM     27  O   UNL     1     115.113 125.539 137.508  0.00  0.00    +0.000 OA
ATOM     28  O   UNL     1     114.180 125.295 138.164  0.00  0.00    +0.000 OA
ATOM     29  O   UNL     1     114.740 124.788 136.697  0.00  0.00    +0.000 OA
ENDBRANCH  25  26
ENDBRANCH  12  25
TORSDOF 5
ENDMDL
MODEL 7
REMARK VINA RESULT:      -7.9      3.430      5.345
REMARK  Name = 5323515
REMARK  5 active torsions:
REMARK  status: ('A' for Active; 'I' for Inactive)
REMARK    1  A    between atoms: S_1  and  O_4
REMARK    2  A    between atoms: O_3  and  C_17
REMARK    3  A    between atoms: O_4  and  C_22
REMARK    4  A    between atoms: O_5  and  C_20
REMARK    5  A    between atoms: C_15  and  C_21
REMARK                            x       y       z     vdW  Elec       q    Type
REMARK                         _______ _______ _______ _____ _____    ______ ____
ROOT
ATOM      1  O   UNL     1     110.308 130.759 136.021  0.00  0.00    +0.000 OA
ATOM      2  O   UNL     1     112.267 131.311 138.071  0.00  0.00    +0.000 OA
ATOM      3  O   UNL     1     111.103 132.147 137.909  0.00  0.00    +0.000 OA
ATOM      4  C   UNL     1     111.277 131.031 137.034  0.00  0.00    +0.000 A 
ATOM      5  C   UNL     1     111.012 130.568 136.405  0.00  0.00    +0.000 A 
ATOM      6  C   UNL     1     109.868 131.412 136.266  0.00  0.00    +0.000 A 
ATOM      7  C   UNL     1     110.838 131.684 137.280  0.00  0.00    +0.000 A 
ATOM      8  C   UNL     1     110.133 131.875 136.895  0.00  0.00    +0.000 A 
ATOM      9  C   UNL     1     112.010 130.843 137.443  0.00  0.00    +0.000 A 
ATOM     10  C   UNL     1     111.462 129.884 136.140  0.00  0.00    +0.000 A 
ATOM     11  C   UNL     1     112.472 130.164 137.193  0.00  0.00    +0.000 A 
ATOM     12  C   UNL     1     112.196 129.681 136.537  0.00  0.00    +0.000 A 
ENDROOT
BRANCH   6  15
ATOM     13  O   UNL     1     107.041 131.104 135.986  0.00  0.00    +0.000 OA
ATOM     14  O   UNL     1     107.049 132.175 134.729  0.00  0.00    +0.000 OA
ATOM     15  C   UNL     1     109.164 131.603 135.882  0.00  0.00    +0.000 A 
ATOM     16  C   UNL     1     108.455 131.258 136.126  0.00  0.00    +0.000 A 
ATOM     17  C   UNL     1     109.168 132.138 135.254  0.00  0.00    +0.000 A 
ATOM     18  C   UNL     1     107.750 131.449 135.742  0.00  0.00    +0.000 A 
ATOM     19  C   UNL     1     108.463 132.329 134.870  0.00  0.00    +0.000 A 
ATOM     20  C   UNL     1     107.754 131.984 135.114  0.00  0.00    +0.000 A 
ENDBRANCH   6  15
BRANCH   8  21
ATOM     21  O   UNL     1     109.694 132.529 137.141  0.00  0.00    +0.000 OA
ATOM     22  C   UNL     1     109.967 133.002 137.759  0.00  0.00    +0.000 C 
ENDBRANCH   8  21
BRANCH  11  23
ATOM     23  O   UNL     1     113.177 129.975 137.579  0.00  0.00    +0.000 OA
ATOM     24  C   UNL     1     113.810 130.504 137.563  0.00  0.00    +0.000 C 
ENDBRANCH  11  23
BRANCH  12  25
ATOM     25  O   UNL     1     112.634 129.027 136.290  0.00  0.00    +0.000 OA
BRANCH  25  26
ATOM     26  S   UNL     1     112.298 128.476 135.776  0.00  0.00    +0.000 S 
ATOM     27  O   UNL     1     111.961 127.924 135.263  0.00  0.00    +0.000 OA
ATOM     28  O   UNL     1     112.616 128.881 135.132  0.00  0.00    +0.000 OA
ATOM     29  O   UNL     1     111.980 128.070 136.420  0.00  0.00    +0.000 OA
ENDBRANCH  25  26
ENDBRANCH  12  25
TORSDOF 5
ENDMDL
MODEL 8
REMARK VINA RESULT:      -7.8      2.319      5.129
REMARK  Name = 5323515
REMARK  5 active torsions:
REMARK  status: ('A' for Active; 'I' for Inactive)
REMARK    1  A    between atoms: S_1  and  O_4
REMARK    2  A    between atoms: O_3  and  C_17
REMARK    3  A    between atoms: O_4  and  C_22
REMARK    4  A    between atoms: O_5  and  C_20
REMARK    5  A    between atoms: C_15  and  C_21
REMARK                            x       y       z     vdW  Elec       q    Type
REMARK                         _______ _______ _______ _____ _____    ______ ____
ROOT
ATOM      1  O   UNL     1     110.957 127.055 136.433  0.00  0.00    +0.000 OA
ATOM      2  O   UNL     1     112.414 129.521 136.062  0.00  0.00    +0.000 OA
ATOM      3  O   UNL     1     113.105 128.272 136.263  0.00  0.00    +0.000 OA
ATOM      4  C   UNL     1     111.676 128.275 136.249  0.00  0.00    +0.000 A 
ATOM      5  C   UNL     1     110.960 127.870 136.306  0.00  0.00    +0.000 A 
ATOM      6  C   UNL     1     111.669 126.645 136.504  0.00  0.00    +0.000 A 
ATOM      7  C   UNL     1     112.389 127.866 136.320  0.00  0.00    +0.000 A 
ATOM      8  C   UNL     1     112.385 127.050 136.447  0.00  0.00    +0.000 A 
ATOM      9  C   UNL     1     111.694 129.125 136.117  0.00  0.00    +0.000 A 
ATOM     10  C   UNL     1     110.211 128.286 136.234  0.00  0.00    +0.000 A 
ATOM     11  C   UNL     1     110.955 129.557 136.042  0.00  0.00    +0.000 A 
ATOM     12  C   UNL     1     110.209 129.134 136.101  0.00  0.00    +0.000 A 
ENDROOT
BRANCH   6  15
ATOM     13  O   UNL     1     111.479 124.420 138.287  0.00  0.00    +0.000 OA
ATOM     14  O   UNL     1     111.655 123.384 137.013  0.00  0.00    +0.000 OA
ATOM     15  C   UNL     1     111.666 125.830 136.631  0.00  0.00    +0.000 A 
ATOM     16  C   UNL     1     111.574 125.533 137.395  0.00  0.00    +0.000 A 
ATOM     17  C   UNL     1     111.754 125.313 135.995  0.00  0.00    +0.000 A 
ATOM     18  C   UNL     1     111.571 124.718 137.523  0.00  0.00    +0.000 A 
ATOM     19  C   UNL     1     111.750 124.498 136.122  0.00  0.00    +0.000 A 
ATOM     20  C   UNL     1     111.659 124.200 136.886  0.00  0.00    +0.000 A 
ENDBRANCH   6  15
BRANCH   8  21
ATOM     21  O   UNL     1     113.098 126.641 136.518  0.00  0.00    +0.000 OA
ATOM     22  C   UNL     1     113.813 127.053 136.511  0.00  0.00    +0.000 C 
ENDBRANCH   8  21
BRANCH  11  23
ATOM     23  O   UNL     1     110.962 130.372 135.915  0.00  0.00    +0.000 OA
ATOM     24  C   UNL     1     111.235 130.879 136.505  0.00  0.00    +0.000 C 
ENDBRANCH  11  23
BRANCH  12  25
ATOM     25  O   UNL     1     109.495 129.541 136.031  0.00  0.00    +0.000 OA
BRANCH  25  26
ATOM     26  S   UNL     1     108.791 129.124 135.926  0.00  0.00    +0.000 S 
ATOM     27  O   UNL     1     108.087 128.707 135.821  0.00  0.00    +0.000 OA
ATOM     28  O   UNL     1     108.908 129.132 135.110  0.00  0.00    +0.000 OA
ATOM     29  O   UNL     1     108.673 129.117 136.743  0.00  0.00    +0.000 OA
ENDBRANCH  25  26
ENDBRANCH  12  25
TORSDOF 5
ENDMDL
MODEL 9
REMARK VINA RESULT:      -7.8      9.867     11.763
REMARK  Name = 5323515
REMARK  5 active torsions:
REMARK  status: ('A' for Active; 'I' for Inactive)
REMARK    1  A    between atoms: S_1  and  O_4
REMARK    2  A    between atoms: O_3  and  C_17
REMARK    3  A    between atoms: O_4  and  C_22
REMARK    4  A    between atoms: O_5  and  C_20
REMARK    5  A    between atoms: C_15  and  C_21
REMARK                            x       y       z     vdW  Elec       q    Type
REMARK                         _______ _______ _______ _____ _____    ______ ____
ROOT
ATOM      1  O   UNL     1     105.329 126.261 144.265  0.00  0.00    +0.000 OA
ATOM      2  O   UNL     1     107.127 125.893 146.495  0.00  0.00    +0.000 OA
ATOM      3  O   UNL     1     107.336 126.952 145.538  0.00  0.00    +0.000 OA
ATOM      4  C   UNL     1     106.218 126.078 145.368  0.00  0.00    +0.000 A 
ATOM      5  C   UNL     1     105.549 125.848 144.943  0.00  0.00    +0.000 A 
ATOM      6  C   UNL     1     105.778 126.905 144.009  0.00  0.00    +0.000 A 
ATOM      7  C   UNL     1     106.667 126.722 145.114  0.00  0.00    +0.000 A 
ATOM      8  C   UNL     1     106.446 127.135 144.434  0.00  0.00    +0.000 A 
ATOM      9  C   UNL     1     106.458 125.655 146.077  0.00  0.00    +0.000 A 
ATOM     10  C   UNL     1     105.073 125.179 145.198  0.00  0.00    +0.000 A 
ATOM     11  C   UNL     1     105.994 124.984 146.347  0.00  0.00    +0.000 A 
ATOM     12  C   UNL     1     105.297 124.744 145.905  0.00  0.00    +0.000 A 
ENDROOT
BRANCH   6  15
ATOM     13  O   UNL     1     105.815 127.192 141.167  0.00  0.00    +0.000 OA
ATOM     14  O   UNL     1     104.899 128.559 141.293  0.00  0.00    +0.000 OA
ATOM     15  C   UNL     1     105.558 127.319 143.331  0.00  0.00    +0.000 A 
ATOM     16  C   UNL     1     105.796 127.049 142.589  0.00  0.00    +0.000 A 
ATOM     17  C   UNL     1     105.100 128.001 143.394  0.00  0.00    +0.000 A 
ATOM     18  C   UNL     1     105.577 127.462 141.909  0.00  0.00    +0.000 A 
ATOM     19  C   UNL     1     104.880 128.415 142.715  0.00  0.00    +0.000 A 
ATOM     20  C   UNL     1     105.118 128.146 141.972  0.00  0.00    +0.000 A 
ENDBRANCH   6  15
BRANCH   8  21
ATOM     21  O   UNL     1     106.896 127.779 144.180  0.00  0.00    +0.000 OA
ATOM     22  C   UNL     1     107.282 128.256 144.731  0.00  0.00    +0.000 C 
ENDBRANCH   8  21
BRANCH  11  23
ATOM     23  O   UNL     1     106.217 124.573 147.027  0.00  0.00    +0.000 OA
ATOM     24  C   UNL     1     106.216 124.954 147.759  0.00  0.00    +0.000 C 
ENDBRANCH  11  23
BRANCH  12  25
ATOM     25  O   UNL     1     104.847 124.101 146.157  0.00  0.00    +0.000 OA
BRANCH  25  26
ATOM     26  S   UNL     1     104.245 123.805 145.676  0.00  0.00    +0.000 S 
ATOM     27  O   UNL     1     103.643 123.510 145.196  0.00  0.00    +0.000 OA
ATOM     28  O   UNL     1     103.708 124.322 146.031  0.00  0.00    +0.000 OA
ATOM     29  O   UNL     1     104.781 123.289 145.322  0.00  0.00    +0.000 OA
ENDBRANCH  25  26
ENDBRANCH  12  25
TORSDOF 5
ENDMDL
MODEL 10
REMARK VINA RESULT:      -7.8      2.963      4.676
REMARK  Name = 5323515
REMARK  5 active torsions:
REMARK  status: ('A' for Active; 'I' for Inactive)
REMARK    1  A    between atoms: S_1  and  O_4
REMARK    2  A    between atoms: O_3  and  C_17
REMARK    3  A    between atoms: O_4  and  C_22
REMARK    4  A    between atoms: O_5  and  C_20
REMARK    5  A    between atoms: C_15  and  C_21
REMARK                            x       y       z     vdW  Elec       q    Type
REMARK                         _______ _______ _______ _____ _____    ______ ____
ROOT
ATOM      1  O   UNL     1     111.722 126.227 138.133  0.00  0.00    +0.000 OA
ATOM      2  O   UNL     1     114.301 126.389 139.425  0.00  0.00    +0.000 OA
ATOM      3  O   UNL     1     114.188 126.043 138.029  0.00  0.00    +0.000 OA
ATOM      4  C   UNL     1     112.996 126.308 138.773  0.00  0.00    +0.000 A 
ATOM      5  C   UNL     1     112.174 126.369 138.808  0.00  0.00    +0.000 A 
ATOM      6  C   UNL     1     112.090 126.024 137.424  0.00  0.00    +0.000 A 
ATOM      7  C   UNL     1     113.366 126.104 138.064  0.00  0.00    +0.000 A 
ATOM      8  C   UNL     1     112.912 125.962 137.389  0.00  0.00    +0.000 A 
ATOM      9  C   UNL     1     113.480 126.453 139.469  0.00  0.00    +0.000 A 
ATOM     10  C   UNL     1     111.779 126.580 139.541  0.00  0.00    +0.000 A 
ATOM     11  C   UNL     1     113.102 126.665 140.211  0.00  0.00    +0.000 A 
ATOM     12  C   UNL     1     112.245 126.729 140.247  0.00  0.00    +0.000 A 
ENDROOT
BRANCH   6  15
ATOM     13  O   UNL     1     110.772 126.992 135.080  0.00  0.00    +0.000 OA
ATOM     14  O   UNL     1     110.278 125.457 134.724  0.00  0.00    +0.000 OA
ATOM     15  C   UNL     1     111.638 125.882 136.749  0.00  0.00    +0.000 A 
ATOM     16  C   UNL     1     111.431 126.508 136.252  0.00  0.00    +0.000 A 
ATOM     17  C   UNL     1     111.391 125.116 136.571  0.00  0.00    +0.000 A 
ATOM     18  C   UNL     1     110.978 126.367 135.577  0.00  0.00    +0.000 A 
ATOM     19  C   UNL     1     110.938 124.974 135.897  0.00  0.00    +0.000 A 
ATOM     20  C   UNL     1     110.732 125.599 135.400  0.00  0.00    +0.000 A 
ENDBRANCH   6  15
BRANCH   8  21
ATOM     21  O   UNL     1     113.282 125.759 136.680  0.00  0.00    +0.000 OA
ATOM     22  C   UNL     1     114.101 125.670 136.652  0.00  0.00    +0.000 C 
ENDBRANCH   8  21
BRANCH  11  23
ATOM     23  O   UNL     1     113.557 126.806 140.884  0.00  0.00    +0.000 OA
ATOM     24  C   UNL     1     114.095 127.432 140.894  0.00  0.00    +0.000 C 
ENDBRANCH  11  23
BRANCH  12  25
ATOM     25  O   UNL     1     111.874 126.932 140.955  0.00  0.00    +0.000 OA
BRANCH  25  26
ATOM     26  S   UNL     1     111.068 126.786 141.055  0.00  0.00    +0.000 S 
ATOM     27  O   UNL     1     110.262 126.639 141.155  0.00  0.00    +0.000 OA
ATOM     28  O   UNL     1     110.898 127.555 140.811  0.00  0.00    +0.000 OA
ATOM     29  O   UNL     1     111.238 126.016 141.299  0.00  0.00    +0.000 OA
ENDBRANCH  25  26
ENDBRANCH  12  25
TORSDOF 5
ENDMDL
