MODEL 1
REMARK VINA RESULT:      -8.0      0.000      0.000
REMARK  Name = 
REMARK  2 active torsions:
REMARK  status: ('A' for Active; 'I' for Inactive)
REMARK    1  A    between atoms: C_1  and  O_21
REMARK    2  A    between atoms: C_9  and  C_12
REMARK                            x       y       z     vdW  Elec       q    Type
REMARK                         _______ _______ _______ _____ _____    ______ ____
ROOT
ATOM      1  C   UNL     1     104.798 128.671 142.936  0.00  0.00    +0.000 A 
ATOM      2  C   UNL     1     104.720 128.162 142.110  0.00  0.00    +0.000 A 
ATOM      3  C   UNL     1     104.131 128.473 141.401  0.00  0.00    +0.000 A 
ATOM      4  C   UNL     1     103.620 129.293 141.518  0.00  0.00    +0.000 A 
ATOM      5  C   UNL     1     103.698 129.802 142.344  0.00  0.00    +0.000 A 
ATOM      6  C   UNL     1     104.288 129.490 143.053  0.00  0.00    +0.000 A 
ATOM      7  C   UNL     1     103.032 129.605 140.810  0.00  0.00    +0.000 A 
ATOM      8  C   UNL     1     102.520 130.424 140.926  0.00  0.00    +0.000 A 
ATOM      9  C   UNL     1     102.598 130.933 141.752  0.00  0.00    +0.000 A 
ATOM     10  O   UNL     1     103.188 130.621 142.461  0.00  0.00    +0.000 OA
ATOM     11  O   UNL     1     102.954 129.096 139.984  0.00  0.00    +0.000 OA
ATOM     12  O   UNL     1     104.053 127.965 140.576  0.00  0.00    +0.000 OA
ATOM     13  C   UNL     1     105.231 127.343 141.993  0.00  0.00    +0.000 C 
ATOM     14  C   UNL     1     104.366 129.998 143.879  0.00  0.00    +0.000 C 
ENDROOT
BRANCH   9  15
ATOM     15  C   UNL     1     102.088 131.752 141.869  0.00  0.00    +0.000 A 
ATOM     16  C   UNL     1     101.230 131.735 142.366  0.00  0.00    +0.000 A 
ATOM     17  C   UNL     1     100.710 132.570 142.485  0.00  0.00    +0.000 A 
ATOM     18  C   UNL     1     101.047 133.423 142.106  0.00  0.00    +0.000 A 
ATOM     19  C   UNL     1     101.904 133.439 141.609  0.00  0.00    +0.000 A 
ATOM     20  C   UNL     1     102.425 132.604 141.490  0.00  0.00    +0.000 A 
ENDBRANCH   9  15
BRANCH   1  21
ATOM     21  O   UNL     1     105.387 128.359 143.644  0.00  0.00    +0.000 OA
ATOM     22  C   UNL     1     106.840 128.785 143.663  0.00  0.00    +0.000 C 
ENDBRANCH   1  21
TORSDOF 2
ENDMDL
MODEL 2
REMARK VINA RESULT:      -7.9      7.598      8.763
REMARK  Name = 
REMARK  2 active torsions:
REMARK  status: ('A' for Active; 'I' for Inactive)
REMARK    1  A    between atoms: C_1  and  O_21
REMARK    2  A    between atoms: C_9  and  C_12
REMARK                            x       y       z     vdW  Elec       q    Type
REMARK                         _______ _______ _______ _____ _____    ______ ____
ROOT
ATOM      1  C   UNL     1     101.771 123.901 147.709  0.00  0.00    +0.000 A 
ATOM      2  C   UNL     1     101.668 123.569 146.800  0.00  0.00    +0.000 A 
ATOM      3  C   UNL     1     102.430 123.558 146.196  0.00  0.00    +0.000 A 
ATOM      4  C   UNL     1     103.297 123.880 146.502  0.00  0.00    +0.000 A 
ATOM      5  C   UNL     1     103.400 124.212 147.411  0.00  0.00    +0.000 A 
ATOM      6  C   UNL     1     102.636 124.222 148.014  0.00  0.00    +0.000 A 
ATOM      7  C   UNL     1     104.059 123.869 145.899  0.00  0.00    +0.000 A 
ATOM      8  C   UNL     1     104.926 124.190 146.204  0.00  0.00    +0.000 A 
ATOM      9  C   UNL     1     105.029 124.523 147.113  0.00  0.00    +0.000 A 
ATOM     10  O   UNL     1     104.265 124.533 147.716  0.00  0.00    +0.000 OA
ATOM     11  O   UNL     1     103.957 123.537 144.990  0.00  0.00    +0.000 OA
ATOM     12  O   UNL     1     102.328 123.226 145.288  0.00  0.00    +0.000 OA
ATOM     13  C   UNL     1     100.802 123.247 146.495  0.00  0.00    +0.000 C 
ATOM     14  C   UNL     1     102.739 124.554 148.922  0.00  0.00    +0.000 C 
ENDROOT
BRANCH   9  15
ATOM     15  C   UNL     1     105.894 124.844 147.418  0.00  0.00    +0.000 A 
ATOM     16  C   UNL     1     106.327 125.611 146.962  0.00  0.00    +0.000 A 
ATOM     17  C   UNL     1     107.210 125.938 147.273  0.00  0.00    +0.000 A 
ATOM     18  C   UNL     1     107.659 125.498 148.040  0.00  0.00    +0.000 A 
ATOM     19  C   UNL     1     107.227 124.732 148.495  0.00  0.00    +0.000 A 
ATOM     20  C   UNL     1     106.344 124.404 148.185  0.00  0.00    +0.000 A 
ENDBRANCH   9  15
BRANCH   1  21
ATOM     21  O   UNL     1     101.008 123.911 148.312  0.00  0.00    +0.000 OA
ATOM     22  C   UNL     1     100.762 122.742 149.241  0.00  0.00    +0.000 C 
ENDBRANCH   1  21
TORSDOF 2
ENDMDL
MODEL 3
REMARK VINA RESULT:      -7.6     10.610     12.440
REMARK  Name = 
REMARK  2 active torsions:
REMARK  status: ('A' for Active; 'I' for Inactive)
REMARK    1  A    between atoms: C_1  and  O_21
REMARK    2  A    between atoms: C_9  and  C_12
REMARK                            x       y       z     vdW  Elec       q    Type
REMARK                         _______ _______ _______ _____ _____    ______ ____
ROOT
ATOM      1  C   UNL     1     113.894 130.029 135.987  0.00  0.00    +0.000 A 
ATOM      2  C   UNL     1     113.497 130.411 136.789  0.00  0.00    +0.000 A 
ATOM      3  C   UNL     1     113.155 129.829 137.489  0.00  0.00    +0.000 A 
ATOM      4  C   UNL     1     113.211 128.862 137.386  0.00  0.00    +0.000 A 
ATOM      5  C   UNL     1     113.607 128.479 136.584  0.00  0.00    +0.000 A 
ATOM      6  C   UNL     1     113.949 129.063 135.885  0.00  0.00    +0.000 A 
ATOM      7  C   UNL     1     112.869 128.279 138.085  0.00  0.00    +0.000 A 
ATOM      8  C   UNL     1     112.924 127.313 137.984  0.00  0.00    +0.000 A 
ATOM      9  C   UNL     1     113.321 126.930 137.182  0.00  0.00    +0.000 A 
ATOM     10  O   UNL     1     113.662 127.514 136.482  0.00  0.00    +0.000 OA
ATOM     11  O   UNL     1     112.472 128.661 138.887  0.00  0.00    +0.000 OA
ATOM     12  O   UNL     1     112.759 130.211 138.290  0.00  0.00    +0.000 OA
ATOM     13  C   UNL     1     113.442 131.377 136.891  0.00  0.00    +0.000 C 
ATOM     14  C   UNL     1     114.346 128.681 135.083  0.00  0.00    +0.000 C 
ENDROOT
BRANCH   9  15
ATOM     15  C   UNL     1     113.376 125.965 137.080  0.00  0.00    +0.000 A 
ATOM     16  C   UNL     1     114.199 125.484 137.351  0.00  0.00    +0.000 A 
ATOM     17  C   UNL     1     114.255 124.500 137.247  0.00  0.00    +0.000 A 
ATOM     18  C   UNL     1     113.487 123.996 136.871  0.00  0.00    +0.000 A 
ATOM     19  C   UNL     1     112.665 124.477 136.601  0.00  0.00    +0.000 A 
ATOM     20  C   UNL     1     112.608 125.461 136.704  0.00  0.00    +0.000 A 
ENDBRANCH   9  15
BRANCH   1  21
ATOM     21  O   UNL     1     114.235 130.612 135.288  0.00  0.00    +0.000 OA
ATOM     22  C   UNL     1     115.710 130.952 135.239  0.00  0.00    +0.000 C 
ENDBRANCH   1  21
TORSDOF 2
ENDMDL
MODEL 4
REMARK VINA RESULT:      -7.6     10.697     11.976
REMARK  Name = 
REMARK  2 active torsions:
REMARK  status: ('A' for Active; 'I' for Inactive)
REMARK    1  A    between atoms: C_1  and  O_21
REMARK    2  A    between atoms: C_9  and  C_12
REMARK                            x       y       z     vdW  Elec       q    Type
REMARK                         _______ _______ _______ _____ _____    ______ ____
ROOT
ATOM      1  C   UNL     1     112.261 125.904 136.700  0.00  0.00    +0.000 A 
ATOM      2  C   UNL     1     111.415 126.050 136.243  0.00  0.00    +0.000 A 
ATOM      3  C   UNL     1     111.279 126.859 135.719  0.00  0.00    +0.000 A 
ATOM      4  C   UNL     1     111.989 127.521 135.653  0.00  0.00    +0.000 A 
ATOM      5  C   UNL     1     112.836 127.374 136.110  0.00  0.00    +0.000 A 
ATOM      6  C   UNL     1     112.971 126.565 136.634  0.00  0.00    +0.000 A 
ATOM      7  C   UNL     1     111.854 128.329 135.129  0.00  0.00    +0.000 A 
ATOM      8  C   UNL     1     112.564 128.991 135.063  0.00  0.00    +0.000 A 
ATOM      9  C   UNL     1     113.410 128.844 135.520  0.00  0.00    +0.000 A 
ATOM     10  O   UNL     1     113.545 128.035 136.044  0.00  0.00    +0.000 OA
ATOM     11  O   UNL     1     111.008 128.476 134.672  0.00  0.00    +0.000 OA
ATOM     12  O   UNL     1     110.433 127.005 135.262  0.00  0.00    +0.000 OA
ATOM     13  C   UNL     1     110.706 125.389 136.309  0.00  0.00    +0.000 C 
ATOM     14  C   UNL     1     113.817 126.418 137.091  0.00  0.00    +0.000 C 
ENDROOT
BRANCH   9  15
ATOM     15  C   UNL     1     114.119 129.505 135.454  0.00  0.00    +0.000 A 
ATOM     16  C   UNL     1     114.739 129.492 134.680  0.00  0.00    +0.000 A 
ATOM     17  C   UNL     1     115.462 130.166 134.612  0.00  0.00    +0.000 A 
ATOM     18  C   UNL     1     115.566 130.854 135.319  0.00  0.00    +0.000 A 
ATOM     19  C   UNL     1     114.947 130.868 136.092  0.00  0.00    +0.000 A 
ATOM     20  C   UNL     1     114.223 130.194 136.161  0.00  0.00    +0.000 A 
ENDBRANCH   9  15
BRANCH   1  21
ATOM     21  O   UNL     1     112.397 125.096 137.223  0.00  0.00    +0.000 OA
ATOM     22  C   UNL     1     112.981 123.860 136.571  0.00  0.00    +0.000 C 
ENDBRANCH   1  21
TORSDOF 2
ENDMDL
MODEL 5
REMARK VINA RESULT:      -7.5      9.605     12.047
REMARK  Name = 
REMARK  2 active torsions:
REMARK  status: ('A' for Active; 'I' for Inactive)
REMARK    1  A    between atoms: C_1  and  O_21
REMARK    2  A    between atoms: C_9  and  C_12
REMARK                            x       y       z     vdW  Elec       q    Type
REMARK                         _______ _______ _______ _____ _____    ______ ____
ROOT
ATOM      1  C   UNL     1     112.725 130.111 138.005  0.00  0.00    +0.000 A 
ATOM      2  C   UNL     1     113.104 130.538 137.217  0.00  0.00    +0.000 A 
ATOM      3  C   UNL     1     113.494 129.996 136.509  0.00  0.00    +0.000 A 
ATOM      4  C   UNL     1     113.504 129.026 136.590  0.00  0.00    +0.000 A 
ATOM      5  C   UNL     1     113.124 128.599 137.378  0.00  0.00    +0.000 A 
ATOM      6  C   UNL     1     112.735 129.142 138.085  0.00  0.00    +0.000 A 
ATOM      7  C   UNL     1     113.893 128.483 135.883  0.00  0.00    +0.000 A 
ATOM      8  C   UNL     1     113.903 127.514 135.963  0.00  0.00    +0.000 A 
ATOM      9  C   UNL     1     113.524 127.087 136.750  0.00  0.00    +0.000 A 
ATOM     10  O   UNL     1     113.134 127.630 137.458  0.00  0.00    +0.000 OA
ATOM     11  O   UNL     1     114.272 128.910 135.095  0.00  0.00    +0.000 OA
ATOM     12  O   UNL     1     113.873 130.422 135.723  0.00  0.00    +0.000 OA
ATOM     13  C   UNL     1     113.094 131.507 137.137  0.00  0.00    +0.000 C 
ATOM     14  C   UNL     1     112.356 128.715 138.872  0.00  0.00    +0.000 C 
ENDROOT
BRANCH   9  15
ATOM     15  C   UNL     1     113.534 126.118 136.830  0.00  0.00    +0.000 A 
ATOM     16  C   UNL     1     112.750 125.587 136.533  0.00  0.00    +0.000 A 
ATOM     17  C   UNL     1     112.761 124.600 136.615  0.00  0.00    +0.000 A 
ATOM     18  C   UNL     1     113.555 124.142 136.994  0.00  0.00    +0.000 A 
ATOM     19  C   UNL     1     114.338 124.672 137.291  0.00  0.00    +0.000 A 
ATOM     20  C   UNL     1     114.328 125.660 137.209  0.00  0.00    +0.000 A 
ENDBRANCH   9  15
BRANCH   1  21
ATOM     21  O   UNL     1     112.336 130.653 138.712  0.00  0.00    +0.000 OA
ATOM     22  C   UNL     1     110.872 131.035 138.654  0.00  0.00    +0.000 C 
ENDBRANCH   1  21
TORSDOF 2
ENDMDL
MODEL 6
REMARK VINA RESULT:      -7.5      8.523     10.349
REMARK  Name = 
REMARK  2 active torsions:
REMARK  status: ('A' for Active; 'I' for Inactive)
REMARK    1  A    between atoms: C_1  and  O_21
REMARK    2  A    between atoms: C_9  and  C_12
REMARK                            x       y       z     vdW  Elec       q    Type
REMARK                         _______ _______ _______ _____ _____    ______ ____
ROOT
ATOM      1  C   UNL     1     110.393 129.850 135.914  0.00  0.00    +0.000 A 
ATOM      2  C   UNL     1     109.427 129.828 135.800  0.00  0.00    +0.000 A 
ATOM      3  C   UNL     1     108.948 128.983 135.864  0.00  0.00    +0.000 A 
ATOM      4  C   UNL     1     109.437 128.160 136.042  0.00  0.00    +0.000 A 
ATOM      5  C   UNL     1     110.403 128.183 136.157  0.00  0.00    +0.000 A 
ATOM      6  C   UNL     1     110.880 129.029 136.092  0.00  0.00    +0.000 A 
ATOM      7  C   UNL     1     108.959 127.316 136.107  0.00  0.00    +0.000 A 
ATOM      8  C   UNL     1     109.447 126.493 136.285  0.00  0.00    +0.000 A 
ATOM      9  C   UNL     1     110.413 126.516 136.400  0.00  0.00    +0.000 A 
ATOM     10  O   UNL     1     110.890 127.361 136.335  0.00  0.00    +0.000 OA
ATOM     11  O   UNL     1     107.993 127.293 135.992  0.00  0.00    +0.000 OA
ATOM     12  O   UNL     1     107.983 128.961 135.750  0.00  0.00    +0.000 OA
ATOM     13  C   UNL     1     108.939 130.650 135.621  0.00  0.00    +0.000 C 
ATOM     14  C   UNL     1     111.846 129.051 136.207  0.00  0.00    +0.000 C 
ENDROOT
BRANCH   9  15
ATOM     15  C   UNL     1     110.901 125.694 136.578  0.00  0.00    +0.000 A 
ATOM     16  C   UNL     1     111.142 125.453 137.509  0.00  0.00    +0.000 A 
ATOM     17  C   UNL     1     111.639 124.615 137.691  0.00  0.00    +0.000 A 
ATOM     18  C   UNL     1     111.895 124.017 136.941  0.00  0.00    +0.000 A 
ATOM     19  C   UNL     1     111.654 124.258 136.011  0.00  0.00    +0.000 A 
ATOM     20  C   UNL     1     111.157 125.096 135.829  0.00  0.00    +0.000 A 
ENDBRANCH   9  15
BRANCH   1  21
ATOM     21  O   UNL     1     110.870 130.695 135.850  0.00  0.00    +0.000 OA
ATOM     22  C   UNL     1     111.113 131.523 137.093  0.00  0.00    +0.000 C 
ENDBRANCH   1  21
TORSDOF 2
ENDMDL
MODEL 7
REMARK VINA RESULT:      -7.5      4.262      7.647
REMARK  Name = 
REMARK  2 active torsions:
REMARK  status: ('A' for Active; 'I' for Inactive)
REMARK    1  A    between atoms: C_1  and  O_21
REMARK    2  A    between atoms: C_9  and  C_12
REMARK                            x       y       z     vdW  Elec       q    Type
REMARK                         _______ _______ _______ _____ _____    ______ ____
ROOT
ATOM      1  C   UNL     1     105.908 128.233 145.091  0.00  0.00    +0.000 A 
ATOM      2  C   UNL     1     105.690 127.652 144.342  0.00  0.00    +0.000 A 
ATOM      3  C   UNL     1     105.772 126.687 144.433  0.00  0.00    +0.000 A 
ATOM      4  C   UNL     1     106.073 126.303 145.276  0.00  0.00    +0.000 A 
ATOM      5  C   UNL     1     106.291 126.883 146.025  0.00  0.00    +0.000 A 
ATOM      6  C   UNL     1     106.208 127.849 145.932  0.00  0.00    +0.000 A 
ATOM      7  C   UNL     1     106.155 125.338 145.368  0.00  0.00    +0.000 A 
ATOM      8  C   UNL     1     106.455 124.953 146.210  0.00  0.00    +0.000 A 
ATOM      9  C   UNL     1     106.673 125.534 146.959  0.00  0.00    +0.000 A 
ATOM     10  O   UNL     1     106.591 126.499 146.866  0.00  0.00    +0.000 OA
ATOM     11  O   UNL     1     105.937 124.758 144.618  0.00  0.00    +0.000 OA
ATOM     12  O   UNL     1     105.554 126.107 143.684  0.00  0.00    +0.000 OA
ATOM     13  C   UNL     1     105.390 128.036 143.500  0.00  0.00    +0.000 C 
ATOM     14  C   UNL     1     106.426 128.429 146.682  0.00  0.00    +0.000 C 
ENDROOT
BRANCH   9  15
ATOM     15  C   UNL     1     106.973 125.150 147.800  0.00  0.00    +0.000 A 
ATOM     16  C   UNL     1     107.943 125.027 147.972  0.00  0.00    +0.000 A 
ATOM     17  C   UNL     1     108.248 124.635 148.829  0.00  0.00    +0.000 A 
ATOM     18  C   UNL     1     107.585 124.366 149.516  0.00  0.00    +0.000 A 
ATOM     19  C   UNL     1     106.617 124.489 149.345  0.00  0.00    +0.000 A 
ATOM     20  C   UNL     1     106.310 124.881 148.487  0.00  0.00    +0.000 A 
ENDBRANCH   9  15
BRANCH   1  21
ATOM     21  O   UNL     1     105.826 129.197 144.999  0.00  0.00    +0.000 OA
ATOM     22  C   UNL     1     104.500 129.873 145.274  0.00  0.00    +0.000 C 
ENDBRANCH   1  21
TORSDOF 2
ENDMDL
MODEL 8
REMARK VINA RESULT:      -7.5      9.936     11.963
REMARK  Name = 
REMARK  2 active torsions:
REMARK  status: ('A' for Active; 'I' for Inactive)
REMARK    1  A    between atoms: C_1  and  O_21
REMARK    2  A    between atoms: C_9  and  C_12
REMARK                            x       y       z     vdW  Elec       q    Type
REMARK                         _______ _______ _______ _____ _____    ______ ____
ROOT
ATOM      1  C   UNL     1     110.695 126.973 135.351  0.00  0.00    +0.000 A 
ATOM      2  C   UNL     1     111.042 126.219 135.858  0.00  0.00    +0.000 A 
ATOM      3  C   UNL     1     111.948 126.244 136.210  0.00  0.00    +0.000 A 
ATOM      4  C   UNL     1     112.508 127.025 136.054  0.00  0.00    +0.000 A 
ATOM      5  C   UNL     1     112.161 127.780 135.546  0.00  0.00    +0.000 A 
ATOM      6  C   UNL     1     111.254 127.753 135.195  0.00  0.00    +0.000 A 
ATOM      7  C   UNL     1     113.414 127.052 136.405  0.00  0.00    +0.000 A 
ATOM      8  C   UNL     1     113.975 127.832 136.249  0.00  0.00    +0.000 A 
ATOM      9  C   UNL     1     113.628 128.586 135.742  0.00  0.00    +0.000 A 
ATOM     10  O   UNL     1     112.721 128.559 135.390  0.00  0.00    +0.000 OA
ATOM     11  O   UNL     1     113.761 126.298 136.913  0.00  0.00    +0.000 OA
ATOM     12  O   UNL     1     112.295 125.491 136.717  0.00  0.00    +0.000 OA
ATOM     13  C   UNL     1     110.482 125.439 136.014  0.00  0.00    +0.000 C 
ATOM     14  C   UNL     1     110.907 128.507 134.687  0.00  0.00    +0.000 C 
ENDROOT
BRANCH   9  15
ATOM     15  C   UNL     1     114.187 129.366 135.586  0.00  0.00    +0.000 A 
ATOM     16  C   UNL     1     114.195 130.109 136.242  0.00  0.00    +0.000 A 
ATOM     17  C   UNL     1     114.766 130.904 136.083  0.00  0.00    +0.000 A 
ATOM     18  C   UNL     1     115.329 130.956 135.267  0.00  0.00    +0.000 A 
ATOM     19  C   UNL     1     115.320 130.213 134.612  0.00  0.00    +0.000 A 
ATOM     20  C   UNL     1     114.750 129.418 134.770  0.00  0.00    +0.000 A 
ENDBRANCH   9  15
BRANCH   1  21
ATOM     21  O   UNL     1     109.789 126.947 134.999  0.00  0.00    +0.000 OA
ATOM     22  C   UNL     1     108.636 127.457 135.839  0.00  0.00    +0.000 C 
ENDBRANCH   1  21
TORSDOF 2
ENDMDL
MODEL 9
REMARK VINA RESULT:      -7.4      7.690      9.013
REMARK  Name = 
REMARK  2 active torsions:
REMARK  status: ('A' for Active; 'I' for Inactive)
REMARK    1  A    between atoms: C_1  and  O_21
REMARK    2  A    between atoms: C_9  and  C_12
REMARK                            x       y       z     vdW  Elec       q    Type
REMARK                         _______ _______ _______ _____ _____    ______ ____
ROOT
ATOM      1  C   UNL     1     102.153 123.352 147.006  0.00  0.00    +0.000 A 
ATOM      2  C   UNL     1     101.661 123.749 147.746  0.00  0.00    +0.000 A 
ATOM      3  C   UNL     1     102.108 124.363 148.354  0.00  0.00    +0.000 A 
ATOM      4  C   UNL     1     103.048 124.579 148.223  0.00  0.00    +0.000 A 
ATOM      5  C   UNL     1     103.540 124.182 147.483  0.00  0.00    +0.000 A 
ATOM      6  C   UNL     1     103.091 123.569 146.875  0.00  0.00    +0.000 A 
ATOM      7  C   UNL     1     103.495 125.192 148.830  0.00  0.00    +0.000 A 
ATOM      8  C   UNL     1     104.435 125.409 148.699  0.00  0.00    +0.000 A 
ATOM      9  C   UNL     1     104.927 125.012 147.959  0.00  0.00    +0.000 A 
ATOM     10  O   UNL     1     104.478 124.398 147.351  0.00  0.00    +0.000 OA
ATOM     11  O   UNL     1     103.004 125.589 149.570  0.00  0.00    +0.000 OA
ATOM     12  O   UNL     1     101.617 124.759 149.093  0.00  0.00    +0.000 OA
ATOM     13  C   UNL     1     100.722 123.533 147.877  0.00  0.00    +0.000 C 
ATOM     14  C   UNL     1     103.583 123.172 146.135  0.00  0.00    +0.000 C 
ENDROOT
BRANCH   9  15
ATOM     15  C   UNL     1     105.865 125.228 147.828  0.00  0.00    +0.000 A 
ATOM     16  C   UNL     1     106.566 124.684 148.271  0.00  0.00    +0.000 A 
ATOM     17  C   UNL     1     107.523 124.905 148.137  0.00  0.00    +0.000 A 
ATOM     18  C   UNL     1     107.780 125.670 147.559  0.00  0.00    +0.000 A 
ATOM     19  C   UNL     1     107.079 126.213 147.117  0.00  0.00    +0.000 A 
ATOM     20  C   UNL     1     106.122 125.993 147.250  0.00  0.00    +0.000 A 
ENDBRANCH   9  15
BRANCH   1  21
ATOM     21  O   UNL     1     101.705 122.739 146.399  0.00  0.00    +0.000 OA
ATOM     22  C   UNL     1     100.965 123.276 145.191  0.00  0.00    +0.000 C 
ENDBRANCH   1  21
TORSDOF 2
ENDMDL
MODEL 10
REMARK VINA RESULT:      -7.4      1.237      4.617
REMARK  Name = 
REMARK  2 active torsions:
REMARK  status: ('A' for Active; 'I' for Inactive)
REMARK    1  A    between atoms: C_1  and  O_21
REMARK    2  A    between atoms: C_9  and  C_12
REMARK                            x       y       z     vdW  Elec       q    Type
REMARK                         _______ _______ _______ _____ _____    ______ ____
ROOT
ATOM      1  C   UNL     1     102.844 130.151 141.788  0.00  0.00    +0.000 A 
ATOM      2  C   UNL     1     102.971 129.547 141.036  0.00  0.00    +0.000 A 
ATOM      3  C   UNL     1     103.627 128.831 141.093  0.00  0.00    +0.000 A 
ATOM      4  C   UNL     1     104.156 128.719 141.902  0.00  0.00    +0.000 A 
ATOM      5  C   UNL     1     104.028 129.323 142.654  0.00  0.00    +0.000 A 
ATOM      6  C   UNL     1     103.372 130.039 142.596  0.00  0.00    +0.000 A 
ATOM      7  C   UNL     1     104.811 128.003 141.960  0.00  0.00    +0.000 A 
ATOM      8  C   UNL     1     105.341 127.891 142.769  0.00  0.00    +0.000 A 
ATOM      9  C   UNL     1     105.213 128.496 143.520  0.00  0.00    +0.000 A 
ATOM     10  O   UNL     1     104.557 129.212 143.462  0.00  0.00    +0.000 OA
ATOM     11  O   UNL     1     104.939 127.399 141.208  0.00  0.00    +0.000 OA
ATOM     12  O   UNL     1     103.754 128.227 140.342  0.00  0.00    +0.000 OA
ATOM     13  C   UNL     1     102.442 129.658 140.228  0.00  0.00    +0.000 C 
ATOM     14  C   UNL     1     103.245 130.644 143.348  0.00  0.00    +0.000 C 
ENDROOT
BRANCH   9  15
ATOM     15  C   UNL     1     105.742 128.384 144.329  0.00  0.00    +0.000 A 
ATOM     16  C   UNL     1     106.597 128.875 144.434  0.00  0.00    +0.000 A 
ATOM     17  C   UNL     1     107.135 128.761 145.258  0.00  0.00    +0.000 A 
ATOM     18  C   UNL     1     106.819 128.156 145.978  0.00  0.00    +0.000 A 
ATOM     19  C   UNL     1     105.965 127.665 145.872  0.00  0.00    +0.000 A 
ATOM     20  C   UNL     1     105.426 127.778 145.048  0.00  0.00    +0.000 A 
ENDBRANCH   9  15
BRANCH   1  21
ATOM     21  O   UNL     1     102.188 130.867 141.731  0.00  0.00    +0.000 OA
ATOM     22  C   UNL     1     102.614 132.250 141.287  0.00  0.00    +0.000 C 
ENDBRANCH   1  21
TORSDOF 2
ENDMDL
