MODEL 1
REMARK VINA RESULT:     -10.1      0.000      0.000
REMARK  Name = 131833497
REMARK  5 active torsions:
REMARK  status: ('A' for Active; 'I' for Inactive)
REMARK    1  A    between atoms: S_1  and  O_6
REMARK    2  A    between atoms: O_6  and  C_20
REMARK    3  A    between atoms: C_17  and  C_19
REMARK    4  A    between atoms: C_18  and  C_20
REMARK    5  A    between atoms: C_27  and  C_29
REMARK                            x       y       z     vdW  Elec       q    Type
REMARK                         _______ _______ _______ _____ _____    ______ ____
ROOT
ATOM      1  O   UNL     1     105.095 126.097 140.600  0.00  0.00    +0.000 OA
ATOM      2  O   UNL     1     106.731 123.806 141.092  0.00  0.00    +0.000 OA
ATOM      3  O   UNL     1     104.773 123.719 138.981  0.00  0.00    +0.000 OA
ATOM      4  O   UNL     1     104.104 126.093 139.553  0.00  0.00    +0.000 OA
ATOM      5  C   UNL     1     105.914 124.951 140.846  0.00  0.00    +0.000 A 
ATOM      6  C   UNL     1     105.316 125.324 140.416  0.00  0.00    +0.000 A 
ATOM      7  C   UNL     1     106.134 124.178 140.663  0.00  0.00    +0.000 A 
ATOM      8  C   UNL     1     104.938 124.921 139.802  0.00  0.00    +0.000 A 
ATOM      9  C   UNL     1     105.756 123.776 140.049  0.00  0.00    +0.000 A 
ATOM     10  C   UNL     1     105.159 124.148 139.619  0.00  0.00    +0.000 A 
ATOM     11  C   UNL     1     104.317 125.320 139.362  0.00  0.00    +0.000 A 
ATOM     12  C   UNL     1     104.150 124.101 138.530  0.00  0.00    +0.000 A 
ATOM     13  C   UNL     1     103.920 124.907 138.722  0.00  0.00    +0.000 A 
ENDROOT
BRANCH   5  21
ATOM     14  O   UNL     1     105.993 125.306 142.228  0.00  0.00    +0.000 OA
ATOM     15  O   UNL     1     108.017 126.654 141.767  0.00  0.00    +0.000 OA
ATOM     16  O   UNL     1     107.263 125.850 140.539  0.00  0.00    +0.000 OA
ATOM     17  O   UNL     1     107.421 126.559 143.303  0.00  0.00    +0.000 OA
ATOM     18  C   UNL     1     107.342 126.205 141.921  0.00  0.00    +0.000 C 
ATOM     19  C   UNL     1     106.966 125.803 141.306  0.00  0.00    +0.000 C 
ATOM     20  C   UNL     1     107.045 126.157 142.688  0.00  0.00    +0.000 C 
ATOM     21  C   UNL     1     106.291 125.353 141.460  0.00  0.00    +0.000 C 
ATOM     22  C   UNL     1     106.370 125.708 142.842  0.00  0.00    +0.000 C 
BRANCH  22  23
ATOM     23  C   UNL     1     106.072 125.660 143.610  0.00  0.00    +0.000 C 
BRANCH  23  24
ATOM     24  O   UNL     1     105.719 124.963 143.872  0.00  0.00    +0.000 OA
BRANCH  24  25
ATOM     25  S   UNL     1     105.534 124.870 144.671  0.00  0.00    +0.000 S 
ATOM     26  O   UNL     1     105.348 124.778 145.470  0.00  0.00    +0.000 OA
ATOM     27  O   UNL     1     104.971 125.471 144.610  0.00  0.00    +0.000 OA
ATOM     28  O   UNL     1     106.096 124.270 144.732  0.00  0.00    +0.000 OA
ENDBRANCH  24  25
ENDBRANCH  23  24
ENDBRANCH  22  23
ENDBRANCH   5  21
BRANCH  12  29
ATOM     29  C   UNL     1     103.774 123.697 137.917  0.00  0.00    +0.000 A 
ATOM     30  C   UNL     1     102.970 123.519 137.972  0.00  0.00    +0.000 A 
ATOM     31  C   UNL     1     104.201 123.471 137.248  0.00  0.00    +0.000 A 
ATOM     32  C   UNL     1     102.594 123.115 137.359  0.00  0.00    +0.000 A 
ATOM     33  C   UNL     1     103.825 123.067 136.635  0.00  0.00    +0.000 A 
ATOM     34  C   UNL     1     103.022 122.889 136.690  0.00  0.00    +0.000 A 
ENDBRANCH  12  29
TORSDOF 5
ENDMDL
MODEL 2
REMARK VINA RESULT:      -9.9      3.972      7.031
REMARK  Name = 131833497
REMARK  5 active torsions:
REMARK  status: ('A' for Active; 'I' for Inactive)
REMARK    1  A    between atoms: S_1  and  O_6
REMARK    2  A    between atoms: O_6  and  C_20
REMARK    3  A    between atoms: C_17  and  C_19
REMARK    4  A    between atoms: C_18  and  C_20
REMARK    5  A    between atoms: C_27  and  C_29
REMARK                            x       y       z     vdW  Elec       q    Type
REMARK                         _______ _______ _______ _____ _____    ______ ____
ROOT
ATOM      1  O   UNL     1     106.995 127.363 145.125  0.00  0.00    +0.000 OA
ATOM      2  O   UNL     1     105.616 125.103 144.047  0.00  0.00    +0.000 OA
ATOM      3  O   UNL     1     106.521 125.037 146.782  0.00  0.00    +0.000 OA
ATOM      4  O   UNL     1     107.464 127.369 146.489  0.00  0.00    +0.000 OA
ATOM      5  C   UNL     1     106.305 126.233 144.586  0.00  0.00    +0.000 A 
ATOM      6  C   UNL     1     106.687 126.603 145.217  0.00  0.00    +0.000 A 
ATOM      7  C   UNL     1     105.997 125.473 144.678  0.00  0.00    +0.000 A 
ATOM      8  C   UNL     1     106.759 126.213 145.940  0.00  0.00    +0.000 A 
ATOM      9  C   UNL     1     106.070 125.084 145.402  0.00  0.00    +0.000 A 
ATOM     10  C   UNL     1     106.451 125.453 146.033  0.00  0.00    +0.000 A 
ATOM     11  C   UNL     1     107.159 126.610 146.591  0.00  0.00    +0.000 A 
ATOM     12  C   UNL     1     106.917 125.417 147.442  0.00  0.00    +0.000 A 
ATOM     13  C   UNL     1     107.239 126.209 147.346  0.00  0.00    +0.000 A 
ENDROOT
BRANCH   5  21
ATOM     14  O   UNL     1     106.834 126.565 143.301  0.00  0.00    +0.000 OA
ATOM     15  O   UNL     1     104.813 127.908 142.816  0.00  0.00    +0.000 OA
ATOM     16  O   UNL     1     104.957 127.128 144.263  0.00  0.00    +0.000 OA
ATOM     17  O   UNL     1     106.016 127.793 141.692  0.00  0.00    +0.000 OA
ATOM     18  C   UNL     1     105.486 127.461 142.977  0.00  0.00    +0.000 C 
ATOM     19  C   UNL     1     105.558 127.071 143.701  0.00  0.00    +0.000 C 
ATOM     20  C   UNL     1     106.087 127.403 142.416  0.00  0.00    +0.000 C 
ATOM     21  C   UNL     1     106.232 126.623 143.863  0.00  0.00    +0.000 C 
ATOM     22  C   UNL     1     106.761 126.955 142.578  0.00  0.00    +0.000 C 
BRANCH  22  23
ATOM     23  C   UNL     1     107.363 126.897 142.016  0.00  0.00    +0.000 C 
BRANCH  23  24
ATOM     24  O   UNL     1     108.062 126.500 142.200  0.00  0.00    +0.000 OA
BRANCH  24  25
ATOM     25  S   UNL     1     108.671 126.459 141.645  0.00  0.00    +0.000 S 
ATOM     26  O   UNL     1     109.281 126.420 141.091  0.00  0.00    +0.000 OA
ATOM     27  O   UNL     1     109.014 127.135 141.974  0.00  0.00    +0.000 OA
ATOM     28  O   UNL     1     108.329 125.785 141.317  0.00  0.00    +0.000 OA
ENDBRANCH  24  25
ENDBRANCH  23  24
ENDBRANCH  22  23
ENDBRANCH   5  21
BRANCH  12  29
ATOM     29  C   UNL     1     106.989 125.025 148.165  0.00  0.00    +0.000 A 
ATOM     30  C   UNL     1     107.714 124.698 148.386  0.00  0.00    +0.000 A 
ATOM     31  C   UNL     1     106.337 124.959 148.665  0.00  0.00    +0.000 A 
ATOM     32  C   UNL     1     107.786 124.306 149.109  0.00  0.00    +0.000 A 
ATOM     33  C   UNL     1     106.409 124.567 149.387  0.00  0.00    +0.000 A 
ATOM     34  C   UNL     1     107.133 124.241 149.609  0.00  0.00    +0.000 A 
ENDBRANCH  12  29
TORSDOF 5
ENDMDL
MODEL 3
REMARK VINA RESULT:      -9.9      7.965      9.080
REMARK  Name = 131833497
REMARK  5 active torsions:
REMARK  status: ('A' for Active; 'I' for Inactive)
REMARK    1  A    between atoms: S_1  and  O_6
REMARK    2  A    between atoms: O_6  and  C_20
REMARK    3  A    between atoms: C_17  and  C_19
REMARK    4  A    between atoms: C_18  and  C_20
REMARK    5  A    between atoms: C_27  and  C_29
REMARK                            x       y       z     vdW  Elec       q    Type
REMARK                         _______ _______ _______ _____ _____    ______ ____
ROOT
ATOM      1  O   UNL     1     112.365 128.497 139.334  0.00  0.00    +0.000 OA
ATOM      2  O   UNL     1     114.079 127.252 141.252  0.00  0.00    +0.000 OA
ATOM      3  O   UNL     1     113.707 126.018 138.675  0.00  0.00    +0.000 OA
ATOM      4  O   UNL     1     112.153 127.911 138.033  0.00  0.00    +0.000 OA
ATOM      5  C   UNL     1     113.222 127.874 140.294  0.00  0.00    +0.000 A 
ATOM      6  C   UNL     1     112.872 127.882 139.546  0.00  0.00    +0.000 A 
ATOM      7  C   UNL     1     113.729 127.259 140.506  0.00  0.00    +0.000 A 
ATOM      8  C   UNL     1     113.029 127.273 139.012  0.00  0.00    +0.000 A 
ATOM      9  C   UNL     1     113.885 126.651 139.970  0.00  0.00    +0.000 A 
ATOM     10  C   UNL     1     113.536 126.658 139.224  0.00  0.00    +0.000 A 
ATOM     11  C   UNL     1     112.657 127.293 138.236  0.00  0.00    +0.000 A 
ATOM     12  C   UNL     1     113.345 126.020 137.896  0.00  0.00    +0.000 A 
ATOM     13  C   UNL     1     112.817 126.662 137.675  0.00  0.00    +0.000 A 
ENDROOT
BRANCH   5  21
ATOM     14  O   UNL     1     113.507 129.180 140.800  0.00  0.00    +0.000 OA
ATOM     15  O   UNL     1     111.714 128.917 142.486  0.00  0.00    +0.000 OA
ATOM     16  O   UNL     1     112.027 127.699 141.417  0.00  0.00    +0.000 OA
ATOM     17  O   UNL     1     112.596 130.310 142.430  0.00  0.00    +0.000 OA
ATOM     18  C   UNL     1     112.311 129.005 141.924  0.00  0.00    +0.000 C 
ATOM     19  C   UNL     1     112.467 128.395 141.390  0.00  0.00    +0.000 C 
ATOM     20  C   UNL     1     112.752 129.701 141.896  0.00  0.00    +0.000 C 
ATOM     21  C   UNL     1     113.065 128.483 140.828  0.00  0.00    +0.000 C 
ATOM     22  C   UNL     1     113.350 129.788 141.335  0.00  0.00    +0.000 C 
BRANCH  22  23
ATOM     23  C   UNL     1     113.792 130.486 141.307  0.00  0.00    +0.000 C 
BRANCH  23  24
ATOM     24  O   UNL     1     114.530 130.491 140.939  0.00  0.00    +0.000 OA
BRANCH  24  25
ATOM     25  S   UNL     1     114.919 131.206 140.808  0.00  0.00    +0.000 S 
ATOM     26  O   UNL     1     115.308 131.922 140.676  0.00  0.00    +0.000 OA
ATOM     27  O   UNL     1     114.640 131.215 140.031  0.00  0.00    +0.000 OA
ATOM     28  O   UNL     1     115.198 131.197 141.584  0.00  0.00    +0.000 OA
ENDBRANCH  24  25
ENDBRANCH  23  24
ENDBRANCH  22  23
ENDBRANCH   5  21
BRANCH  12  29
ATOM     29  C   UNL     1     113.503 125.411 137.363  0.00  0.00    +0.000 A 
ATOM     30  C   UNL     1     112.974 124.782 137.286  0.00  0.00    +0.000 A 
ATOM     31  C   UNL     1     114.191 125.430 136.907  0.00  0.00    +0.000 A 
ATOM     32  C   UNL     1     113.133 124.173 136.754  0.00  0.00    +0.000 A 
ATOM     33  C   UNL     1     114.349 124.820 136.375  0.00  0.00    +0.000 A 
ATOM     34  C   UNL     1     113.820 124.192 136.298  0.00  0.00    +0.000 A 
ENDBRANCH  12  29
TORSDOF 5
ENDMDL
MODEL 4
REMARK VINA RESULT:      -9.8      1.136      2.441
REMARK  Name = 131833497
REMARK  5 active torsions:
REMARK  status: ('A' for Active; 'I' for Inactive)
REMARK    1  A    between atoms: S_1  and  O_6
REMARK    2  A    between atoms: O_6  and  C_20
REMARK    3  A    between atoms: C_17  and  C_19
REMARK    4  A    between atoms: C_18  and  C_20
REMARK    5  A    between atoms: C_27  and  C_29
REMARK                            x       y       z     vdW  Elec       q    Type
REMARK                         _______ _______ _______ _____ _____    ______ ____
ROOT
ATOM      1  O   UNL     1     105.096 125.994 140.535  0.00  0.00    +0.000 OA
ATOM      2  O   UNL     1     106.670 123.671 141.073  0.00  0.00    +0.000 OA
ATOM      3  O   UNL     1     104.786 123.630 138.894  0.00  0.00    +0.000 OA
ATOM      4  O   UNL     1     104.142 126.014 139.453  0.00  0.00    +0.000 OA
ATOM      5  C   UNL     1     105.883 124.832 140.804  0.00  0.00    +0.000 A 
ATOM      6  C   UNL     1     105.308 125.218 140.355  0.00  0.00    +0.000 A 
ATOM      7  C   UNL     1     106.095 124.055 140.624  0.00  0.00    +0.000 A 
ATOM      8  C   UNL     1     104.945 124.825 139.726  0.00  0.00    +0.000 A 
ATOM      9  C   UNL     1     105.732 123.664 139.995  0.00  0.00    +0.000 A 
ATOM     10  C   UNL     1     105.157 124.049 139.546  0.00  0.00    +0.000 A 
ATOM     11  C   UNL     1     104.347 125.238 139.266  0.00  0.00    +0.000 A 
ATOM     12  C   UNL     1     104.187 124.026 138.423  0.00  0.00    +0.000 A 
ATOM     13  C   UNL     1     103.966 124.835 138.610  0.00  0.00    +0.000 A 
ENDROOT
BRANCH   5  21
ATOM     14  O   UNL     1     106.892 125.719 141.292  0.00  0.00    +0.000 OA
ATOM     15  O   UNL     1     106.044 125.414 143.597  0.00  0.00    +0.000 OA
ATOM     16  O   UNL     1     105.318 124.629 142.341  0.00  0.00    +0.000 OA
ATOM     17  O   UNL     1     107.336 126.402 143.317  0.00  0.00    +0.000 OA
ATOM     18  C   UNL     1     106.327 125.516 142.829  0.00  0.00    +0.000 C 
ATOM     19  C   UNL     1     105.963 125.123 142.201  0.00  0.00    +0.000 C 
ATOM     20  C   UNL     1     106.972 126.009 142.689  0.00  0.00    +0.000 C 
ATOM     21  C   UNL     1     106.246 125.224 141.433  0.00  0.00    +0.000 C 
ATOM     22  C   UNL     1     107.255 126.111 141.921  0.00  0.00    +0.000 C 
BRANCH  22  23
ATOM     23  C   UNL     1     107.901 126.605 141.781  0.00  0.00    +0.000 C 
BRANCH  23  24
ATOM     24  O   UNL     1     108.352 126.509 141.096  0.00  0.00    +0.000 OA
BRANCH  24  25
ATOM     25  S   UNL     1     109.003 126.997 140.962  0.00  0.00    +0.000 S 
ATOM     26  O   UNL     1     109.656 127.483 140.827  0.00  0.00    +0.000 OA
ATOM     27  O   UNL     1     109.505 126.399 141.232  0.00  0.00    +0.000 OA
ATOM     28  O   UNL     1     108.503 127.593 140.691  0.00  0.00    +0.000 OA
ENDBRANCH  24  25
ENDBRANCH  23  24
ENDBRANCH  22  23
ENDBRANCH   5  21
BRANCH  12  29
ATOM     29  C   UNL     1     103.825 123.632 137.794  0.00  0.00    +0.000 A 
ATOM     30  C   UNL     1     104.280 123.361 137.161  0.00  0.00    +0.000 A 
ATOM     31  C   UNL     1     103.010 123.508 137.799  0.00  0.00    +0.000 A 
ATOM     32  C   UNL     1     103.918 122.967 136.532  0.00  0.00    +0.000 A 
ATOM     33  C   UNL     1     102.648 123.114 137.171  0.00  0.00    +0.000 A 
ATOM     34  C   UNL     1     103.103 122.844 136.538  0.00  0.00    +0.000 A 
ENDBRANCH  12  29
TORSDOF 5
ENDMDL
MODEL 5
REMARK VINA RESULT:      -9.8      6.976      8.648
REMARK  Name = 131833497
REMARK  5 active torsions:
REMARK  status: ('A' for Active; 'I' for Inactive)
REMARK    1  A    between atoms: S_1  and  O_6
REMARK    2  A    between atoms: O_6  and  C_20
REMARK    3  A    between atoms: C_17  and  C_19
REMARK    4  A    between atoms: C_18  and  C_20
REMARK    5  A    between atoms: C_27  and  C_29
REMARK                            x       y       z     vdW  Elec       q    Type
REMARK                         _______ _______ _______ _____ _____    ______ ____
ROOT
ATOM      1  O   UNL     1     111.139 129.034 135.983  0.00  0.00    +0.000 OA
ATOM      2  O   UNL     1     109.449 127.970 138.027  0.00  0.00    +0.000 OA
ATOM      3  O   UNL     1     111.908 126.617 137.378  0.00  0.00    +0.000 OA
ATOM      4  O   UNL     1     112.378 128.386 135.628  0.00  0.00    +0.000 OA
ATOM      5  C   UNL     1     110.294 128.502 137.006  0.00  0.00    +0.000 A 
ATOM      6  C   UNL     1     110.983 128.459 136.554  0.00  0.00    +0.000 A 
ATOM      7  C   UNL     1     110.138 127.927 137.576  0.00  0.00    +0.000 A 
ATOM      8  C   UNL     1     111.516 127.841 136.674  0.00  0.00    +0.000 A 
ATOM      9  C   UNL     1     110.672 127.309 137.695  0.00  0.00    +0.000 A 
ATOM     10  C   UNL     1     111.360 127.266 137.244  0.00  0.00    +0.000 A 
ATOM     11  C   UNL     1     112.231 127.807 136.196  0.00  0.00    +0.000 A 
ATOM     12  C   UNL     1     112.627 126.567 136.911  0.00  0.00    +0.000 A 
ATOM     13  C   UNL     1     112.790 127.166 136.316  0.00  0.00    +0.000 A 
ENDROOT
BRANCH   5  21
ATOM     14  O   UNL     1     109.860 129.834 137.289  0.00  0.00    +0.000 OA
ATOM     15  O   UNL     1     107.966 129.551 135.722  0.00  0.00    +0.000 OA
ATOM     16  O   UNL     1     109.031 128.313 135.961  0.00  0.00    +0.000 OA
ATOM     17  O   UNL     1     108.163 130.977 136.528  0.00  0.00    +0.000 OA
ATOM     18  C   UNL     1     108.597 129.645 136.244  0.00  0.00    +0.000 C 
ATOM     19  C   UNL     1     109.129 129.026 136.363  0.00  0.00    +0.000 C 
ATOM     20  C   UNL     1     108.696 130.358 136.647  0.00  0.00    +0.000 C 
ATOM     21  C   UNL     1     109.761 129.120 136.886  0.00  0.00    +0.000 C 
ATOM     22  C   UNL     1     109.327 130.452 137.170  0.00  0.00    +0.000 C 
BRANCH  22  23
ATOM     23  C   UNL     1     109.426 131.165 137.573  0.00  0.00    +0.000 C 
BRANCH  23  24
ATOM     24  O   UNL     1     109.948 131.209 138.210  0.00  0.00    +0.000 OA
BRANCH  24  25
ATOM     25  S   UNL     1     110.061 131.927 138.601  0.00  0.00    +0.000 S 
ATOM     26  O   UNL     1     110.176 132.645 138.991  0.00  0.00    +0.000 OA
ATOM     27  O   UNL     1     110.691 132.102 138.096  0.00  0.00    +0.000 OA
ATOM     28  O   UNL     1     109.433 131.752 139.105  0.00  0.00    +0.000 OA
ENDBRANCH  24  25
ENDBRANCH  23  24
ENDBRANCH  22  23
ENDBRANCH   5  21
BRANCH  12  29
ATOM     29  C   UNL     1     113.159 125.948 137.032  0.00  0.00    +0.000 A 
ATOM     30  C   UNL     1     113.749 126.017 137.605  0.00  0.00    +0.000 A 
ATOM     31  C   UNL     1     113.100 125.259 136.581  0.00  0.00    +0.000 A 
ATOM     32  C   UNL     1     114.281 125.398 137.726  0.00  0.00    +0.000 A 
ATOM     33  C   UNL     1     113.632 124.640 136.703  0.00  0.00    +0.000 A 
ATOM     34  C   UNL     1     114.222 124.710 137.275  0.00  0.00    +0.000 A 
ENDBRANCH  12  29
TORSDOF 5
ENDMDL
MODEL 6
REMARK VINA RESULT:      -9.7      8.217      9.425
REMARK  Name = 131833497
REMARK  5 active torsions:
REMARK  status: ('A' for Active; 'I' for Inactive)
REMARK    1  A    between atoms: S_1  and  O_6
REMARK    2  A    between atoms: O_6  and  C_20
REMARK    3  A    between atoms: C_17  and  C_19
REMARK    4  A    between atoms: C_18  and  C_20
REMARK    5  A    between atoms: C_27  and  C_29
REMARK                            x       y       z     vdW  Elec       q    Type
REMARK                         _______ _______ _______ _____ _____    ______ ____
ROOT
ATOM      1  O   UNL     1     111.635 128.977 138.044  0.00  0.00    +0.000 OA
ATOM      2  O   UNL     1     112.437 129.543 135.360  0.00  0.00    +0.000 OA
ATOM      3  O   UNL     1     113.164 127.023 136.554  0.00  0.00    +0.000 OA
ATOM      4  O   UNL     1     111.979 127.728 138.677  0.00  0.00    +0.000 OA
ATOM      5  C   UNL     1     112.036 129.260 136.702  0.00  0.00    +0.000 A 
ATOM      6  C   UNL     1     112.020 128.750 137.351  0.00  0.00    +0.000 A 
ATOM      7  C   UNL     1     112.422 129.034 136.008  0.00  0.00    +0.000 A 
ATOM      8  C   UNL     1     112.390 128.014 137.306  0.00  0.00    +0.000 A 
ATOM      9  C   UNL     1     112.791 128.297 135.964  0.00  0.00    +0.000 A 
ATOM     10  C   UNL     1     112.776 127.788 136.612  0.00  0.00    +0.000 A 
ATOM     11  C   UNL     1     112.366 127.492 137.989  0.00  0.00    +0.000 A 
ATOM     12  C   UNL     1     113.151 126.489 137.226  0.00  0.00    +0.000 A 
ATOM     13  C   UNL     1     112.749 126.725 137.948  0.00  0.00    +0.000 A 
ENDROOT
BRANCH   5  21
ATOM     14  O   UNL     1     110.863 130.065 136.569  0.00  0.00    +0.000 OA
ATOM     15  O   UNL     1     112.159 132.065 137.238  0.00  0.00    +0.000 OA
ATOM     16  O   UNL     1     112.900 130.593 137.148  0.00  0.00    +0.000 OA
ATOM     17  O   UNL     1     110.554 132.203 136.882  0.00  0.00    +0.000 OA
ATOM     18  C   UNL     1     111.727 131.398 137.015  0.00  0.00    +0.000 C 
ATOM     19  C   UNL     1     112.098 130.663 136.970  0.00  0.00    +0.000 C 
ATOM     20  C   UNL     1     110.925 131.468 136.837  0.00  0.00    +0.000 C 
ATOM     21  C   UNL     1     111.666 129.996 136.747  0.00  0.00    +0.000 C 
ATOM     22  C   UNL     1     110.493 130.801 136.614  0.00  0.00    +0.000 C 
BRANCH  22  23
ATOM     23  C   UNL     1     109.690 130.870 136.436  0.00  0.00    +0.000 C 
BRANCH  23  24
ATOM     24  O   UNL     1     109.267 130.210 136.180  0.00  0.00    +0.000 OA
BRANCH  24  25
ATOM     25  S   UNL     1     108.458 130.273 136.031  0.00  0.00    +0.000 S 
ATOM     26  O   UNL     1     107.649 130.336 135.880  0.00  0.00    +0.000 OA
ATOM     27  O   UNL     1     108.617 130.430 135.236  0.00  0.00    +0.000 OA
ATOM     28  O   UNL     1     108.298 130.116 136.824  0.00  0.00    +0.000 OA
ENDBRANCH  24  25
ENDBRANCH  23  24
ENDBRANCH  22  23
ENDBRANCH   5  21
BRANCH  12  29
ATOM     29  C   UNL     1     113.522 125.753 137.178  0.00  0.00    +0.000 A 
ATOM     30  C   UNL     1     113.103 125.097 136.906  0.00  0.00    +0.000 A 
ATOM     31  C   UNL     1     114.312 125.674 137.404  0.00  0.00    +0.000 A 
ATOM     32  C   UNL     1     113.473 124.361 136.859  0.00  0.00    +0.000 A 
ATOM     33  C   UNL     1     114.682 124.938 137.356  0.00  0.00    +0.000 A 
ATOM     34  C   UNL     1     114.263 124.282 137.084  0.00  0.00    +0.000 A 
ENDBRANCH  12  29
TORSDOF 5
ENDMDL
MODEL 7
REMARK VINA RESULT:      -9.7      7.608      8.517
REMARK  Name = 131833497
REMARK  5 active torsions:
REMARK  status: ('A' for Active; 'I' for Inactive)
REMARK    1  A    between atoms: S_1  and  O_6
REMARK    2  A    between atoms: O_6  and  C_20
REMARK    3  A    between atoms: C_17  and  C_19
REMARK    4  A    between atoms: C_18  and  C_20
REMARK    5  A    between atoms: C_27  and  C_29
REMARK                            x       y       z     vdW  Elec       q    Type
REMARK                         _______ _______ _______ _____ _____    ______ ____
ROOT
ATOM      1  O   UNL     1     112.492 128.859 139.336  0.00  0.00    +0.000 OA
ATOM      2  O   UNL     1     114.386 127.813 141.204  0.00  0.00    +0.000 OA
ATOM      3  O   UNL     1     113.777 126.317 138.819  0.00  0.00    +0.000 OA
ATOM      4  O   UNL     1     112.160 128.140 138.130  0.00  0.00    +0.000 OA
ATOM      5  C   UNL     1     113.440 128.336 140.271  0.00  0.00    +0.000 A 
ATOM      6  C   UNL     1     113.020 128.266 139.563  0.00  0.00    +0.000 A 
ATOM      7  C   UNL     1     113.967 127.744 140.498  0.00  0.00    +0.000 A 
ATOM      8  C   UNL     1     113.128 127.604 139.084  0.00  0.00    +0.000 A 
ATOM      9  C   UNL     1     114.075 127.081 140.017  0.00  0.00    +0.000 A 
ATOM     10  C   UNL     1     113.656 127.012 139.311  0.00  0.00    +0.000 A 
ATOM     11  C   UNL     1     112.685 127.543 138.349  0.00  0.00    +0.000 A 
ATOM     12  C   UNL     1     113.343 126.239 138.082  0.00  0.00    +0.000 A 
ATOM     13  C   UNL     1     112.793 126.856 137.845  0.00  0.00    +0.000 A 
ENDROOT
BRANCH   5  21
ATOM     14  O   UNL     1     112.743 128.995 141.330  0.00  0.00    +0.000 OA
ATOM     15  O   UNL     1     114.178 130.990 141.031  0.00  0.00    +0.000 OA
ATOM     16  O   UNL     1     114.396 129.666 140.071  0.00  0.00    +0.000 OA
ATOM     17  O   UNL     1     113.004 130.984 142.191  0.00  0.00    +0.000 OA
ATOM     18  C   UNL     1     113.700 130.325 141.131  0.00  0.00    +0.000 C 
ATOM     19  C   UNL     1     113.809 129.663 140.651  0.00  0.00    +0.000 C 
ATOM     20  C   UNL     1     113.113 130.323 141.710  0.00  0.00    +0.000 C 
ATOM     21  C   UNL     1     113.331 128.998 140.750  0.00  0.00    +0.000 C 
ATOM     22  C   UNL     1     112.635 129.658 141.810  0.00  0.00    +0.000 C 
BRANCH  22  23
ATOM     23  C   UNL     1     112.047 129.655 142.390  0.00  0.00    +0.000 C 
BRANCH  23  24
ATOM     24  O   UNL     1     111.644 128.956 142.564  0.00  0.00    +0.000 OA
BRANCH  24  25
ATOM     25  S   UNL     1     111.072 128.949 143.158  0.00  0.00    +0.000 S 
ATOM     26  O   UNL     1     110.500 128.941 143.753  0.00  0.00    +0.000 OA
ATOM     27  O   UNL     1     111.621 128.622 143.682  0.00  0.00    +0.000 OA
ATOM     28  O   UNL     1     110.524 129.275 142.636  0.00  0.00    +0.000 OA
ENDBRANCH  24  25
ENDBRANCH  23  24
ENDBRANCH  22  23
ENDBRANCH   5  21
BRANCH  12  29
ATOM     29  C   UNL     1     113.453 125.575 137.603  0.00  0.00    +0.000 A 
ATOM     30  C   UNL     1     112.868 124.996 137.561  0.00  0.00    +0.000 A 
ATOM     31  C   UNL     1     114.149 125.492 137.168  0.00  0.00    +0.000 A 
ATOM     32  C   UNL     1     112.978 124.333 137.083  0.00  0.00    +0.000 A 
ATOM     33  C   UNL     1     114.259 124.829 136.689  0.00  0.00    +0.000 A 
ATOM     34  C   UNL     1     113.673 124.249 136.647  0.00  0.00    +0.000 A 
ENDBRANCH  12  29
TORSDOF 5
ENDMDL
MODEL 8
REMARK VINA RESULT:      -9.5      7.646      9.048
REMARK  Name = 131833497
REMARK  5 active torsions:
REMARK  status: ('A' for Active; 'I' for Inactive)
REMARK    1  A    between atoms: S_1  and  O_6
REMARK    2  A    between atoms: O_6  and  C_20
REMARK    3  A    between atoms: C_17  and  C_19
REMARK    4  A    between atoms: C_18  and  C_20
REMARK    5  A    between atoms: C_27  and  C_29
REMARK                            x       y       z     vdW  Elec       q    Type
REMARK                         _______ _______ _______ _____ _____    ______ ____
ROOT
ATOM      1  O   UNL     1     111.005 129.905 135.247  0.00  0.00    +0.000 OA
ATOM      2  O   UNL     1     109.935 129.836 137.897  0.00  0.00    +0.000 OA
ATOM      3  O   UNL     1     110.963 127.414 136.721  0.00  0.00    +0.000 OA
ATOM      4  O   UNL     1     111.528 128.715 134.623  0.00  0.00    +0.000 OA
ATOM      5  C   UNL     1     110.470 129.871 136.572  0.00  0.00    +0.000 A 
ATOM      6  C   UNL     1     110.819 129.484 135.932  0.00  0.00    +0.000 A 
ATOM      7  C   UNL     1     110.284 129.450 137.257  0.00  0.00    +0.000 A 
ATOM      8  C   UNL     1     110.983 128.677 135.977  0.00  0.00    +0.000 A 
ATOM      9  C   UNL     1     110.448 128.642 137.301  0.00  0.00    +0.000 A 
ATOM     10  C   UNL     1     110.797 128.256 136.662  0.00  0.00    +0.000 A 
ATOM     11  C   UNL     1     111.347 128.286 135.303  0.00  0.00    +0.000 A 
ATOM     12  C   UNL     1     111.326 127.007 136.058  0.00  0.00    +0.000 A 
ATOM     13  C   UNL     1     111.520 127.446 135.344  0.00  0.00    +0.000 A 
ENDROOT
BRANCH   5  21
ATOM     14  O   UNL     1     109.587 130.936 136.213  0.00  0.00    +0.000 OA
ATOM     15  O   UNL     1     111.250 132.584 137.016  0.00  0.00    +0.000 OA
ATOM     16  O   UNL     1     111.578 130.969 137.108  0.00  0.00    +0.000 OA
ATOM     17  O   UNL     1     109.813 133.100 136.390  0.00  0.00    +0.000 OA
ATOM     18  C   UNL     1     110.696 132.035 136.749  0.00  0.00    +0.000 C 
ATOM     19  C   UNL     1     110.860 131.227 136.795  0.00  0.00    +0.000 C 
ATOM     20  C   UNL     1     109.978 132.292 136.436  0.00  0.00    +0.000 C 
ATOM     21  C   UNL     1     110.306 130.678 136.527  0.00  0.00    +0.000 C 
ATOM     22  C   UNL     1     109.424 131.743 136.168  0.00  0.00    +0.000 C 
BRANCH  22  23
ATOM     23  C   UNL     1     108.705 132.001 135.854  0.00  0.00    +0.000 C 
BRANCH  23  24
ATOM     24  O   UNL     1     108.109 131.455 135.688  0.00  0.00    +0.000 OA
BRANCH  24  25
ATOM     25  S   UNL     1     107.380 131.717 135.402  0.00  0.00    +0.000 S 
ATOM     26  O   UNL     1     106.652 131.978 135.116  0.00  0.00    +0.000 OA
ATOM     27  O   UNL     1     107.708 131.806 134.650  0.00  0.00    +0.000 OA
ATOM     28  O   UNL     1     107.053 131.628 136.154  0.00  0.00    +0.000 OA
ENDBRANCH  24  25
ENDBRANCH  23  24
ENDBRANCH  22  23
ENDBRANCH   5  21
BRANCH  12  29
ATOM     29  C   UNL     1     111.489 126.199 136.105  0.00  0.00    +0.000 A 
ATOM     30  C   UNL     1     110.919 125.650 135.875  0.00  0.00    +0.000 A 
ATOM     31  C   UNL     1     112.222 125.942 136.383  0.00  0.00    +0.000 A 
ATOM     32  C   UNL     1     111.081 124.842 135.922  0.00  0.00    +0.000 A 
ATOM     33  C   UNL     1     112.385 125.135 136.431  0.00  0.00    +0.000 A 
ATOM     34  C   UNL     1     111.814 124.585 136.200  0.00  0.00    +0.000 A 
ENDBRANCH  12  29
TORSDOF 5
ENDMDL
