MODEL 1
REMARK VINA RESULT:      -9.1      0.000      0.000
REMARK  Name = 44258532
REMARK  7 active torsions:
REMARK  status: ('A' for Active; 'I' for Inactive)
REMARK    1  A    between atoms: O_2  and  C_17
REMARK    2  A    between atoms: O_2  and  C_19
REMARK    3  A    between atoms: O_7  and  C_21
REMARK    4  A    between atoms: O_8  and  C_23
REMARK    5  A    between atoms: O_10  and  C_33
REMARK    6  A    between atoms: O_11  and  C_34
REMARK    7  A    between atoms: C_26  and  C_28
REMARK                            x       y       z     vdW  Elec       q    Type
REMARK                         _______ _______ _______ _____ _____    ______ ____
ROOT
ATOM      1  O   UNL     1     113.154 127.308 136.172  0.00  0.00    +0.000 OA
ATOM      2  O   UNL     1     112.119 128.616 138.077  0.00  0.00    +0.000 OA
ATOM      3  C   UNL     1     113.152 129.370 136.994  0.00  0.00    +0.000 A 
ATOM      4  C   UNL     1     112.984 128.568 136.901  0.00  0.00    +0.000 A 
ATOM      5  C   UNL     1     113.660 129.749 136.465  0.00  0.00    +0.000 A 
ATOM      6  C   UNL     1     113.322 128.145 136.279  0.00  0.00    +0.000 A 
ATOM      7  C   UNL     1     113.998 129.326 135.843  0.00  0.00    +0.000 A 
ATOM      8  C   UNL     1     112.453 128.184 137.458  0.00  0.00    +0.000 A 
ATOM      9  C   UNL     1     113.829 128.523 135.751  0.00  0.00    +0.000 A 
ATOM     10  C   UNL     1     112.627 126.909 136.719  0.00  0.00    +0.000 A 
ATOM     11  C   UNL     1     112.274 127.349 137.367  0.00  0.00    +0.000 A 
ENDROOT
BRANCH  10  13
ATOM     12  O   UNL     1     111.959 123.699 136.337  0.00  0.00    +0.000 OA
ATOM     13  C   UNL     1     112.460 126.106 136.624  0.00  0.00    +0.000 A 
ATOM     14  C   UNL     1     112.980 125.538 136.920  0.00  0.00    +0.000 A 
ATOM     15  C   UNL     1     111.773 125.872 136.232  0.00  0.00    +0.000 A 
ATOM     16  C   UNL     1     111.605 125.069 136.137  0.00  0.00    +0.000 A 
ATOM     17  C   UNL     1     112.813 124.736 136.824  0.00  0.00    +0.000 A 
ATOM     18  C   UNL     1     112.126 124.501 136.433  0.00  0.00    +0.000 A 
BRANCH  16  19
ATOM     19  O   UNL     1     110.918 124.834 135.745  0.00  0.00    +0.000 OA
ATOM     20  C   UNL     1     110.491 125.381 135.300  0.00  0.00    +0.000 C 
ENDBRANCH  16  19
BRANCH  17  21
ATOM     21  O   UNL     1     113.333 124.168 137.121  0.00  0.00    +0.000 OA
ATOM     22  C   UNL     1     114.130 124.354 137.224  0.00  0.00    +0.000 C 
ENDBRANCH  17  21
ENDBRANCH  10  13
BRANCH   5  23
ATOM     23  O   UNL     1     113.828 130.551 136.559  0.00  0.00    +0.000 OA
ATOM     24  C   UNL     1     114.611 130.803 136.616  0.00  0.00    +0.000 C 
ENDBRANCH   5  23
BRANCH   7  25
ATOM     25  O   UNL     1     114.505 129.705 135.315  0.00  0.00    +0.000 OA
ATOM     26  C   UNL     1     114.724 129.330 134.613  0.00  0.00    +0.000 C 
ENDBRANCH   7  25
BRANCH   3  27
ATOM     27  O   UNL     1     112.813 129.793 137.616  0.00  0.00    +0.000 OA
BRANCH  27  36
ATOM     28  O   UNL     1     111.716 130.182 136.787  0.00  0.00    +0.000 OA
ATOM     29  O   UNL     1     111.065 131.895 138.450  0.00  0.00    +0.000 OA
ATOM     30  O   UNL     1     110.185 131.713 137.067  0.00  0.00    +0.000 OA
ATOM     31  O   UNL     1     112.379 130.936 138.725  0.00  0.00    +0.000 OA
ATOM     32  C   UNL     1     111.282 131.324 137.896  0.00  0.00    +0.000 C 
ATOM     33  C   UNL     1     110.843 131.233 137.204  0.00  0.00    +0.000 C 
ATOM     34  C   UNL     1     111.939 130.844 138.033  0.00  0.00    +0.000 C 
ATOM     35  C   UNL     1     111.059 130.661 136.649  0.00  0.00    +0.000 C 
ATOM     36  C   UNL     1     112.156 130.273 137.478  0.00  0.00    +0.000 C 
ATOM     37  C   UNL     1     110.619 130.571 135.958  0.00  0.00    +0.000 C 
ENDBRANCH  27  36
ENDBRANCH   3  27
TORSDOF 7
ENDMDL
MODEL 2
REMARK VINA RESULT:      -8.5      1.384      2.047
REMARK  Name = 44258532
REMARK  7 active torsions:
REMARK  status: ('A' for Active; 'I' for Inactive)
REMARK    1  A    between atoms: O_2  and  C_17
REMARK    2  A    between atoms: O_2  and  C_19
REMARK    3  A    between atoms: O_7  and  C_21
REMARK    4  A    between atoms: O_8  and  C_23
REMARK    5  A    between atoms: O_10  and  C_33
REMARK    6  A    between atoms: O_11  and  C_34
REMARK    7  A    between atoms: C_26  and  C_28
REMARK                            x       y       z     vdW  Elec       q    Type
REMARK                         _______ _______ _______ _____ _____    ______ ____
ROOT
ATOM      1  O   UNL     1     112.727 127.445 136.541  0.00  0.00    +0.000 OA
ATOM      2  O   UNL     1     111.464 128.458 138.487  0.00  0.00    +0.000 OA
ATOM      3  C   UNL     1     112.626 129.350 137.676  0.00  0.00    +0.000 A 
ATOM      4  C   UNL     1     112.469 128.577 137.435  0.00  0.00    +0.000 A 
ATOM      5  C   UNL     1     113.198 129.797 137.281  0.00  0.00    +0.000 A 
ATOM      6  C   UNL     1     112.883 128.250 136.800  0.00  0.00    +0.000 A 
ATOM      7  C   UNL     1     113.611 129.470 136.646  0.00  0.00    +0.000 A 
ATOM      8  C   UNL     1     111.872 128.122 137.854  0.00  0.00    +0.000 A 
ATOM      9  C   UNL     1     113.453 128.696 136.406  0.00  0.00    +0.000 A 
ATOM     10  C   UNL     1     112.134 126.976 136.947  0.00  0.00    +0.000 A 
ATOM     11  C   UNL     1     111.704 127.316 137.608  0.00  0.00    +0.000 A 
ENDROOT
BRANCH  10  13
ATOM     12  O   UNL     1     111.511 123.883 135.978  0.00  0.00    +0.000 OA
ATOM     13  C   UNL     1     111.978 126.203 136.705  0.00  0.00    +0.000 A 
ATOM     14  C   UNL     1     112.453 125.583 136.971  0.00  0.00    +0.000 A 
ATOM     15  C   UNL     1     111.347 126.049 136.196  0.00  0.00    +0.000 A 
ATOM     16  C   UNL     1     111.191 125.276 135.953  0.00  0.00    +0.000 A 
ATOM     17  C   UNL     1     112.297 124.810 136.729  0.00  0.00    +0.000 A 
ATOM     18  C   UNL     1     111.666 124.656 136.220  0.00  0.00    +0.000 A 
BRANCH  16  19
ATOM     19  O   UNL     1     110.560 125.122 135.444  0.00  0.00    +0.000 OA
ATOM     20  C   UNL     1     110.280 125.716 134.945  0.00  0.00    +0.000 C 
ENDBRANCH  16  19
BRANCH  17  21
ATOM     21  O   UNL     1     112.773 124.191 136.995  0.00  0.00    +0.000 OA
ATOM     22  C   UNL     1     113.593 124.277 137.010  0.00  0.00    +0.000 C 
ENDBRANCH  17  21
ENDBRANCH  10  13
BRANCH   5  23
ATOM     23  O   UNL     1     113.355 130.570 137.521  0.00  0.00    +0.000 OA
ATOM     24  C   UNL     1     113.290 131.190 136.981  0.00  0.00    +0.000 C 
ENDBRANCH   5  23
BRANCH   7  25
ATOM     25  O   UNL     1     114.182 129.916 136.252  0.00  0.00    +0.000 OA
ATOM     26  C   UNL     1     114.639 129.569 135.659  0.00  0.00    +0.000 C 
ENDBRANCH   7  25
BRANCH   3  27
ATOM     27  O   UNL     1     112.213 129.677 138.310  0.00  0.00    +0.000 OA
BRANCH  27  36
ATOM     28  O   UNL     1     113.216 129.241 139.230  0.00  0.00    +0.000 OA
ATOM     29  O   UNL     1     112.320 130.789 140.941  0.00  0.00    +0.000 OA
ATOM     30  O   UNL     1     113.621 129.836 141.291  0.00  0.00    +0.000 OA
ATOM     31  O   UNL     1     111.616 130.710 139.451  0.00  0.00    +0.000 OA
ATOM     32  C   UNL     1     112.619 130.273 140.371  0.00  0.00    +0.000 C 
ATOM     33  C   UNL     1     113.269 129.796 140.545  0.00  0.00    +0.000 C 
ATOM     34  C   UNL     1     112.267 130.233 139.626  0.00  0.00    +0.000 C 
ATOM     35  C   UNL     1     113.567 129.280 139.975  0.00  0.00    +0.000 C 
ATOM     36  C   UNL     1     112.566 129.717 139.055  0.00  0.00    +0.000 C 
ATOM     37  C   UNL     1     114.218 128.804 140.150  0.00  0.00    +0.000 C 
ENDBRANCH  27  36
ENDBRANCH   3  27
TORSDOF 7
ENDMDL
MODEL 3
REMARK VINA RESULT:      -8.3      3.236      5.671
REMARK  Name = 44258532
REMARK  7 active torsions:
REMARK  status: ('A' for Active; 'I' for Inactive)
REMARK    1  A    between atoms: O_2  and  C_17
REMARK    2  A    between atoms: O_2  and  C_19
REMARK    3  A    between atoms: O_7  and  C_21
REMARK    4  A    between atoms: O_8  and  C_23
REMARK    5  A    between atoms: O_10  and  C_33
REMARK    6  A    between atoms: O_11  and  C_34
REMARK    7  A    between atoms: C_26  and  C_28
REMARK                            x       y       z     vdW  Elec       q    Type
REMARK                         _______ _______ _______ _____ _____    ______ ____
ROOT
ATOM      1  O   UNL     1     109.393 126.575 138.584  0.00  0.00    +0.000 OA
ATOM      2  O   UNL     1     111.296 124.928 138.304  0.00  0.00    +0.000 OA
ATOM      3  C   UNL     1     110.630 125.688 136.968  0.00  0.00    +0.000 A 
ATOM      4  C   UNL     1     110.332 125.856 137.719  0.00  0.00    +0.000 A 
ATOM      5  C   UNL     1     110.307 126.059 136.304  0.00  0.00    +0.000 A 
ATOM      6  C   UNL     1     109.712 126.393 137.807  0.00  0.00    +0.000 A 
ATOM      7  C   UNL     1     109.687 126.596 136.392  0.00  0.00    +0.000 A 
ATOM      8  C   UNL     1     110.676 125.464 138.402  0.00  0.00    +0.000 A 
ATOM      9  C   UNL     1     109.390 126.763 137.144  0.00  0.00    +0.000 A 
ATOM     10  C   UNL     1     109.725 126.193 139.278  0.00  0.00    +0.000 A 
ATOM     11  C   UNL     1     110.371 125.634 139.187  0.00  0.00    +0.000 A 
ENDROOT
BRANCH  10  13
ATOM     12  O   UNL     1     108.528 126.870 142.279  0.00  0.00    +0.000 OA
ATOM     13  C   UNL     1     109.426 126.362 140.028  0.00  0.00    +0.000 A 
ATOM     14  C   UNL     1     108.859 125.869 140.367  0.00  0.00    +0.000 A 
ATOM     15  C   UNL     1     109.694 127.025 140.439  0.00  0.00    +0.000 A 
ATOM     16  C   UNL     1     109.395 127.195 141.190  0.00  0.00    +0.000 A 
ATOM     17  C   UNL     1     108.559 126.038 141.117  0.00  0.00    +0.000 A 
ATOM     18  C   UNL     1     108.827 126.701 141.529  0.00  0.00    +0.000 A 
BRANCH  16  19
ATOM     19  O   UNL     1     109.662 127.858 141.601  0.00  0.00    +0.000 OA
ATOM     20  C   UNL     1     110.457 128.074 141.561  0.00  0.00    +0.000 C 
ENDBRANCH  16  19
BRANCH  17  21
ATOM     21  O   UNL     1     107.992 125.543 141.456  0.00  0.00    +0.000 OA
ATOM     22  C   UNL     1     107.390 125.226 140.990  0.00  0.00    +0.000 C 
ENDBRANCH  17  21
ENDBRANCH  10  13
BRANCH   5  23
ATOM     23  O   UNL     1     110.605 125.891 135.554  0.00  0.00    +0.000 OA
ATOM     24  C   UNL     1     110.098 125.623 134.961  0.00  0.00    +0.000 C 
ENDBRANCH   5  23
BRANCH   7  25
ATOM     25  O   UNL     1     109.365 126.966 135.730  0.00  0.00    +0.000 OA
ATOM     26  C   UNL     1     108.873 127.621 135.822  0.00  0.00    +0.000 C 
ENDBRANCH   7  25
BRANCH   3  27
ATOM     27  O   UNL     1     111.249 125.151 136.880  0.00  0.00    +0.000 OA
BRANCH  27  36
ATOM     28  O   UNL     1     112.199 126.218 136.929  0.00  0.00    +0.000 OA
ATOM     29  O   UNL     1     113.986 124.659 136.220  0.00  0.00    +0.000 OA
ATOM     30  O   UNL     1     114.340 126.245 136.506  0.00  0.00    +0.000 OA
ATOM     31  O   UNL     1     112.441 124.112 136.407  0.00  0.00    +0.000 OA
ATOM     32  C   UNL     1     113.391 125.179 136.456  0.00  0.00    +0.000 C 
ATOM     33  C   UNL     1     113.567 125.972 136.599  0.00  0.00    +0.000 C 
ATOM     34  C   UNL     1     112.618 124.906 136.550  0.00  0.00    +0.000 C 
ATOM     35  C   UNL     1     112.971 126.491 136.836  0.00  0.00    +0.000 C 
ATOM     36  C   UNL     1     112.022 125.425 136.786  0.00  0.00    +0.000 C 
ATOM     37  C   UNL     1     113.149 127.284 136.979  0.00  0.00    +0.000 C 
ENDBRANCH  27  36
ENDBRANCH   3  27
TORSDOF 7
ENDMDL
MODEL 4
REMARK VINA RESULT:      -8.1      1.492      5.598
REMARK  Name = 44258532
REMARK  7 active torsions:
REMARK  status: ('A' for Active; 'I' for Inactive)
REMARK    1  A    between atoms: O_2  and  C_17
REMARK    2  A    between atoms: O_2  and  C_19
REMARK    3  A    between atoms: O_7  and  C_21
REMARK    4  A    between atoms: O_8  and  C_23
REMARK    5  A    between atoms: O_10  and  C_33
REMARK    6  A    between atoms: O_11  and  C_34
REMARK    7  A    between atoms: C_26  and  C_28
REMARK                            x       y       z     vdW  Elec       q    Type
REMARK                         _______ _______ _______ _____ _____    ______ ____
ROOT
ATOM      1  O   UNL     1     112.683 128.799 138.261  0.00  0.00    +0.000 OA
ATOM      2  O   UNL     1     111.789 127.160 136.551  0.00  0.00    +0.000 OA
ATOM      3  C   UNL     1     111.797 126.766 138.179  0.00  0.00    +0.000 A 
ATOM      4  C   UNL     1     112.087 127.500 137.939  0.00  0.00    +0.000 A 
ATOM      5  C   UNL     1     111.797 126.564 138.979  0.00  0.00    +0.000 A 
ATOM      6  C   UNL     1     112.378 128.031 138.499  0.00  0.00    +0.000 A 
ATOM      7  C   UNL     1     112.088 127.096 139.539  0.00  0.00    +0.000 A 
ATOM      8  C   UNL     1     112.082 127.699 137.103  0.00  0.00    +0.000 A 
ATOM      9  C   UNL     1     112.378 127.829 139.298  0.00  0.00    +0.000 A 
ATOM     10  C   UNL     1     112.686 129.015 137.430  0.00  0.00    +0.000 A 
ATOM     11  C   UNL     1     112.383 128.461 136.847  0.00  0.00    +0.000 A 
ENDROOT
BRANCH  10  13
ATOM     12  O   UNL     1     113.849 131.954 136.480  0.00  0.00    +0.000 OA
ATOM     13  C   UNL     1     112.977 129.750 137.192  0.00  0.00    +0.000 A 
ATOM     14  C   UNL     1     113.753 129.819 136.923  0.00  0.00    +0.000 A 
ATOM     15  C   UNL     1     112.491 130.416 137.224  0.00  0.00    +0.000 A 
ATOM     16  C   UNL     1     112.781 131.151 136.987  0.00  0.00    +0.000 A 
ATOM     17  C   UNL     1     114.044 130.553 136.685  0.00  0.00    +0.000 A 
ATOM     18  C   UNL     1     113.558 131.219 136.717  0.00  0.00    +0.000 A 
BRANCH  16  19
ATOM     19  O   UNL     1     112.296 131.817 137.019  0.00  0.00    +0.000 OA
ATOM     20  C   UNL     1     111.493 131.733 137.188  0.00  0.00    +0.000 C 
ENDBRANCH  16  19
BRANCH  17  21
ATOM     21  O   UNL     1     114.821 130.622 136.416  0.00  0.00    +0.000 OA
ATOM     22  C   UNL     1     115.066 130.197 135.753  0.00  0.00    +0.000 C 
ENDBRANCH  17  21
ENDBRANCH  10  13
BRANCH   5  23
ATOM     23  O   UNL     1     111.507 125.830 139.219  0.00  0.00    +0.000 OA
ATOM     24  C   UNL     1     110.846 125.790 139.711  0.00  0.00    +0.000 C 
ENDBRANCH   5  23
BRANCH   7  25
ATOM     25  O   UNL     1     112.088 126.893 140.338  0.00  0.00    +0.000 OA
ATOM     26  C   UNL     1     112.614 127.262 140.856  0.00  0.00    +0.000 C 
ENDBRANCH   7  25
BRANCH   3  27
ATOM     27  O   UNL     1     111.506 126.234 137.619  0.00  0.00    +0.000 OA
BRANCH  27  36
ATOM     28  O   UNL     1     112.786 125.606 137.525  0.00  0.00    +0.000 OA
ATOM     29  O   UNL     1     111.775 123.736 136.258  0.00  0.00    +0.000 OA
ATOM     30  O   UNL     1     113.392 123.731 136.585  0.00  0.00    +0.000 OA
ATOM     31  O   UNL     1     110.832 124.987 136.774  0.00  0.00    +0.000 OA
ATOM     32  C   UNL     1     112.112 124.359 136.680  0.00  0.00    +0.000 C 
ATOM     33  C   UNL     1     112.920 124.357 136.844  0.00  0.00    +0.000 C 
ATOM     34  C   UNL     1     111.641 124.985 136.939  0.00  0.00    +0.000 C 
ATOM     35  C   UNL     1     113.257 124.981 137.266  0.00  0.00    +0.000 C 
ATOM     36  C   UNL     1     111.978 125.608 137.361  0.00  0.00    +0.000 C 
ATOM     37  C   UNL     1     114.066 124.978 137.430  0.00  0.00    +0.000 C 
ENDBRANCH  27  36
ENDBRANCH   3  27
TORSDOF 7
ENDMDL
MODEL 5
REMARK VINA RESULT:      -8.1      2.695      5.237
REMARK  Name = 44258532
REMARK  7 active torsions:
REMARK  status: ('A' for Active; 'I' for Inactive)
REMARK    1  A    between atoms: O_2  and  C_17
REMARK    2  A    between atoms: O_2  and  C_19
REMARK    3  A    between atoms: O_7  and  C_21
REMARK    4  A    between atoms: O_8  and  C_23
REMARK    5  A    between atoms: O_10  and  C_33
REMARK    6  A    between atoms: O_11  and  C_34
REMARK    7  A    between atoms: C_26  and  C_28
REMARK                            x       y       z     vdW  Elec       q    Type
REMARK                         _______ _______ _______ _____ _____    ______ ____
ROOT
ATOM      1  O   UNL     1     111.966 128.241 139.414  0.00  0.00    +0.000 OA
ATOM      2  O   UNL     1     113.288 126.121 139.000  0.00  0.00    +0.000 OA
ATOM      3  C   UNL     1     113.028 127.214 137.757  0.00  0.00    +0.000 A 
ATOM      4  C   UNL     1     112.721 127.373 138.506  0.00  0.00    +0.000 A 
ATOM      5  C   UNL     1     112.904 127.747 137.139  0.00  0.00    +0.000 A 
ATOM      6  C   UNL     1     112.291 128.064 138.637  0.00  0.00    +0.000 A 
ATOM      7  C   UNL     1     112.474 128.439 137.270  0.00  0.00    +0.000 A 
ATOM      8  C   UNL     1     112.857 126.810 139.141  0.00  0.00    +0.000 A 
ATOM      9  C   UNL     1     112.168 128.597 138.020  0.00  0.00    +0.000 A 
ATOM     10  C   UNL     1     112.092 127.690 140.061  0.00  0.00    +0.000 A 
ATOM     11  C   UNL     1     112.540 126.970 139.923  0.00  0.00    +0.000 A 
ENDROOT
BRANCH  10  13
ATOM     12  O   UNL     1     110.860 128.334 143.054  0.00  0.00    +0.000 OA
ATOM     13  C   UNL     1     111.784 127.851 140.809  0.00  0.00    +0.000 A 
ATOM     14  C   UNL     1     112.173 128.378 141.311  0.00  0.00    +0.000 A 
ATOM     15  C   UNL     1     111.087 127.485 141.056  0.00  0.00    +0.000 A 
ATOM     16  C   UNL     1     110.778 127.646 141.804  0.00  0.00    +0.000 A 
ATOM     17  C   UNL     1     111.865 128.539 142.059  0.00  0.00    +0.000 A 
ATOM     18  C   UNL     1     111.168 128.173 142.306  0.00  0.00    +0.000 A 
BRANCH  16  19
ATOM     19  O   UNL     1     110.081 127.280 142.051  0.00  0.00    +0.000 OA
ATOM     20  C   UNL     1     109.454 127.191 141.523  0.00  0.00    +0.000 C 
ENDBRANCH  16  19
BRANCH  17  21
ATOM     21  O   UNL     1     112.254 129.066 142.560  0.00  0.00    +0.000 OA
ATOM     22  C   UNL     1     112.490 129.805 142.280  0.00  0.00    +0.000 C 
ENDBRANCH  17  21
ENDBRANCH  10  13
BRANCH   5  23
ATOM     23  O   UNL     1     113.211 127.588 136.390  0.00  0.00    +0.000 OA
ATOM     24  C   UNL     1     113.726 128.125 136.034  0.00  0.00    +0.000 C 
ENDBRANCH   5  23
BRANCH   7  25
ATOM     25  O   UNL     1     112.351 128.971 136.653  0.00  0.00    +0.000 OA
ATOM     26  C   UNL     1     111.749 129.533 136.707  0.00  0.00    +0.000 C 
ENDBRANCH   7  25
BRANCH   3  27
ATOM     27  O   UNL     1     113.458 126.522 137.625  0.00  0.00    +0.000 OA
BRANCH  27  36
ATOM     28  O   UNL     1     112.274 125.851 137.192  0.00  0.00    +0.000 OA
ATOM     29  O   UNL     1     113.645 123.958 136.377  0.00  0.00    +0.000 OA
ATOM     30  O   UNL     1     112.003 123.917 136.215  0.00  0.00    +0.000 OA
ATOM     31  O   UNL     1     114.372 125.260 137.082  0.00  0.00    +0.000 OA
ATOM     32  C   UNL     1     113.188 124.589 136.649  0.00  0.00    +0.000 C 
ATOM     33  C   UNL     1     112.367 124.569 136.568  0.00  0.00    +0.000 C 
ATOM     34  C   UNL     1     113.551 125.240 137.001  0.00  0.00    +0.000 C 
ATOM     35  C   UNL     1     111.910 125.200 136.839  0.00  0.00    +0.000 C 
ATOM     36  C   UNL     1     113.094 125.871 137.273  0.00  0.00    +0.000 C 
ATOM     37  C   UNL     1     111.089 125.179 136.758  0.00  0.00    +0.000 C 
ENDBRANCH  27  36
ENDBRANCH   3  27
TORSDOF 7
ENDMDL
MODEL 6
REMARK VINA RESULT:      -8.0      1.455      2.595
REMARK  Name = 44258532
REMARK  7 active torsions:
REMARK  status: ('A' for Active; 'I' for Inactive)
REMARK    1  A    between atoms: O_2  and  C_17
REMARK    2  A    between atoms: O_2  and  C_19
REMARK    3  A    between atoms: O_7  and  C_21
REMARK    4  A    between atoms: O_8  and  C_23
REMARK    5  A    between atoms: O_10  and  C_33
REMARK    6  A    between atoms: O_11  and  C_34
REMARK    7  A    between atoms: C_26  and  C_28
REMARK                            x       y       z     vdW  Elec       q    Type
REMARK                         _______ _______ _______ _____ _____    ______ ____
ROOT
ATOM      1  O   UNL     1     112.931 126.950 138.478  0.00  0.00    +0.000 OA
ATOM      2  O   UNL     1     113.167 128.899 136.879  0.00  0.00    +0.000 OA
ATOM      3  C   UNL     1     113.153 129.157 138.534  0.00  0.00    +0.000 A 
ATOM      4  C   UNL     1     113.082 128.388 138.245  0.00  0.00    +0.000 A 
ATOM      5  C   UNL     1     113.147 129.293 139.349  0.00  0.00    +0.000 A 
ATOM      6  C   UNL     1     113.006 127.755 138.768  0.00  0.00    +0.000 A 
ATOM      7  C   UNL     1     113.071 128.660 139.872  0.00  0.00    +0.000 A 
ATOM      8  C   UNL     1     113.090 128.259 137.395  0.00  0.00    +0.000 A 
ATOM      9  C   UNL     1     113.000 127.891 139.581  0.00  0.00    +0.000 A 
ATOM     10  C   UNL     1     112.936 126.802 137.631  0.00  0.00    +0.000 A 
ATOM     11  C   UNL     1     113.017 127.461 137.086  0.00  0.00    +0.000 A 
ENDROOT
BRANCH  10  13
ATOM     12  O   UNL     1     112.653 123.721 136.481  0.00  0.00    +0.000 OA
ATOM     13  C   UNL     1     112.865 126.032 137.344  0.00  0.00    +0.000 A 
ATOM     14  C   UNL     1     112.140 125.763 137.059  0.00  0.00    +0.000 A 
ATOM     15  C   UNL     1     113.521 125.531 137.341  0.00  0.00    +0.000 A 
ATOM     16  C   UNL     1     113.450 124.760 137.053  0.00  0.00    +0.000 A 
ATOM     17  C   UNL     1     112.069 124.993 136.772  0.00  0.00    +0.000 A 
ATOM     18  C   UNL     1     112.724 124.491 136.769  0.00  0.00    +0.000 A 
BRANCH  16  19
ATOM     19  O   UNL     1     114.106 124.259 137.051  0.00  0.00    +0.000 OA
ATOM     20  C   UNL     1     114.853 124.558 137.227  0.00  0.00    +0.000 C 
ENDBRANCH  16  19
BRANCH  17  21
ATOM     21  O   UNL     1     111.342 124.724 136.487  0.00  0.00    +0.000 OA
ATOM     22  C   UNL     1     110.879 125.214 136.012  0.00  0.00    +0.000 C 
ENDBRANCH  17  21
ENDBRANCH  10  13
BRANCH   5  23
ATOM     23  O   UNL     1     113.218 130.062 139.638  0.00  0.00    +0.000 OA
ATOM     24  C   UNL     1     113.838 130.254 140.148  0.00  0.00    +0.000 C 
ENDBRANCH   5  23
BRANCH   7  25
ATOM     25  O   UNL     1     113.065 128.796 140.685  0.00  0.00    +0.000 OA
ATOM     26  C   UNL     1     112.773 128.219 141.198  0.00  0.00    +0.000 C 
ENDBRANCH   7  25
BRANCH   3  27
ATOM     27  O   UNL     1     113.230 129.790 138.011  0.00  0.00    +0.000 OA
BRANCH  27  36
ATOM     28  O   UNL     1     111.817 130.004 138.034  0.00  0.00    +0.000 OA
ATOM     29  O   UNL     1     112.126 132.175 136.886  0.00  0.00    +0.000 OA
ATOM     30  O   UNL     1     110.611 131.664 137.291  0.00  0.00    +0.000 OA
ATOM     31  O   UNL     1     113.436 131.238 137.246  0.00  0.00    +0.000 OA
ATOM     32  C   UNL     1     112.023 131.451 137.269  0.00  0.00    +0.000 C 
ATOM     33  C   UNL     1     111.266 131.195 137.471  0.00  0.00    +0.000 C 
ATOM     34  C   UNL     1     112.678 130.982 137.449  0.00  0.00    +0.000 C 
ATOM     35  C   UNL     1     111.163 130.471 137.854  0.00  0.00    +0.000 C 
ATOM     36  C   UNL     1     112.575 130.258 137.831  0.00  0.00    +0.000 C 
ATOM     37  C   UNL     1     110.405 130.217 138.056  0.00  0.00    +0.000 C 
ENDBRANCH  27  36
ENDBRANCH   3  27
TORSDOF 7
ENDMDL
MODEL 7
REMARK VINA RESULT:      -8.0      1.756      5.220
REMARK  Name = 44258532
REMARK  7 active torsions:
REMARK  status: ('A' for Active; 'I' for Inactive)
REMARK    1  A    between atoms: O_2  and  C_17
REMARK    2  A    between atoms: O_2  and  C_19
REMARK    3  A    between atoms: O_7  and  C_21
REMARK    4  A    between atoms: O_8  and  C_23
REMARK    5  A    between atoms: O_10  and  C_33
REMARK    6  A    between atoms: O_11  and  C_34
REMARK    7  A    between atoms: C_26  and  C_28
REMARK                            x       y       z     vdW  Elec       q    Type
REMARK                         _______ _______ _______ _____ _____    ______ ____
ROOT
ATOM      1  O   UNL     1     112.325 129.040 137.794  0.00  0.00    +0.000 OA
ATOM      2  O   UNL     1     111.502 126.683 138.217  0.00  0.00    +0.000 OA
ATOM      3  C   UNL     1     111.649 127.261 136.651  0.00  0.00    +0.000 A 
ATOM      4  C   UNL     1     111.847 127.752 137.284  0.00  0.00    +0.000 A 
ATOM      5  C   UNL     1     111.718 127.539 135.877  0.00  0.00    +0.000 A 
ATOM      6  C   UNL     1     112.115 128.519 137.143  0.00  0.00    +0.000 A 
ATOM      7  C   UNL     1     111.986 128.306 135.736  0.00  0.00    +0.000 A 
ATOM      8  C   UNL     1     111.771 127.452 138.086  0.00  0.00    +0.000 A 
ATOM      9  C   UNL     1     112.185 128.796 136.369  0.00  0.00    +0.000 A 
ATOM     10  C   UNL     1     112.255 128.757 138.602  0.00  0.00    +0.000 A 
ATOM     11  C   UNL     1     111.976 127.958 138.749  0.00  0.00    +0.000 A 
ENDROOT
BRANCH  10  13
ATOM     12  O   UNL     1     113.051 130.728 141.127  0.00  0.00    +0.000 OA
ATOM     13  C   UNL     1     112.454 129.250 139.233  0.00  0.00    +0.000 A 
ATOM     14  C   UNL     1     113.198 129.190 139.585  0.00  0.00    +0.000 A 
ATOM     15  C   UNL     1     111.909 129.802 139.513  0.00  0.00    +0.000 A 
ATOM     16  C   UNL     1     112.108 130.295 140.145  0.00  0.00    +0.000 A 
ATOM     17  C   UNL     1     113.397 129.683 140.216  0.00  0.00    +0.000 A 
ATOM     18  C   UNL     1     112.852 130.235 140.496  0.00  0.00    +0.000 A 
BRANCH  16  19
ATOM     19  O   UNL     1     111.563 130.848 140.424  0.00  0.00    +0.000 OA
ATOM     20  C   UNL     1     110.755 130.690 140.377  0.00  0.00    +0.000 C 
ENDBRANCH  16  19
BRANCH  17  21
ATOM     21  O   UNL     1     114.141 129.623 140.567  0.00  0.00    +0.000 OA
ATOM     22  C   UNL     1     114.479 128.881 140.693  0.00  0.00    +0.000 C 
ENDBRANCH  17  21
ENDBRANCH  10  13
BRANCH   5  23
ATOM     23  O   UNL     1     111.520 127.048 135.244  0.00  0.00    +0.000 OA
ATOM     24  C   UNL     1     110.926 127.275 134.718  0.00  0.00    +0.000 C 
ENDBRANCH   5  23
BRANCH   7  25
ATOM     25  O   UNL     1     112.055 128.583 134.962  0.00  0.00    +0.000 OA
ATOM     26  C   UNL     1     112.546 129.225 134.796  0.00  0.00    +0.000 C 
ENDBRANCH   7  25
BRANCH   3  27
ATOM     27  O   UNL     1     111.381 126.494 136.792  0.00  0.00    +0.000 OA
BRANCH  27  36
ATOM     28  O   UNL     1     112.711 125.983 136.689  0.00  0.00    +0.000 OA
ATOM     29  O   UNL     1     111.814 123.684 136.505  0.00  0.00    +0.000 OA
ATOM     30  O   UNL     1     113.444 123.939 136.462  0.00  0.00    +0.000 OA
ATOM     31  O   UNL     1     110.783 124.961 136.670  0.00  0.00    +0.000 OA
ATOM     32  C   UNL     1     112.113 124.450 136.566  0.00  0.00    +0.000 C 
ATOM     33  C   UNL     1     112.928 124.578 136.545  0.00  0.00    +0.000 C 
ATOM     34  C   UNL     1     111.598 125.089 136.649  0.00  0.00    +0.000 C 
ATOM     35  C   UNL     1     113.227 125.345 136.606  0.00  0.00    +0.000 C 
ATOM     36  C   UNL     1     111.897 125.855 136.710  0.00  0.00    +0.000 C 
ATOM     37  C   UNL     1     114.042 125.472 136.585  0.00  0.00    +0.000 C 
ENDBRANCH  27  36
ENDBRANCH   3  27
TORSDOF 7
ENDMDL
MODEL 8
REMARK VINA RESULT:      -8.0      1.974      3.606
REMARK  Name = 44258532
REMARK  7 active torsions:
REMARK  status: ('A' for Active; 'I' for Inactive)
REMARK    1  A    between atoms: O_2  and  C_17
REMARK    2  A    between atoms: O_2  and  C_19
REMARK    3  A    between atoms: O_7  and  C_21
REMARK    4  A    between atoms: O_8  and  C_23
REMARK    5  A    between atoms: O_10  and  C_33
REMARK    6  A    between atoms: O_11  and  C_34
REMARK    7  A    between atoms: C_26  and  C_28
REMARK                            x       y       z     vdW  Elec       q    Type
REMARK                         _______ _______ _______ _____ _____    ______ ____
ROOT
ATOM      1  O   UNL     1     111.118 126.882 138.138  0.00  0.00    +0.000 OA
ATOM      2  O   UNL     1     112.889 128.622 137.638  0.00  0.00    +0.000 OA
ATOM      3  C   UNL     1     111.732 128.905 138.817  0.00  0.00    +0.000 A 
ATOM      4  C   UNL     1     111.719 128.193 138.401  0.00  0.00    +0.000 A 
ATOM      5  C   UNL     1     111.165 129.051 139.400  0.00  0.00    +0.000 A 
ATOM      6  C   UNL     1     111.141 127.628 138.566  0.00  0.00    +0.000 A 
ATOM      7  C   UNL     1     110.587 128.487 139.565  0.00  0.00    +0.000 A 
ATOM      8  C   UNL     1     112.314 128.051 137.797  0.00  0.00    +0.000 A 
ATOM      9  C   UNL     1     110.576 127.775 139.148  0.00  0.00    +0.000 A 
ATOM     10  C   UNL     1     111.705 126.724 137.531  0.00  0.00    +0.000 A 
ATOM     11  C   UNL     1     112.307 127.312 137.359  0.00  0.00    +0.000 A 
ENDROOT
BRANCH  10  13
ATOM     12  O   UNL     1     111.647 123.872 135.870  0.00  0.00    +0.000 OA
ATOM     13  C   UNL     1     111.690 126.011 137.116  0.00  0.00    +0.000 A 
ATOM     14  C   UNL     1     111.143 125.898 136.509  0.00  0.00    +0.000 A 
ATOM     15  C   UNL     1     112.223 125.411 137.308  0.00  0.00    +0.000 A 
ATOM     16  C   UNL     1     112.209 124.698 136.893  0.00  0.00    +0.000 A 
ATOM     17  C   UNL     1     111.129 125.185 136.094  0.00  0.00    +0.000 A 
ATOM     18  C   UNL     1     111.662 124.585 136.285  0.00  0.00    +0.000 A 
BRANCH  16  19
ATOM     19  O   UNL     1     112.742 124.097 137.084  0.00  0.00    +0.000 OA
ATOM     20  C   UNL     1     113.550 124.258 137.113  0.00  0.00    +0.000 C 
ENDBRANCH  16  19
BRANCH  17  21
ATOM     21  O   UNL     1     110.582 125.073 135.486  0.00  0.00    +0.000 OA
ATOM     22  C   UNL     1     110.256 125.724 135.099  0.00  0.00    +0.000 C 
ENDBRANCH  17  21
ENDBRANCH  10  13
BRANCH   5  23
ATOM     23  O   UNL     1     111.178 129.763 139.816  0.00  0.00    +0.000 OA
ATOM     24  C   UNL     1     110.515 130.254 139.812  0.00  0.00    +0.000 C 
ENDBRANCH   5  23
BRANCH   7  25
ATOM     25  O   UNL     1     110.022 128.634 140.146  0.00  0.00    +0.000 OA
ATOM     26  C   UNL     1     109.604 128.007 140.483  0.00  0.00    +0.000 C 
ENDBRANCH   7  25
BRANCH   3  27
ATOM     27  O   UNL     1     112.310 129.469 138.652  0.00  0.00    +0.000 OA
BRANCH  27  36
ATOM     28  O   UNL     1     113.145 128.957 139.693  0.00  0.00    +0.000 OA
ATOM     29  O   UNL     1     114.536 131.001 139.583  0.00  0.00    +0.000 OA
ATOM     30  O   UNL     1     114.907 129.808 140.660  0.00  0.00    +0.000 OA
ATOM     31  O   UNL     1     113.238 130.832 138.579  0.00  0.00    +0.000 OA
ATOM     32  C   UNL     1     114.072 130.320 139.619  0.00  0.00    +0.000 C 
ATOM     33  C   UNL     1     114.257 129.723 140.158  0.00  0.00    +0.000 C 
ATOM     34  C   UNL     1     113.423 130.235 139.118  0.00  0.00    +0.000 C 
ATOM     35  C   UNL     1     113.794 129.042 140.194  0.00  0.00    +0.000 C 
ATOM     36  C   UNL     1     112.959 129.553 139.154  0.00  0.00    +0.000 C 
ATOM     37  C   UNL     1     113.980 128.445 140.733  0.00  0.00    +0.000 C 
ENDBRANCH  27  36
ENDBRANCH   3  27
TORSDOF 7
ENDMDL
MODEL 9
REMARK VINA RESULT:      -8.0      1.524      2.520
REMARK  Name = 44258532
REMARK  7 active torsions:
REMARK  status: ('A' for Active; 'I' for Inactive)
REMARK    1  A    between atoms: O_2  and  C_17
REMARK    2  A    between atoms: O_2  and  C_19
REMARK    3  A    between atoms: O_7  and  C_21
REMARK    4  A    between atoms: O_8  and  C_23
REMARK    5  A    between atoms: O_10  and  C_33
REMARK    6  A    between atoms: O_11  and  C_34
REMARK    7  A    between atoms: C_26  and  C_28
REMARK                            x       y       z     vdW  Elec       q    Type
REMARK                         _______ _______ _______ _____ _____    ______ ____
ROOT
ATOM      1  O   UNL     1     113.075 127.663 137.300  0.00  0.00    +0.000 OA
ATOM      2  O   UNL     1     111.449 128.222 135.441  0.00  0.00    +0.000 OA
ATOM      3  C   UNL     1     111.960 129.411 136.506  0.00  0.00    +0.000 A 
ATOM      4  C   UNL     1     112.244 128.641 136.593  0.00  0.00    +0.000 A 
ATOM      5  C   UNL     1     112.208 130.002 137.026  0.00  0.00    +0.000 A 
ATOM      6  C   UNL     1     112.773 128.462 137.199  0.00  0.00    +0.000 A 
ATOM      7  C   UNL     1     112.737 129.823 137.633  0.00  0.00    +0.000 A 
ATOM      8  C   UNL     1     111.979 128.034 136.045  0.00  0.00    +0.000 A 
ATOM      9  C   UNL     1     113.020 129.053 137.719  0.00  0.00    +0.000 A 
ATOM     10  C   UNL     1     112.822 127.044 136.761  0.00  0.00    +0.000 A 
ATOM     11  C   UNL     1     112.270 127.230 136.130  0.00  0.00    +0.000 A 
ENDROOT
BRANCH  10  13
ATOM     12  O   UNL     1     113.961 123.967 137.116  0.00  0.00    +0.000 OA
ATOM     13  C   UNL     1     113.106 126.275 136.850  0.00  0.00    +0.000 A 
ATOM     14  C   UNL     1     112.616 125.685 137.154  0.00  0.00    +0.000 A 
ATOM     15  C   UNL     1     113.882 126.094 136.634  0.00  0.00    +0.000 A 
ATOM     16  C   UNL     1     114.168 125.325 136.723  0.00  0.00    +0.000 A 
ATOM     17  C   UNL     1     112.901 124.916 137.243  0.00  0.00    +0.000 A 
ATOM     18  C   UNL     1     113.676 124.736 137.028  0.00  0.00    +0.000 A 
BRANCH  16  19
ATOM     19  O   UNL     1     114.943 125.144 136.507  0.00  0.00    +0.000 OA
ATOM     20  C   UNL     1     115.276 125.492 135.838  0.00  0.00    +0.000 C 
ENDBRANCH  16  19
BRANCH  17  21
ATOM     21  O   UNL     1     112.410 124.327 137.548  0.00  0.00    +0.000 OA
ATOM     22  C   UNL     1     111.618 124.291 137.319  0.00  0.00    +0.000 C 
ENDBRANCH  17  21
ENDBRANCH  10  13
BRANCH   5  23
ATOM     23  O   UNL     1     111.924 130.772 136.939  0.00  0.00    +0.000 OA
ATOM     24  C   UNL     1     112.454 131.398 136.854  0.00  0.00    +0.000 C 
ENDBRANCH   5  23
BRANCH   7  25
ATOM     25  O   UNL     1     112.984 130.414 138.152  0.00  0.00    +0.000 OA
ATOM     26  C   UNL     1     113.352 130.211 138.862  0.00  0.00    +0.000 C 
ENDBRANCH   7  25
BRANCH   3  27
ATOM     27  O   UNL     1     111.431 129.590 135.899  0.00  0.00    +0.000 OA
BRANCH  27  36
ATOM     28  O   UNL     1     110.332 129.406 136.794  0.00  0.00    +0.000 OA
ATOM     29  O   UNL     1     108.781 130.262 135.066  0.00  0.00    +0.000 OA
ATOM     30  O   UNL     1     108.199 129.792 136.537  0.00  0.00    +0.000 OA
ATOM     31  O   UNL     1     110.396 130.160 134.747  0.00  0.00    +0.000 OA
ATOM     32  C   UNL     1     109.298 129.976 135.642  0.00  0.00    +0.000 C 
ATOM     33  C   UNL     1     109.008 129.742 136.378  0.00  0.00    +0.000 C 
ATOM     34  C   UNL     1     110.106 129.925 135.483  0.00  0.00    +0.000 C 
ATOM     35  C   UNL     1     109.525 129.457 136.954  0.00  0.00    +0.000 C 
ATOM     36  C   UNL     1     110.623 129.640 136.059  0.00  0.00    +0.000 C 
ATOM     37  C   UNL     1     109.233 129.222 137.689  0.00  0.00    +0.000 C 
ENDBRANCH  27  36
ENDBRANCH   3  27
TORSDOF 7
ENDMDL
