MODEL 1
REMARK VINA RESULT:      -8.3      0.000      0.000
REMARK  Name = 44257194
REMARK  3 active torsions:
REMARK  status: ('A' for Active; 'I' for Inactive)
REMARK    1  A    between atoms: O_3  and  C_18
REMARK    2  A    between atoms: O_5  and  C_20
REMARK    3  A    between atoms: C_6  and  C_10
REMARK                            x       y       z     vdW  Elec       q    Type
REMARK                         _______ _______ _______ _____ _____    ______ ____
ROOT
ATOM      1  O   UNL     1     105.458 124.394 147.746  0.00  0.00    +0.000 OA
ATOM      2  O   UNL     1     107.887 125.769 146.998  0.00  0.00    +0.000 OA
ATOM      3  O   UNL     1     107.781 124.259 149.497  0.00  0.00    +0.000 OA
ATOM      4  C   UNL     1     105.095 124.661 147.054  0.00  0.00    +0.000 C 
ATOM      5  C   UNL     1     105.514 125.134 146.524  0.00  0.00    +0.000 C 
ATOM      6  C   UNL     1     106.297 125.340 146.686  0.00  0.00    +0.000 C 
ATOM      7  C   UNL     1     106.659 125.073 147.377  0.00  0.00    +0.000 A 
ATOM      8  C   UNL     1     106.240 124.600 147.907  0.00  0.00    +0.000 A 
ATOM      9  C   UNL     1     107.475 125.295 147.534  0.00  0.00    +0.000 A 
ATOM     10  C   UNL     1     106.607 124.316 148.631  0.00  0.00    +0.000 A 
ATOM     11  C   UNL     1     107.858 125.020 148.252  0.00  0.00    +0.000 A 
ATOM     12  C   UNL     1     107.421 124.528 148.804  0.00  0.00    +0.000 A 
ENDROOT
BRANCH   4  13
ATOM     13  C   UNL     1     104.313 124.454 146.893  0.00  0.00    +0.000 A 
ATOM     14  C   UNL     1     104.148 123.818 146.394  0.00  0.00    +0.000 A 
ATOM     15  C   UNL     1     103.695 124.884 147.231  0.00  0.00    +0.000 A 
ATOM     16  C   UNL     1     103.365 123.612 146.234  0.00  0.00    +0.000 A 
ATOM     17  C   UNL     1     102.912 124.678 147.071  0.00  0.00    +0.000 A 
ATOM     18  C   UNL     1     102.748 124.041 146.572  0.00  0.00    +0.000 A 
BRANCH  16  19
ATOM     19  O   UNL     1     103.200 122.976 145.736  0.00  0.00    +0.000 OA
ATOM     20  C   UNL     1     103.753 122.740 145.170  0.00  0.00    +0.000 C 
ENDBRANCH  16  19
BRANCH  18  21
ATOM     21  O   UNL     1     101.965 123.836 146.412  0.00  0.00    +0.000 OA
ATOM     22  C   UNL     1     101.349 124.215 146.808  0.00  0.00    +0.000 C 
ENDBRANCH  18  21
ENDBRANCH   4  13
TORSDOF 3
ENDMDL
MODEL 2
REMARK VINA RESULT:      -7.7      0.945      4.508
REMARK  Name = 44257194
REMARK  3 active torsions:
REMARK  status: ('A' for Active; 'I' for Inactive)
REMARK    1  A    between atoms: O_3  and  C_18
REMARK    2  A    between atoms: O_5  and  C_20
REMARK    3  A    between atoms: C_6  and  C_10
REMARK                            x       y       z     vdW  Elec       q    Type
REMARK                         _______ _______ _______ _____ _____    ______ ____
ROOT
ATOM      1  O   UNL     1     104.292 124.145 146.584  0.00  0.00    +0.000 OA
ATOM      2  O   UNL     1     101.609 124.675 147.517  0.00  0.00    +0.000 OA
ATOM      3  O   UNL     1     102.048 122.740 145.373  0.00  0.00    +0.000 OA
ATOM      4  C   UNL     1     104.588 124.689 147.131  0.00  0.00    +0.000 C 
ATOM      5  C   UNL     1     104.073 125.091 147.633  0.00  0.00    +0.000 C 
ATOM      6  C   UNL     1     103.261 124.949 147.590  0.00  0.00    +0.000 C 
ATOM      7  C   UNL     1     102.965 124.406 147.045  0.00  0.00    +0.000 A 
ATOM      8  C   UNL     1     103.481 124.004 146.542  0.00  0.00    +0.000 A 
ATOM      9  C   UNL     1     102.117 124.268 147.010  0.00  0.00    +0.000 A 
ATOM     10  C   UNL     1     103.184 123.435 145.969  0.00  0.00    +0.000 A 
ATOM     11  C   UNL     1     101.803 123.703 146.444  0.00  0.00    +0.000 A 
ATOM     12  C   UNL     1     102.340 123.284 145.920  0.00  0.00    +0.000 A 
ENDROOT
BRANCH   4  13
ATOM     13  C   UNL     1     105.400 124.829 147.173  0.00  0.00    +0.000 A 
ATOM     14  C   UNL     1     105.792 125.184 146.539  0.00  0.00    +0.000 A 
ATOM     15  C   UNL     1     105.821 124.615 147.851  0.00  0.00    +0.000 A 
ATOM     16  C   UNL     1     106.604 125.324 146.583  0.00  0.00    +0.000 A 
ATOM     17  C   UNL     1     106.632 124.756 147.893  0.00  0.00    +0.000 A 
ATOM     18  C   UNL     1     107.024 125.110 147.259  0.00  0.00    +0.000 A 
BRANCH  16  19
ATOM     19  O   UNL     1     106.995 125.679 145.949  0.00  0.00    +0.000 OA
ATOM     20  C   UNL     1     106.562 126.036 145.344  0.00  0.00    +0.000 C 
ENDBRANCH  16  19
BRANCH  18  21
ATOM     21  O   UNL     1     107.836 125.250 147.303  0.00  0.00    +0.000 OA
ATOM     22  C   UNL     1     108.269 124.972 147.946  0.00  0.00    +0.000 C 
ENDBRANCH  18  21
ENDBRANCH   4  13
TORSDOF 3
ENDMDL
MODEL 3
REMARK VINA RESULT:      -7.6      6.867      8.360
REMARK  Name = 44257194
REMARK  3 active torsions:
REMARK  status: ('A' for Active; 'I' for Inactive)
REMARK    1  A    between atoms: O_3  and  C_18
REMARK    2  A    between atoms: O_5  and  C_20
REMARK    3  A    between atoms: C_6  and  C_10
REMARK                            x       y       z     vdW  Elec       q    Type
REMARK                         _______ _______ _______ _____ _____    ______ ____
ROOT
ATOM      1  O   UNL     1     104.922 123.741 139.313  0.00  0.00    +0.000 OA
ATOM      2  O   UNL     1     105.706 126.010 140.921  0.00  0.00    +0.000 OA
ATOM      3  O   UNL     1     107.045 123.440 141.284  0.00  0.00    +0.000 OA
ATOM      4  C   UNL     1     104.358 124.207 138.932  0.00  0.00    +0.000 C 
ATOM      5  C   UNL     1     104.270 125.001 139.139  0.00  0.00    +0.000 C 
ATOM      6  C   UNL     1     104.747 125.328 139.728  0.00  0.00    +0.000 C 
ATOM      7  C   UNL     1     105.311 124.863 140.109  0.00  0.00    +0.000 A 
ATOM      8  C   UNL     1     105.398 124.069 139.901  0.00  0.00    +0.000 A 
ATOM      9  C   UNL     1     105.801 125.215 140.720  0.00  0.00    +0.000 A 
ATOM     10  C   UNL     1     105.983 123.573 140.292  0.00  0.00    +0.000 A 
ATOM     11  C   UNL     1     106.390 124.735 141.121  0.00  0.00    +0.000 A 
ATOM     12  C   UNL     1     106.481 123.909 140.905  0.00  0.00    +0.000 A 
ENDROOT
BRANCH   4  13
ATOM     13  C   UNL     1     103.882 123.879 138.343  0.00  0.00    +0.000 A 
ATOM     14  C   UNL     1     103.073 123.781 138.473  0.00  0.00    +0.000 A 
ATOM     15  C   UNL     1     104.216 123.648 137.624  0.00  0.00    +0.000 A 
ATOM     16  C   UNL     1     102.598 123.453 137.884  0.00  0.00    +0.000 A 
ATOM     17  C   UNL     1     103.740 123.320 137.036  0.00  0.00    +0.000 A 
ATOM     18  C   UNL     1     102.931 123.222 137.166  0.00  0.00    +0.000 A 
BRANCH  16  19
ATOM     19  O   UNL     1     101.789 123.355 138.013  0.00  0.00    +0.000 OA
ATOM     20  C   UNL     1     101.519 123.068 138.739  0.00  0.00    +0.000 C 
ENDBRANCH  16  19
BRANCH  18  21
ATOM     21  O   UNL     1     102.456 122.894 136.576  0.00  0.00    +0.000 OA
ATOM     22  C   UNL     1     102.757 122.783 135.817  0.00  0.00    +0.000 C 
ENDBRANCH  18  21
ENDBRANCH   4  13
TORSDOF 3
ENDMDL
MODEL 4
REMARK VINA RESULT:      -7.6      9.020      9.991
REMARK  Name = 44257194
REMARK  3 active torsions:
REMARK  status: ('A' for Active; 'I' for Inactive)
REMARK    1  A    between atoms: O_3  and  C_18
REMARK    2  A    between atoms: O_5  and  C_20
REMARK    3  A    between atoms: C_6  and  C_10
REMARK                            x       y       z     vdW  Elec       q    Type
REMARK                         _______ _______ _______ _____ _____    ______ ____
ROOT
ATOM      1  O   UNL     1     102.831 132.008 141.241  0.00  0.00    +0.000 OA
ATOM      2  O   UNL     1     100.711 133.646 142.323  0.00  0.00    +0.000 OA
ATOM      3  O   UNL     1     102.863 134.884 140.784  0.00  0.00    +0.000 OA
ATOM      4  C   UNL     1     102.476 131.336 141.565  0.00  0.00    +0.000 C 
ATOM      5  C   UNL     1     101.776 131.407 141.994  0.00  0.00    +0.000 C 
ATOM      6  C   UNL     1     101.429 132.148 142.099  0.00  0.00    +0.000 C 
ATOM      7  C   UNL     1     101.783 132.819 141.776  0.00  0.00    +0.000 A 
ATOM      8  C   UNL     1     102.484 132.749 141.346  0.00  0.00    +0.000 A 
ATOM      9  C   UNL     1     101.412 133.586 141.892  0.00  0.00    +0.000 A 
ATOM     10  C   UNL     1     102.862 133.440 141.004  0.00  0.00    +0.000 A 
ATOM     11  C   UNL     1     101.776 134.288 141.557  0.00  0.00    +0.000 A 
ATOM     12  C   UNL     1     102.506 134.215 141.110  0.00  0.00    +0.000 A 
ENDROOT
BRANCH   4  13
ATOM     13  C   UNL     1     102.824 130.596 141.459  0.00  0.00    +0.000 A 
ATOM     14  C   UNL     1     102.695 130.175 140.762  0.00  0.00    +0.000 A 
ATOM     15  C   UNL     1     103.300 130.276 142.053  0.00  0.00    +0.000 A 
ATOM     16  C   UNL     1     103.043 129.434 140.657  0.00  0.00    +0.000 A 
ATOM     17  C   UNL     1     103.648 129.535 141.947  0.00  0.00    +0.000 A 
ATOM     18  C   UNL     1     103.519 129.114 141.249  0.00  0.00    +0.000 A 
BRANCH  16  19
ATOM     19  O   UNL     1     102.914 129.013 139.959  0.00  0.00    +0.000 OA
ATOM     20  C   UNL     1     102.203 129.100 139.550  0.00  0.00    +0.000 C 
ENDBRANCH  16  19
BRANCH  18  21
ATOM     21  O   UNL     1     103.867 128.373 141.145  0.00  0.00    +0.000 OA
ATOM     22  C   UNL     1     104.454 128.116 141.663  0.00  0.00    +0.000 C 
ENDBRANCH  18  21
ENDBRANCH   4  13
TORSDOF 3
ENDMDL
MODEL 5
REMARK VINA RESULT:      -7.5     10.643     11.272
REMARK  Name = 44257194
REMARK  3 active torsions:
REMARK  status: ('A' for Active; 'I' for Inactive)
REMARK    1  A    between atoms: O_3  and  C_18
REMARK    2  A    between atoms: O_5  and  C_20
REMARK    3  A    between atoms: C_6  and  C_10
REMARK                            x       y       z     vdW  Elec       q    Type
REMARK                         _______ _______ _______ _____ _____    ______ ____
ROOT
ATOM      1  O   UNL     1     111.558 133.006 146.722  0.00  0.00    +0.000 OA
ATOM      2  O   UNL     1     113.134 132.448 149.079  0.00  0.00    +0.000 OA
ATOM      3  O   UNL     1     110.602 133.882 149.329  0.00  0.00    +0.000 OA
ATOM      4  C   UNL     1     112.125 132.630 146.255  0.00  0.00    +0.000 C 
ATOM      5  C   UNL     1     112.798 132.304 146.605  0.00  0.00    +0.000 C 
ATOM      6  C   UNL     1     112.903 132.355 147.422  0.00  0.00    +0.000 C 
ATOM      7  C   UNL     1     112.337 132.730 147.889  0.00  0.00    +0.000 A 
ATOM      8  C   UNL     1     111.664 133.056 147.539  0.00  0.00    +0.000 A 
ATOM      9  C   UNL     1     112.458 132.777 148.738  0.00  0.00    +0.000 A 
ATOM     10  C   UNL     1     111.066 133.450 148.015  0.00  0.00    +0.000 A 
ATOM     11  C   UNL     1     111.871 133.167 149.230  0.00  0.00    +0.000 A 
ATOM     12  C   UNL     1     111.171 133.506 148.865  0.00  0.00    +0.000 A 
ENDROOT
BRANCH   4  13
ATOM     13  C   UNL     1     112.019 132.580 145.439  0.00  0.00    +0.000 A 
ATOM     14  C   UNL     1     112.021 133.265 144.979  0.00  0.00    +0.000 A 
ATOM     15  C   UNL     1     111.911 131.843 145.082  0.00  0.00    +0.000 A 
ATOM     16  C   UNL     1     111.915 133.213 144.162  0.00  0.00    +0.000 A 
ATOM     17  C   UNL     1     111.805 131.793 144.265  0.00  0.00    +0.000 A 
ATOM     18  C   UNL     1     111.807 132.478 143.806  0.00  0.00    +0.000 A 
BRANCH  16  19
ATOM     19  O   UNL     1     111.916 133.898 143.703  0.00  0.00    +0.000 OA
ATOM     20  C   UNL     1     111.963 134.639 144.065  0.00  0.00    +0.000 C 
ENDBRANCH  16  19
BRANCH  18  21
ATOM     21  O   UNL     1     111.701 132.427 142.989  0.00  0.00    +0.000 OA
ATOM     22  C   UNL     1     111.605 131.690 142.630  0.00  0.00    +0.000 C 
ENDBRANCH  18  21
ENDBRANCH   4  13
TORSDOF 3
ENDMDL
MODEL 6
REMARK VINA RESULT:      -7.4      8.208      9.006
REMARK  Name = 44257194
REMARK  3 active torsions:
REMARK  status: ('A' for Active; 'I' for Inactive)
REMARK    1  A    between atoms: O_3  and  C_18
REMARK    2  A    between atoms: O_5  and  C_20
REMARK    3  A    between atoms: C_6  and  C_10
REMARK                            x       y       z     vdW  Elec       q    Type
REMARK                         _______ _______ _______ _____ _____    ______ ____
ROOT
ATOM      1  O   UNL     1     103.418 130.315 142.117  0.00  0.00    +0.000 OA
ATOM      2  O   UNL     1     103.951 127.920 140.591  0.00  0.00    +0.000 OA
ATOM      3  O   UNL     1     105.252 128.316 143.176  0.00  0.00    +0.000 OA
ATOM      4  C   UNL     1     102.907 130.578 141.524  0.00  0.00    +0.000 C 
ATOM      5  C   UNL     1     102.784 130.117 140.851  0.00  0.00    +0.000 C 
ATOM      6  C   UNL     1     103.172 129.393 140.771  0.00  0.00    +0.000 C 
ATOM      7  C   UNL     1     103.682 129.130 141.363  0.00  0.00    +0.000 A 
ATOM      8  C   UNL     1     103.805 129.591 142.036  0.00  0.00    +0.000 A 
ATOM      9  C   UNL     1     104.081 128.374 141.267  0.00  0.00    +0.000 A 
ATOM     10  C   UNL     1     104.335 129.328 142.660  0.00  0.00    +0.000 A 
ATOM     11  C   UNL     1     104.613 128.096 141.881  0.00  0.00    +0.000 A 
ATOM     12  C   UNL     1     104.741 128.576 142.582  0.00  0.00    +0.000 A 
ENDROOT
BRANCH   4  13
ATOM     13  C   UNL     1     102.520 131.301 141.605  0.00  0.00    +0.000 A 
ATOM     14  C   UNL     1     102.866 131.990 141.312  0.00  0.00    +0.000 A 
ATOM     15  C   UNL     1     101.785 131.336 141.981  0.00  0.00    +0.000 A 
ATOM     16  C   UNL     1     102.477 132.714 141.394  0.00  0.00    +0.000 A 
ATOM     17  C   UNL     1     101.398 132.059 142.062  0.00  0.00    +0.000 A 
ATOM     18  C   UNL     1     101.744 132.748 141.769  0.00  0.00    +0.000 A 
BRANCH  16  19
ATOM     19  O   UNL     1     102.823 133.403 141.100  0.00  0.00    +0.000 OA
ATOM     20  C   UNL     1     103.620 133.405 140.884  0.00  0.00    +0.000 C 
ENDBRANCH  16  19
BRANCH  18  21
ATOM     21  O   UNL     1     101.355 133.472 141.851  0.00  0.00    +0.000 OA
ATOM     22  C   UNL     1     100.711 133.539 142.361  0.00  0.00    +0.000 C 
ENDBRANCH  18  21
ENDBRANCH   4  13
TORSDOF 3
ENDMDL
MODEL 7
REMARK VINA RESULT:      -7.4     12.871     14.276
REMARK  Name = 44257194
REMARK  3 active torsions:
REMARK  status: ('A' for Active; 'I' for Inactive)
REMARK    1  A    between atoms: O_3  and  C_18
REMARK    2  A    between atoms: O_5  and  C_20
REMARK    3  A    between atoms: C_6  and  C_10
REMARK                            x       y       z     vdW  Elec       q    Type
REMARK                         _______ _______ _______ _____ _____    ______ ____
ROOT
ATOM      1  O   UNL     1     112.287 127.189 136.011  0.00  0.00    +0.000 OA
ATOM      2  O   UNL     1     112.496 124.390 136.698  0.00  0.00    +0.000 OA
ATOM      3  O   UNL     1     110.119 125.374 135.316  0.00  0.00    +0.000 OA
ATOM      4  C   UNL     1     113.028 127.326 136.349  0.00  0.00    +0.000 C 
ATOM      5  C   UNL     1     113.449 126.702 136.687  0.00  0.00    +0.000 C 
ATOM      6  C   UNL     1     113.129 125.942 136.688  0.00  0.00    +0.000 C 
ATOM      7  C   UNL     1     112.390 125.804 136.350  0.00  0.00    +0.000 A 
ATOM      8  C   UNL     1     111.969 126.428 136.012  0.00  0.00    +0.000 A 
ATOM      9  C   UNL     1     112.068 125.007 136.357  0.00  0.00    +0.000 A 
ATOM     10  C   UNL     1     111.197 126.298 135.657  0.00  0.00    +0.000 A 
ATOM     11  C   UNL     1     111.298 124.858 136.007  0.00  0.00    +0.000 A 
ATOM     12  C   UNL     1     110.859 125.508 135.655  0.00  0.00    +0.000 A 
ENDROOT
BRANCH   4  13
ATOM     13  C   UNL     1     113.346 128.087 136.348  0.00  0.00    +0.000 A 
ATOM     14  C   UNL     1     113.155 128.616 136.952  0.00  0.00    +0.000 A 
ATOM     15  C   UNL     1     113.857 128.319 135.742  0.00  0.00    +0.000 A 
ATOM     16  C   UNL     1     113.474 129.376 136.950  0.00  0.00    +0.000 A 
ATOM     17  C   UNL     1     114.175 129.080 135.741  0.00  0.00    +0.000 A 
ATOM     18  C   UNL     1     113.984 129.609 136.345  0.00  0.00    +0.000 A 
BRANCH  16  19
ATOM     19  O   UNL     1     113.283 129.905 137.554  0.00  0.00    +0.000 OA
ATOM     20  C   UNL     1     112.630 129.760 138.038  0.00  0.00    +0.000 C 
ENDBRANCH  16  19
BRANCH  18  21
ATOM     21  O   UNL     1     114.303 130.370 136.343  0.00  0.00    +0.000 OA
ATOM     22  C   UNL     1     114.880 130.574 135.791  0.00  0.00    +0.000 C 
ENDBRANCH  18  21
ENDBRANCH   4  13
TORSDOF 3
ENDMDL
MODEL 8
REMARK VINA RESULT:      -7.4     12.696     13.663
REMARK  Name = 44257194
REMARK  3 active torsions:
REMARK  status: ('A' for Active; 'I' for Inactive)
REMARK    1  A    between atoms: O_3  and  C_18
REMARK    2  A    between atoms: O_5  and  C_20
REMARK    3  A    between atoms: C_6  and  C_10
REMARK                            x       y       z     vdW  Elec       q    Type
REMARK                         _______ _______ _______ _____ _____    ______ ____
ROOT
ATOM      1  O   UNL     1     113.204 127.315 136.105  0.00  0.00    +0.000 OA
ATOM      2  O   UNL     1     113.201 129.836 137.518  0.00  0.00    +0.000 OA
ATOM      3  O   UNL     1     114.706 129.567 135.029  0.00  0.00    +0.000 OA
ATOM      4  C   UNL     1     112.714 126.991 136.684  0.00  0.00    +0.000 C 
ATOM      5  C   UNL     1     112.469 127.452 137.323  0.00  0.00    +0.000 C 
ATOM      6  C   UNL     1     112.714 128.238 137.382  0.00  0.00    +0.000 C 
ATOM      7  C   UNL     1     113.203 128.562 136.803  0.00  0.00    +0.000 A 
ATOM      8  C   UNL     1     113.448 128.101 136.164  0.00  0.00    +0.000 A 
ATOM      9  C   UNL     1     113.451 129.382 136.876  0.00  0.00    +0.000 A 
ATOM     10  C   UNL     1     113.958 128.428 135.554  0.00  0.00    +0.000 A 
ATOM     11  C   UNL     1     113.961 129.725 136.276  0.00  0.00    +0.000 A 
ATOM     12  C   UNL     1     114.216 129.245 135.611  0.00  0.00    +0.000 A 
ENDROOT
BRANCH   4  13
ATOM     13  C   UNL     1     112.470 126.205 136.625  0.00  0.00    +0.000 A 
ATOM     14  C   UNL     1     111.806 126.012 136.175  0.00  0.00    +0.000 A 
ATOM     15  C   UNL     1     112.891 125.612 137.015  0.00  0.00    +0.000 A 
ATOM     16  C   UNL     1     111.562 125.226 136.116  0.00  0.00    +0.000 A 
ATOM     17  C   UNL     1     112.647 124.826 136.955  0.00  0.00    +0.000 A 
ATOM     18  C   UNL     1     111.982 124.633 136.506  0.00  0.00    +0.000 A 
BRANCH  16  19
ATOM     19  O   UNL     1     110.898 125.033 135.666  0.00  0.00    +0.000 OA
ATOM     20  C   UNL     1     110.513 125.616 135.227  0.00  0.00    +0.000 C 
ENDBRANCH  16  19
BRANCH  18  21
ATOM     21  O   UNL     1     111.739 123.847 136.447  0.00  0.00    +0.000 OA
ATOM     22  C   UNL     1     112.080 123.272 136.929  0.00  0.00    +0.000 C 
ENDBRANCH  18  21
ENDBRANCH   4  13
TORSDOF 3
ENDMDL
MODEL 9
REMARK VINA RESULT:      -7.3     10.314     11.560
REMARK  Name = 44257194
REMARK  3 active torsions:
REMARK  status: ('A' for Active; 'I' for Inactive)
REMARK    1  A    between atoms: O_3  and  C_18
REMARK    2  A    between atoms: O_5  and  C_20
REMARK    3  A    between atoms: C_6  and  C_10
REMARK                            x       y       z     vdW  Elec       q    Type
REMARK                         _______ _______ _______ _____ _____    ______ ____
ROOT
ATOM      1  O   UNL     1     111.911 126.211 138.935  0.00  0.00    +0.000 OA
ATOM      2  O   UNL     1     114.322 126.981 140.328  0.00  0.00    +0.000 OA
ATOM      3  O   UNL     1     111.750 127.085 141.708  0.00  0.00    +0.000 OA
ATOM      4  C   UNL     1     112.355 126.051 138.258  0.00  0.00    +0.000 C 
ATOM      5  C   UNL     1     113.172 126.162 138.264  0.00  0.00    +0.000 C 
ATOM      6  C   UNL     1     113.546 126.432 138.948  0.00  0.00    +0.000 C 
ATOM      7  C   UNL     1     113.103 126.592 139.625  0.00  0.00    +0.000 A 
ATOM      8  C   UNL     1     112.286 126.481 139.618  0.00  0.00    +0.000 A 
ATOM      9  C   UNL     1     113.504 126.874 140.331  0.00  0.00    +0.000 A 
ATOM     10  C   UNL     1     111.813 126.644 140.318  0.00  0.00    +0.000 A 
ATOM     11  C   UNL     1     113.048 127.042 141.039  0.00  0.00    +0.000 A 
ATOM     12  C   UNL     1     112.197 126.926 141.033  0.00  0.00    +0.000 A 
ENDROOT
BRANCH   4  13
ATOM     13  C   UNL     1     111.980 125.780 137.574  0.00  0.00    +0.000 A 
ATOM     14  C   UNL     1     111.973 124.974 137.399  0.00  0.00    +0.000 A 
ATOM     15  C   UNL     1     111.612 126.317 137.066  0.00  0.00    +0.000 A 
ATOM     16  C   UNL     1     111.598 124.705 136.715  0.00  0.00    +0.000 A 
ATOM     17  C   UNL     1     111.237 126.047 136.383  0.00  0.00    +0.000 A 
ATOM     18  C   UNL     1     111.230 125.240 136.207  0.00  0.00    +0.000 A 
BRANCH  16  19
ATOM     19  O   UNL     1     111.591 123.899 136.539  0.00  0.00    +0.000 OA
ATOM     20  C   UNL     1     111.995 123.367 137.024  0.00  0.00    +0.000 C 
ENDBRANCH  16  19
BRANCH  18  21
ATOM     21  O   UNL     1     110.855 124.971 135.523  0.00  0.00    +0.000 OA
ATOM     22  C   UNL     1     110.389 125.485 135.078  0.00  0.00    +0.000 C 
ENDBRANCH  18  21
ENDBRANCH   4  13
TORSDOF 3
ENDMDL
