MODEL 1
REMARK VINA RESULT:      -8.0      0.000      0.000
REMARK  Name = 176471
REMARK  3 active torsions:
REMARK  status: ('A' for Active; 'I' for Inactive)
REMARK    1  A    between atoms: O_2  and  C_12
REMARK    2  A    between atoms: O_3  and  C_16
REMARK    3  A    between atoms: C_6  and  C_9
REMARK                            x       y       z     vdW  Elec       q    Type
REMARK                         _______ _______ _______ _____ _____    ______ ____
ROOT
ATOM      1  O   UNL     1     112.213 124.219 136.897  0.00  0.00    +0.000 OA
ATOM      2  O   UNL     1     115.059 124.422 137.480  0.00  0.00    +0.000 OA
ATOM      3  C   UNL     1     111.529 125.293 136.248  0.00  0.00    +0.000 C 
ATOM      4  C   UNL     1     112.233 125.724 136.220  0.00  0.00    +0.000 C 
ATOM      5  C   UNL     1     111.519 124.540 136.587  0.00  0.00    +0.000 C 
ATOM      6  C   UNL     1     112.926 125.401 136.530  0.00  0.00    +0.000 A 
ATOM      7  C   UNL     1     112.916 124.649 136.869  0.00  0.00    +0.000 A 
ATOM      8  C   UNL     1     113.652 125.859 136.495  0.00  0.00    +0.000 A 
ATOM      9  C   UNL     1     113.632 124.303 137.195  0.00  0.00    +0.000 A 
ATOM     10  C   UNL     1     114.377 125.529 136.816  0.00  0.00    +0.000 A 
ATOM     11  C   UNL     1     114.367 124.746 137.169  0.00  0.00    +0.000 A 
ENDROOT
BRANCH   3  13
ATOM     12  O   UNL     1     108.757 126.582 135.005  0.00  0.00    +0.000 OA
ATOM     13  C   UNL     1     110.836 125.615 135.938  0.00  0.00    +0.000 A 
ATOM     14  C   UNL     1     110.360 126.100 136.406  0.00  0.00    +0.000 A 
ATOM     15  C   UNL     1     110.619 125.453 135.158  0.00  0.00    +0.000 A 
ATOM     16  C   UNL     1     109.667 126.422 136.095  0.00  0.00    +0.000 A 
ATOM     17  C   UNL     1     109.926 125.775 134.848  0.00  0.00    +0.000 A 
ATOM     18  C   UNL     1     109.450 126.260 135.316  0.00  0.00    +0.000 A 
BRANCH  14  19
ATOM     19  O   UNL     1     110.577 126.262 137.185  0.00  0.00    +0.000 OA
ATOM     20  C   UNL     1     110.011 126.234 137.785  0.00  0.00    +0.000 C 
ENDBRANCH  14  19
BRANCH  16  21
ATOM     21  O   UNL     1     109.191 126.906 136.563  0.00  0.00    +0.000 OA
ATOM     22  C   UNL     1     108.934 127.635 136.275  0.00  0.00    +0.000 C 
ENDBRANCH  16  21
ENDBRANCH   3  13
TORSDOF 3
ENDMDL
MODEL 2
REMARK VINA RESULT:      -7.8      7.112      8.623
REMARK  Name = 176471
REMARK  3 active torsions:
REMARK  status: ('A' for Active; 'I' for Inactive)
REMARK    1  A    between atoms: O_2  and  C_12
REMARK    2  A    between atoms: O_3  and  C_16
REMARK    3  A    between atoms: C_6  and  C_9
REMARK                            x       y       z     vdW  Elec       q    Type
REMARK                         _______ _______ _______ _____ _____    ______ ____
ROOT
ATOM      1  O   UNL     1     102.763 123.653 138.326  0.00  0.00    +0.000 OA
ATOM      2  O   UNL     1     102.421 122.920 135.529  0.00  0.00    +0.000 OA
ATOM      3  C   UNL     1     104.067 123.695 138.909  0.00  0.00    +0.000 C 
ATOM      4  C   UNL     1     104.397 123.468 138.187  0.00  0.00    +0.000 C 
ATOM      5  C   UNL     1     103.250 123.788 138.979  0.00  0.00    +0.000 C 
ATOM      6  C   UNL     1     103.909 123.334 137.535  0.00  0.00    +0.000 A 
ATOM      7  C   UNL     1     103.092 123.427 137.605  0.00  0.00    +0.000 A 
ATOM      8  C   UNL     1     104.264 123.099 136.789  0.00  0.00    +0.000 A 
ATOM      9  C   UNL     1     102.574 123.290 136.933  0.00  0.00    +0.000 A 
ATOM     10  C   UNL     1     103.761 122.958 136.106  0.00  0.00    +0.000 A 
ATOM     11  C   UNL     1     102.911 123.054 136.179  0.00  0.00    +0.000 A 
ENDROOT
BRANCH   3  13
ATOM     12  O   UNL     1     106.019 124.229 141.516  0.00  0.00    +0.000 OA
ATOM     13  C   UNL     1     104.555 123.829 139.560  0.00  0.00    +0.000 A 
ATOM     14  C   UNL     1     104.833 124.590 139.718  0.00  0.00    +0.000 A 
ATOM     15  C   UNL     1     104.764 123.202 140.054  0.00  0.00    +0.000 A 
ATOM     16  C   UNL     1     105.321 124.722 140.370  0.00  0.00    +0.000 A 
ATOM     17  C   UNL     1     105.252 123.336 140.706  0.00  0.00    +0.000 A 
ATOM     18  C   UNL     1     105.531 124.096 140.864  0.00  0.00    +0.000 A 
BRANCH  14  19
ATOM     19  O   UNL     1     104.624 125.216 139.225  0.00  0.00    +0.000 OA
ATOM     20  C   UNL     1     104.319 125.911 139.548  0.00  0.00    +0.000 C 
ENDBRANCH  14  19
BRANCH  16  21
ATOM     21  O   UNL     1     105.600 125.483 140.528  0.00  0.00    +0.000 OA
ATOM     22  C   UNL     1     106.390 125.598 140.736  0.00  0.00    +0.000 C 
ENDBRANCH  16  21
ENDBRANCH   3  13
TORSDOF 3
ENDMDL
MODEL 3
REMARK VINA RESULT:      -7.7      9.333     11.638
REMARK  Name = 176471
REMARK  3 active torsions:
REMARK  status: ('A' for Active; 'I' for Inactive)
REMARK    1  A    between atoms: O_2  and  C_12
REMARK    2  A    between atoms: O_3  and  C_16
REMARK    3  A    between atoms: C_6  and  C_9
REMARK                            x       y       z     vdW  Elec       q    Type
REMARK                         _______ _______ _______ _____ _____    ______ ____
ROOT
ATOM      1  O   UNL     1     102.873 129.642 140.552  0.00  0.00    +0.000 OA
ATOM      2  O   UNL     1     104.779 127.606 141.389  0.00  0.00    +0.000 OA
ATOM      3  C   UNL     1     102.481 130.680 141.452  0.00  0.00    +0.000 C 
ATOM      4  C   UNL     1     102.975 130.363 142.033  0.00  0.00    +0.000 C 
ATOM      5  C   UNL     1     102.430 130.320 140.712  0.00  0.00    +0.000 C 
ATOM      6  C   UNL     1     103.417 129.685 141.872  0.00  0.00    +0.000 A 
ATOM      7  C   UNL     1     103.366 129.325 141.131  0.00  0.00    +0.000 A 
ATOM      8  C   UNL     1     103.928 129.364 142.484  0.00  0.00    +0.000 A 
ATOM      9  C   UNL     1     103.822 128.618 140.952  0.00  0.00    +0.000 A 
ATOM     10  C   UNL     1     104.391 128.658 142.323  0.00  0.00    +0.000 A 
ATOM     11  C   UNL     1     104.338 128.283 141.552  0.00  0.00    +0.000 A 
ENDROOT
BRANCH   3  13
ATOM     12  O   UNL     1     100.711 133.389 142.097  0.00  0.00    +0.000 OA
ATOM     13  C   UNL     1     102.039 131.358 141.613  0.00  0.00    +0.000 A 
ATOM     14  C   UNL     1     102.371 132.104 141.498  0.00  0.00    +0.000 A 
ATOM     15  C   UNL     1     101.264 131.288 141.889  0.00  0.00    +0.000 A 
ATOM     16  C   UNL     1     101.928 132.781 141.660  0.00  0.00    +0.000 A 
ATOM     17  C   UNL     1     100.822 131.966 142.050  0.00  0.00    +0.000 A 
ATOM     18  C   UNL     1     101.154 132.712 141.935  0.00  0.00    +0.000 A 
BRANCH  14  19
ATOM     19  O   UNL     1     103.145 132.173 141.223  0.00  0.00    +0.000 OA
ATOM     20  C   UNL     1     103.327 132.729 140.641  0.00  0.00    +0.000 C 
ENDBRANCH  14  19
BRANCH  16  21
ATOM     21  O   UNL     1     102.260 133.528 141.545  0.00  0.00    +0.000 OA
ATOM     22  C   UNL     1     102.245 134.084 142.154  0.00  0.00    +0.000 C 
ENDBRANCH  16  21
ENDBRANCH   3  13
TORSDOF 3
ENDMDL
MODEL 4
REMARK VINA RESULT:      -7.5      2.465      4.029
REMARK  Name = 176471
REMARK  3 active torsions:
REMARK  status: ('A' for Active; 'I' for Inactive)
REMARK    1  A    between atoms: O_2  and  C_12
REMARK    2  A    between atoms: O_3  and  C_16
REMARK    3  A    between atoms: C_6  and  C_9
REMARK                            x       y       z     vdW  Elec       q    Type
REMARK                         _______ _______ _______ _____ _____    ______ ____
ROOT
ATOM      1  O   UNL     1     113.178 128.336 137.408  0.00  0.00    +0.000 OA
ATOM      2  O   UNL     1     113.881 130.906 136.232  0.00  0.00    +0.000 OA
ATOM      3  C   UNL     1     113.455 127.121 136.710  0.00  0.00    +0.000 C 
ATOM      4  C   UNL     1     113.780 127.554 136.086  0.00  0.00    +0.000 C 
ATOM      5  C   UNL     1     113.154 127.512 137.371  0.00  0.00    +0.000 C 
ATOM      6  C   UNL     1     113.804 128.377 136.125  0.00  0.00    +0.000 A 
ATOM      7  C   UNL     1     113.502 128.769 136.786  0.00  0.00    +0.000 A 
ATOM      8  C   UNL     1     114.145 128.817 135.470  0.00  0.00    +0.000 A 
ATOM      9  C   UNL     1     113.521 129.627 136.837  0.00  0.00    +0.000 A 
ATOM     10  C   UNL     1     114.172 129.675 135.504  0.00  0.00    +0.000 A 
ATOM     11  C   UNL     1     113.858 130.082 136.192  0.00  0.00    +0.000 A 
ENDROOT
BRANCH   3  13
ATOM     12  O   UNL     1     113.364 123.826 136.556  0.00  0.00    +0.000 OA
ATOM     13  C   UNL     1     113.432 126.297 136.671  0.00  0.00    +0.000 A 
ATOM     14  C   UNL     1     112.719 125.911 136.520  0.00  0.00    +0.000 A 
ATOM     15  C   UNL     1     114.123 125.860 136.784  0.00  0.00    +0.000 A 
ATOM     16  C   UNL     1     112.697 125.087 136.482  0.00  0.00    +0.000 A 
ATOM     17  C   UNL     1     114.099 125.036 136.745  0.00  0.00    +0.000 A 
ATOM     18  C   UNL     1     113.386 124.650 136.594  0.00  0.00    +0.000 A 
BRANCH  14  19
ATOM     19  O   UNL     1     112.029 126.348 136.408  0.00  0.00    +0.000 OA
ATOM     20  C   UNL     1     111.509 126.149 135.799  0.00  0.00    +0.000 C 
ENDBRANCH  14  19
BRANCH  16  21
ATOM     21  O   UNL     1     111.984 124.700 136.331  0.00  0.00    +0.000 OA
ATOM     22  C   UNL     1     111.741 124.077 136.813  0.00  0.00    +0.000 C 
ENDBRANCH  16  21
ENDBRANCH   3  13
TORSDOF 3
ENDMDL
MODEL 5
REMARK VINA RESULT:      -7.5      2.781      3.673
REMARK  Name = 176471
REMARK  3 active torsions:
REMARK  status: ('A' for Active; 'I' for Inactive)
REMARK    1  A    between atoms: O_2  and  C_12
REMARK    2  A    between atoms: O_3  and  C_16
REMARK    3  A    between atoms: C_6  and  C_9
REMARK                            x       y       z     vdW  Elec       q    Type
REMARK                         _______ _______ _______ _____ _____    ______ ____
ROOT
ATOM      1  O   UNL     1     112.315 126.292 136.327  0.00  0.00    +0.000 OA
ATOM      2  O   UNL     1     113.012 123.530 136.929  0.00  0.00    +0.000 OA
ATOM      3  C   UNL     1     113.297 127.325 136.429  0.00  0.00    +0.000 C 
ATOM      4  C   UNL     1     113.859 126.767 136.661  0.00  0.00    +0.000 C 
ATOM      5  C   UNL     1     112.525 127.088 136.262  0.00  0.00    +0.000 C 
ATOM      6  C   UNL     1     113.648 125.972 136.726  0.00  0.00    +0.000 A 
ATOM      7  C   UNL     1     112.876 125.735 136.559  0.00  0.00    +0.000 A 
ATOM      8  C   UNL     1     114.243 125.400 136.969  0.00  0.00    +0.000 A 
ATOM      9  C   UNL     1     112.645 124.909 136.623  0.00  0.00    +0.000 A 
ATOM     10  C   UNL     1     114.029 124.571 137.038  0.00  0.00    +0.000 A 
ATOM     11  C   UNL     1     113.225 124.324 136.865  0.00  0.00    +0.000 A 
ENDROOT
BRANCH   3  13
ATOM     12  O   UNL     1     114.142 130.504 136.166  0.00  0.00    +0.000 OA
ATOM     13  C   UNL     1     113.508 128.120 136.364  0.00  0.00    +0.000 A 
ATOM     14  C   UNL     1     113.295 128.653 136.956  0.00  0.00    +0.000 A 
ATOM     15  C   UNL     1     113.932 128.381 135.705  0.00  0.00    +0.000 A 
ATOM     16  C   UNL     1     113.507 129.448 136.890  0.00  0.00    +0.000 A 
ATOM     17  C   UNL     1     114.143 129.176 135.640  0.00  0.00    +0.000 A 
ATOM     18  C   UNL     1     113.931 129.709 136.232  0.00  0.00    +0.000 A 
BRANCH  14  19
ATOM     19  O   UNL     1     112.872 128.392 137.613  0.00  0.00    +0.000 OA
ATOM     20  C   UNL     1     113.090 128.639 138.369  0.00  0.00    +0.000 C 
ENDBRANCH  14  19
BRANCH  16  21
ATOM     21  O   UNL     1     113.295 129.982 137.482  0.00  0.00    +0.000 OA
ATOM     22  C   UNL     1     112.905 130.682 137.287  0.00  0.00    +0.000 C 
ENDBRANCH  16  21
ENDBRANCH   3  13
TORSDOF 3
ENDMDL
MODEL 6
REMARK VINA RESULT:      -7.5      9.634     11.275
REMARK  Name = 176471
REMARK  3 active torsions:
REMARK  status: ('A' for Active; 'I' for Inactive)
REMARK    1  A    between atoms: O_2  and  C_12
REMARK    2  A    between atoms: O_3  and  C_16
REMARK    3  A    between atoms: C_6  and  C_9
REMARK                            x       y       z     vdW  Elec       q    Type
REMARK                         _______ _______ _______ _____ _____    ______ ____
ROOT
ATOM      1  O   UNL     1     105.746 124.867 147.611  0.00  0.00    +0.000 OA
ATOM      2  O   UNL     1     107.715 124.091 149.612  0.00  0.00    +0.000 OA
ATOM      3  C   UNL     1     106.146 125.586 146.443  0.00  0.00    +0.000 C 
ATOM      4  C   UNL     1     106.929 125.574 146.704  0.00  0.00    +0.000 C 
ATOM      5  C   UNL     1     105.554 125.232 146.896  0.00  0.00    +0.000 C 
ATOM      6  C   UNL     1     107.119 125.209 147.419  0.00  0.00    +0.000 A 
ATOM      7  C   UNL     1     106.528 124.856 147.873  0.00  0.00    +0.000 A 
ATOM      8  C   UNL     1     107.938 125.203 147.681  0.00  0.00    +0.000 A 
ATOM      9  C   UNL     1     106.714 124.472 148.619  0.00  0.00    +0.000 A 
ATOM     10  C   UNL     1     108.143 124.825 148.424  0.00  0.00    +0.000 A 
ATOM     11  C   UNL     1     107.527 124.457 148.896  0.00  0.00    +0.000 A 
ENDROOT
BRANCH   3  13
ATOM     12  O   UNL     1     105.385 127.049 143.584  0.00  0.00    +0.000 OA
ATOM     13  C   UNL     1     105.956 125.951 145.728  0.00  0.00    +0.000 A 
ATOM     14  C   UNL     1     105.906 125.504 145.036  0.00  0.00    +0.000 A 
ATOM     15  C   UNL     1     105.815 126.764 145.705  0.00  0.00    +0.000 A 
ATOM     16  C   UNL     1     105.716 125.870 144.322  0.00  0.00    +0.000 A 
ATOM     17  C   UNL     1     105.625 127.129 144.991  0.00  0.00    +0.000 A 
ATOM     18  C   UNL     1     105.575 126.682 144.299  0.00  0.00    +0.000 A 
BRANCH  14  19
ATOM     19  O   UNL     1     106.046 124.692 145.060  0.00  0.00    +0.000 OA
ATOM     20  C   UNL     1     105.564 124.178 144.630  0.00  0.00    +0.000 C 
ENDBRANCH  14  19
BRANCH  16  21
ATOM     21  O   UNL     1     105.666 125.423 143.630  0.00  0.00    +0.000 OA
ATOM     22  C   UNL     1     106.065 125.668 142.951  0.00  0.00    +0.000 C 
ENDBRANCH  16  21
ENDBRANCH   3  13
TORSDOF 3
ENDMDL
MODEL 7
REMARK VINA RESULT:      -7.5     11.431     13.284
REMARK  Name = 176471
REMARK  3 active torsions:
REMARK  status: ('A' for Active; 'I' for Inactive)
REMARK    1  A    between atoms: O_2  and  C_12
REMARK    2  A    between atoms: O_3  and  C_16
REMARK    3  A    between atoms: C_6  and  C_9
REMARK                            x       y       z     vdW  Elec       q    Type
REMARK                         _______ _______ _______ _____ _____    ______ ____
ROOT
ATOM      1  O   UNL     1     103.322 125.107 147.093  0.00  0.00    +0.000 OA
ATOM      2  O   UNL     1     101.239 123.284 146.188  0.00  0.00    +0.000 OA
ATOM      3  C   UNL     1     104.700 124.771 146.923  0.00  0.00    +0.000 C 
ATOM      4  C   UNL     1     104.483 124.058 146.568  0.00  0.00    +0.000 C 
ATOM      5  C   UNL     1     104.120 125.296 147.186  0.00  0.00    +0.000 C 
ATOM      6  C   UNL     1     103.685 123.871 146.476  0.00  0.00    +0.000 A 
ATOM      7  C   UNL     1     103.104 124.395 146.739  0.00  0.00    +0.000 A 
ATOM      8  C   UNL     1     103.471 123.126 146.105  0.00  0.00    +0.000 A 
ATOM      9  C   UNL     1     102.270 124.210 146.648  0.00  0.00    +0.000 A 
ATOM     10  C   UNL     1     102.642 122.924 146.006  0.00  0.00    +0.000 A 
ATOM     11  C   UNL     1     102.037 123.470 146.279  0.00  0.00    +0.000 A 
ENDROOT
BRANCH   3  13
ATOM     12  O   UNL     1     107.893 125.523 147.289  0.00  0.00    +0.000 OA
ATOM     13  C   UNL     1     105.498 124.959 147.015  0.00  0.00    +0.000 A 
ATOM     14  C   UNL     1     105.872 124.830 147.739  0.00  0.00    +0.000 A 
ATOM     15  C   UNL     1     105.923 125.276 146.382  0.00  0.00    +0.000 A 
ATOM     16  C   UNL     1     106.670 125.018 147.830  0.00  0.00    +0.000 A 
ATOM     17  C   UNL     1     106.721 125.464 146.474  0.00  0.00    +0.000 A 
ATOM     18  C   UNL     1     107.095 125.335 147.198  0.00  0.00    +0.000 A 
BRANCH  14  19
ATOM     19  O   UNL     1     105.448 124.514 148.371  0.00  0.00    +0.000 OA
ATOM     20  C   UNL     1     105.535 124.833 149.127  0.00  0.00    +0.000 C 
ENDBRANCH  14  19
BRANCH  16  21
ATOM     21  O   UNL     1     107.044 124.890 148.554  0.00  0.00    +0.000 OA
ATOM     22  C   UNL     1     107.817 124.602 148.575  0.00  0.00    +0.000 C 
ENDBRANCH  16  21
ENDBRANCH   3  13
TORSDOF 3
ENDMDL
MODEL 8
REMARK VINA RESULT:      -7.5      1.689      2.382
REMARK  Name = 176471
REMARK  3 active torsions:
REMARK  status: ('A' for Active; 'I' for Inactive)
REMARK    1  A    between atoms: O_2  and  C_12
REMARK    2  A    between atoms: O_3  and  C_16
REMARK    3  A    between atoms: C_6  and  C_9
REMARK                            x       y       z     vdW  Elec       q    Type
REMARK                         _______ _______ _______ _____ _____    ______ ____
ROOT
ATOM      1  O   UNL     1     110.889 125.155 135.309  0.00  0.00    +0.000 OA
ATOM      2  O   UNL     1     112.366 123.286 136.984  0.00  0.00    +0.000 OA
ATOM      3  C   UNL     1     110.270 126.308 135.883  0.00  0.00    +0.000 C 
ATOM      4  C   UNL     1     110.546 126.084 136.629  0.00  0.00    +0.000 C 
ATOM      5  C   UNL     1     110.442 125.843 135.223  0.00  0.00    +0.000 C 
ATOM      6  C   UNL     1     110.993 125.396 136.713  0.00  0.00    +0.000 A 
ATOM      7  C   UNL     1     111.164 124.932 136.053  0.00  0.00    +0.000 A 
ATOM      8  C   UNL     1     111.274 125.173 137.494  0.00  0.00    +0.000 A 
ATOM      9  C   UNL     1     111.629 124.212 136.129  0.00  0.00    +0.000 A 
ATOM     10  C   UNL     1     111.740 124.458 137.589  0.00  0.00    +0.000 A 
ATOM     11  C   UNL     1     111.919 123.974 136.902  0.00  0.00    +0.000 A 
ENDROOT
BRANCH   3  13
ATOM     12  O   UNL     1     108.480 129.059 135.546  0.00  0.00    +0.000 OA
ATOM     13  C   UNL     1     109.823 126.996 135.799  0.00  0.00    +0.000 A 
ATOM     14  C   UNL     1     110.182 127.693 135.541  0.00  0.00    +0.000 A 
ATOM     15  C   UNL     1     109.016 126.987 135.972  0.00  0.00    +0.000 A 
ATOM     16  C   UNL     1     109.734 128.380 135.457  0.00  0.00    +0.000 A 
ATOM     17  C   UNL     1     108.569 127.675 135.888  0.00  0.00    +0.000 A 
ATOM     18  C   UNL     1     108.928 128.372 135.630  0.00  0.00    +0.000 A 
BRANCH  14  19
ATOM     19  O   UNL     1     110.988 127.701 135.368  0.00  0.00    +0.000 OA
ATOM     20  C   UNL     1     111.458 128.328 135.625  0.00  0.00    +0.000 C 
ENDBRANCH  14  19
BRANCH  16  21
ATOM     21  O   UNL     1     110.093 129.077 135.199  0.00  0.00    +0.000 OA
ATOM     22  C   UNL     1     109.735 129.534 134.613  0.00  0.00    +0.000 C 
ENDBRANCH  16  21
ENDBRANCH   3  13
TORSDOF 3
ENDMDL
MODEL 9
REMARK VINA RESULT:      -7.4      3.250      4.439
REMARK  Name = 176471
REMARK  3 active torsions:
REMARK  status: ('A' for Active; 'I' for Inactive)
REMARK    1  A    between atoms: O_2  and  C_12
REMARK    2  A    between atoms: O_3  and  C_16
REMARK    3  A    between atoms: C_6  and  C_9
REMARK                            x       y       z     vdW  Elec       q    Type
REMARK                         _______ _______ _______ _____ _____    ______ ____
ROOT
ATOM      1  O   UNL     1     112.346 125.700 138.338  0.00  0.00    +0.000 OA
ATOM      2  O   UNL     1     113.232 123.795 136.321  0.00  0.00    +0.000 OA
ATOM      3  C   UNL     1     113.285 126.567 138.976  0.00  0.00    +0.000 C 
ATOM      4  C   UNL     1     113.895 126.235 138.530  0.00  0.00    +0.000 C 
ATOM      5  C   UNL     1     112.511 126.299 138.881  0.00  0.00    +0.000 C 
ATOM      6  C   UNL     1     113.729 125.636 137.988  0.00  0.00    +0.000 A 
ATOM      7  C   UNL     1     112.955 125.368 137.892  0.00  0.00    +0.000 A 
ATOM      8  C   UNL     1     114.373 125.297 137.528  0.00  0.00    +0.000 A 
ATOM      9  C   UNL     1     112.770 124.744 137.330  0.00  0.00    +0.000 A 
ATOM     10  C   UNL     1     114.206 124.673 136.962  0.00  0.00    +0.000 A 
ATOM     11  C   UNL     1     113.400 124.395 136.863  0.00  0.00    +0.000 A 
ENDROOT
BRANCH   3  13
ATOM     12  O   UNL     1     113.951 128.963 141.146  0.00  0.00    +0.000 OA
ATOM     13  C   UNL     1     113.451 127.166 139.518  0.00  0.00    +0.000 A 
ATOM     14  C   UNL     1     113.259 127.949 139.341  0.00  0.00    +0.000 A 
ATOM     15  C   UNL     1     113.810 126.982 140.239  0.00  0.00    +0.000 A 
ATOM     16  C   UNL     1     113.426 128.547 139.884  0.00  0.00    +0.000 A 
ATOM     17  C   UNL     1     113.976 127.582 140.781  0.00  0.00    +0.000 A 
ATOM     18  C   UNL     1     113.784 128.364 140.603  0.00  0.00    +0.000 A 
BRANCH  14  19
ATOM     19  O   UNL     1     112.901 128.132 138.621  0.00  0.00    +0.000 OA
ATOM     20  C   UNL     1     113.165 128.779 138.182  0.00  0.00    +0.000 C 
ENDBRANCH  14  19
BRANCH  16  21
ATOM     21  O   UNL     1     113.234 129.330 139.706  0.00  0.00    +0.000 OA
ATOM     22  C   UNL     1     112.800 129.781 140.243  0.00  0.00    +0.000 C 
ENDBRANCH  16  21
ENDBRANCH   3  13
TORSDOF 3
ENDMDL
MODEL 10
REMARK VINA RESULT:      -7.4      2.852      4.093
REMARK  Name = 176471
REMARK  3 active torsions:
REMARK  status: ('A' for Active; 'I' for Inactive)
REMARK    1  A    between atoms: O_2  and  C_12
REMARK    2  A    between atoms: O_3  and  C_16
REMARK    3  A    between atoms: C_6  and  C_9
REMARK                            x       y       z     vdW  Elec       q    Type
REMARK                         _______ _______ _______ _____ _____    ______ ____
ROOT
ATOM      1  O   UNL     1     113.201 127.910 138.572  0.00  0.00    +0.000 OA
ATOM      2  O   UNL     1     113.708 129.173 141.147  0.00  0.00    +0.000 OA
ATOM      3  C   UNL     1     113.358 126.498 138.415  0.00  0.00    +0.000 C 
ATOM      4  C   UNL     1     113.578 126.435 139.209  0.00  0.00    +0.000 C 
ATOM      5  C   UNL     1     113.169 127.236 138.097  0.00  0.00    +0.000 C 
ATOM      6  C   UNL     1     113.609 127.109 139.683  0.00  0.00    +0.000 A 
ATOM      7  C   UNL     1     113.420 127.847 139.364  0.00  0.00    +0.000 A 
ATOM      8  C   UNL     1     113.840 127.031 140.507  0.00  0.00    +0.000 A 
ATOM      9  C   UNL     1     113.449 128.556 139.849  0.00  0.00    +0.000 A 
ATOM     10  C   UNL     1     113.874 127.729 141.006  0.00  0.00    +0.000 A 
ATOM     11  C   UNL     1     113.678 128.497 140.675  0.00  0.00    +0.000 A 
ENDROOT
BRANCH   3  13
ATOM     12  O   UNL     1     113.236 123.800 136.519  0.00  0.00    +0.000 OA
ATOM     13  C   UNL     1     113.327 125.824 137.941  0.00  0.00    +0.000 A 
ATOM     14  C   UNL     1     112.598 125.492 137.743  0.00  0.00    +0.000 A 
ATOM     15  C   UNL     1     114.025 125.482 137.666  0.00  0.00    +0.000 A 
ATOM     16  C   UNL     1     112.568 124.817 137.269  0.00  0.00    +0.000 A 
ATOM     17  C   UNL     1     113.994 124.807 137.192  0.00  0.00    +0.000 A 
ATOM     18  C   UNL     1     113.266 124.475 136.993  0.00  0.00    +0.000 A 
BRANCH  14  19
ATOM     19  O   UNL     1     111.900 125.834 138.019  0.00  0.00    +0.000 OA
ATOM     20  C   UNL     1     111.291 125.356 138.304  0.00  0.00    +0.000 C 
ENDBRANCH  14  19
BRANCH  16  21
ATOM     21  O   UNL     1     111.839 124.485 137.071  0.00  0.00    +0.000 OA
ATOM     22  C   UNL     1     111.656 124.334 136.281  0.00  0.00    +0.000 C 
ENDBRANCH  16  21
ENDBRANCH   3  13
TORSDOF 3
ENDMDL
