MODEL 1
REMARK VINA RESULT:     -10.0      0.000      0.000
REMARK  Name = 3083261
REMARK  13 active torsions:
REMARK  status: ('A' for Active; 'I' for Inactive)
REMARK    1  A    between atoms: O_1  and  C_25
REMARK    2  A    between atoms: O_1  and  C_28
REMARK    3  A    between atoms: O_4  and  C_32
REMARK    4  A    between atoms: O_4  and  C_40
REMARK    5  A    between atoms: O_6  and  C_29
REMARK    6  A    between atoms: O_6  and  C_48
REMARK    7  A    between atoms: O_11  and  C_38
REMARK    8  A    between atoms: O_11  and  C_49
REMARK    9  A    between atoms: C_31  and  C_43
REMARK   10  A    between atoms: C_36  and  C_45
REMARK   11  A    between atoms: C_50  and  C_57
REMARK   12  A    between atoms: C_55  and  C_58
REMARK   13  A    between atoms: C_57  and  C_59
REMARK                            x       y       z     vdW  Elec       q    Type
REMARK                         _______ _______ _______ _____ _____    ______ ____
ROOT
ATOM      1  O   UNL     1     108.263 126.537 140.847  0.00  0.00    +0.000 OA
ATOM      2  O   UNL     1     107.939 127.714 142.999  0.00  0.00    +0.000 OA
ATOM      3  C   UNL     1     109.719 128.214 140.602  0.00  0.00    +0.000 A 
ATOM      4  C   UNL     1     107.612 126.642 142.114  0.00  0.00    +0.000 A 
ATOM      5  C   UNL     1     109.262 127.506 140.433  0.00  0.00    +0.000 A 
ATOM      6  C   UNL     1     108.699 127.218 141.014  0.00  0.00    +0.000 A 
ATOM      7  C   UNL     1     108.591 127.610 141.732  0.00  0.00    +0.000 A 
ATOM      8  C   UNL     1     109.607 128.623 141.349  0.00  0.00    +0.000 A 
ATOM      9  C   UNL     1     108.047 127.322 142.282  0.00  0.00    +0.000 A 
ATOM     10  C   UNL     1     107.719 126.249 141.396  0.00  0.00    +0.000 A 
ATOM     11  C   UNL     1     109.038 128.319 141.919  0.00  0.00    +0.000 A 
ENDROOT
BRANCH  10  13
ATOM     12  O   UNL     1     105.977 123.528 140.725  0.00  0.00    +0.000 OA
ATOM     13  C   UNL     1     107.284 125.570 141.229  0.00  0.00    +0.000 A 
ATOM     14  C   UNL     1     107.536 124.838 141.514  0.00  0.00    +0.000 A 
ATOM     15  C   UNL     1     106.596 125.621 140.776  0.00  0.00    +0.000 A 
ATOM     16  C   UNL     1     107.100 124.157 141.346  0.00  0.00    +0.000 A 
ATOM     17  C   UNL     1     106.160 124.941 140.608  0.00  0.00    +0.000 A 
ATOM     18  C   UNL     1     106.413 124.209 140.893  0.00  0.00    +0.000 A 
ENDBRANCH  10  13
BRANCH   3  19
ATOM     19  O   UNL     1     110.262 128.500 140.051  0.00  0.00    +0.000 OA
BRANCH  19  26
ATOM     20  O   UNL     1     109.602 129.727 139.729  0.00  0.00    +0.000 OA
ATOM     21  O   UNL     1     111.786 130.890 139.690  0.00  0.00    +0.000 OA
ATOM     22  O   UNL     1     110.398 131.728 139.382  0.00  0.00    +0.000 OA
ATOM     23  C   UNL     1     111.023 129.695 139.870  0.00  0.00    +0.000 C 
ATOM     24  C   UNL     1     111.058 130.502 139.703  0.00  0.00    +0.000 C 
ATOM     25  C   UNL     1     110.364 130.922 139.549  0.00  0.00    +0.000 C 
ATOM     26  C   UNL     1     110.295 129.307 139.883  0.00  0.00    +0.000 C 
ATOM     27  C   UNL     1     109.636 130.534 139.562  0.00  0.00    +0.000 C 
BRANCH  27  29
ATOM     28  O   UNL     1     108.367 130.630 138.911  0.00  0.00    +0.000 OA
ATOM     29  C   UNL     1     108.942 130.952 139.408  0.00  0.00    +0.000 C 
ENDBRANCH  27  29
BRANCH  23  30
ATOM     30  O   UNL     1     111.717 129.276 140.025  0.00  0.00    +0.000 OA
BRANCH  30  35
ATOM     31  O   UNL     1     111.942 129.126 138.621  0.00  0.00    +0.000 OA
ATOM     32  O   UNL     1     113.031 128.329 140.336  0.00  0.00    +0.000 OA
ATOM     33  O   UNL     1     113.913 127.705 139.089  0.00  0.00    +0.000 OA
ATOM     34  O   UNL     1     113.480 128.029 137.530  0.00  0.00    +0.000 OA
ATOM     35  C   UNL     1     112.158 128.964 139.401  0.00  0.00    +0.000 C 
ATOM     36  C   UNL     1     112.815 128.490 139.557  0.00  0.00    +0.000 C 
ATOM     37  C   UNL     1     113.256 128.179 138.933  0.00  0.00    +0.000 C 
ATOM     38  C   UNL     1     113.039 128.341 138.153  0.00  0.00    +0.000 C 
ATOM     39  C   UNL     1     112.382 128.815 137.997  0.00  0.00    +0.000 C 
BRANCH  39  41
ATOM     40  O   UNL     1     111.478 128.647 136.904  0.00  0.00    +0.000 OA
ATOM     41  C   UNL     1     112.166 128.977 137.218  0.00  0.00    +0.000 C 
ENDBRANCH  39  41
ENDBRANCH  30  35
ENDBRANCH  23  30
ENDBRANCH  19  26
ENDBRANCH   3  19
BRANCH   4  42
ATOM     42  O   UNL     1     107.068 126.355 142.664  0.00  0.00    +0.000 OA
BRANCH  42  49
ATOM     43  O   UNL     1     106.046 127.314 142.392  0.00  0.00    +0.000 OA
ATOM     44  O   UNL     1     105.424 127.330 144.788  0.00  0.00    +0.000 OA
ATOM     45  O   UNL     1     104.608 128.285 143.718  0.00  0.00    +0.000 OA
ATOM     46  C   UNL     1     106.246 126.843 143.726  0.00  0.00    +0.000 C 
ATOM     47  C   UNL     1     105.631 127.325 143.989  0.00  0.00    +0.000 C 
ATOM     48  C   UNL     1     105.223 127.803 143.455  0.00  0.00    +0.000 C 
ATOM     49  C   UNL     1     106.453 126.837 142.928  0.00  0.00    +0.000 C 
ATOM     50  C   UNL     1     105.430 127.797 142.656  0.00  0.00    +0.000 C 
ATOM     51  C   UNL     1     105.023 128.274 142.121  0.00  0.00    +0.000 C 
BRANCH  46  52
ATOM     52  O   UNL     1     106.654 126.366 144.261  0.00  0.00    +0.000 OA
BRANCH  52  58
ATOM     53  O   UNL     1     105.710 125.296 144.163  0.00  0.00    +0.000 OA
ATOM     54  O   UNL     1     107.058 125.869 145.782  0.00  0.00    +0.000 OA
ATOM     55  O   UNL     1     106.316 124.552 146.444  0.00  0.00    +0.000 OA
ATOM     56  O   UNL     1     105.171 123.731 145.585  0.00  0.00    +0.000 OA
ATOM     57  O   UNL     1     104.767 124.228 144.065  0.00  0.00    +0.000 OA
ATOM     58  C   UNL     1     106.283 125.707 144.592  0.00  0.00    +0.000 C 
ATOM     59  C   UNL     1     106.485 125.458 145.353  0.00  0.00    +0.000 C 
ATOM     60  C   UNL     1     106.114 124.800 145.684  0.00  0.00    +0.000 C 
ATOM     61  C   UNL     1     105.542 124.390 145.254  0.00  0.00    +0.000 C 
ATOM     62  C   UNL     1     105.340 124.638 144.494  0.00  0.00    +0.000 C 
ENDBRANCH  52  58
ENDBRANCH  46  52
ENDBRANCH  42  49
ENDBRANCH   4  42
BRANCH   5  63
ATOM     63  C   UNL     1     109.363 127.108 139.719  0.00  0.00    +0.000 C 
BRANCH  63  64
ATOM     64  C   UNL     1     109.935 126.516 139.654  0.00  0.00    +0.000 C 
ATOM     65  C   UNL     1     110.028 126.109 138.942  0.00  0.00    +0.000 C 
ATOM     66  C   UNL     1     110.600 125.518 138.878  0.00  0.00    +0.000 C 
ATOM     67  C   UNL     1     109.550 126.293 138.296  0.00  0.00    +0.000 C 
ENDBRANCH  63  64
ENDBRANCH   5  63
TORSDOF 13
ENDMDL
MODEL 2
REMARK VINA RESULT:      -9.8      5.139      9.005
REMARK  Name = 3083261
REMARK  13 active torsions:
REMARK  status: ('A' for Active; 'I' for Inactive)
REMARK    1  A    between atoms: O_1  and  C_25
REMARK    2  A    between atoms: O_1  and  C_28
REMARK    3  A    between atoms: O_4  and  C_32
REMARK    4  A    between atoms: O_4  and  C_40
REMARK    5  A    between atoms: O_6  and  C_29
REMARK    6  A    between atoms: O_6  and  C_48
REMARK    7  A    between atoms: O_11  and  C_38
REMARK    8  A    between atoms: O_11  and  C_49
REMARK    9  A    between atoms: C_31  and  C_43
REMARK   10  A    between atoms: C_36  and  C_45
REMARK   11  A    between atoms: C_50  and  C_57
REMARK   12  A    between atoms: C_55  and  C_58
REMARK   13  A    between atoms: C_57  and  C_59
REMARK                            x       y       z     vdW  Elec       q    Type
REMARK                         _______ _______ _______ _____ _____    ______ ____
ROOT
ATOM      1  O   UNL     1     105.632 130.372 147.158  0.00  0.00    +0.000 OA
ATOM      2  O   UNL     1     107.556 131.333 145.935  0.00  0.00    +0.000 OA
ATOM      3  C   UNL     1     106.280 128.590 145.976  0.00  0.00    +0.000 A 
ATOM      4  C   UNL     1     106.484 131.481 146.867  0.00  0.00    +0.000 A 
ATOM      5  C   UNL     1     105.835 129.082 146.521  0.00  0.00    +0.000 A 
ATOM      6  C   UNL     1     106.064 129.903 146.633  0.00  0.00    +0.000 A 
ATOM      7  C   UNL     1     106.705 130.224 146.226  0.00  0.00    +0.000 A 
ATOM      8  C   UNL     1     106.948 128.923 145.551  0.00  0.00    +0.000 A 
ATOM      9  C   UNL     1     106.915 131.013 146.343  0.00  0.00    +0.000 A 
ATOM     10  C   UNL     1     105.842 131.161 147.275  0.00  0.00    +0.000 A 
ATOM     11  C   UNL     1     107.163 129.746 145.677  0.00  0.00    +0.000 A 
ENDROOT
BRANCH  10  13
ATOM     12  O   UNL     1     104.116 133.034 149.372  0.00  0.00    +0.000 OA
ATOM     13  C   UNL     1     105.411 131.629 147.799  0.00  0.00    +0.000 A 
ATOM     14  C   UNL     1     104.714 131.992 147.549  0.00  0.00    +0.000 A 
ATOM     15  C   UNL     1     105.677 131.734 148.573  0.00  0.00    +0.000 A 
ATOM     16  C   UNL     1     104.282 132.461 148.074  0.00  0.00    +0.000 A 
ATOM     17  C   UNL     1     105.245 132.202 149.097  0.00  0.00    +0.000 A 
ATOM     18  C   UNL     1     104.548 132.565 148.848  0.00  0.00    +0.000 A 
ENDBRANCH  10  13
BRANCH   3  19
ATOM     19  O   UNL     1     106.068 127.801 145.861  0.00  0.00    +0.000 OA
BRANCH  19  26
ATOM     20  O   UNL     1     105.663 127.886 144.493  0.00  0.00    +0.000 OA
ATOM     21  O   UNL     1     106.781 125.726 144.029  0.00  0.00    +0.000 OA
ATOM     22  O   UNL     1     106.004 126.532 142.816  0.00  0.00    +0.000 OA
ATOM     23  C   UNL     1     106.424 126.764 144.945  0.00  0.00    +0.000 C 
ATOM     24  C   UNL     1     106.408 126.446 144.183  0.00  0.00    +0.000 C 
ATOM     25  C   UNL     1     106.020 126.849 143.577  0.00  0.00    +0.000 C 
ATOM     26  C   UNL     1     106.052 127.484 145.099  0.00  0.00    +0.000 C 
ATOM     27  C   UNL     1     105.647 127.568 143.731  0.00  0.00    +0.000 C 
BRANCH  27  29
ATOM     28  O   UNL     1     104.522 128.317 143.264  0.00  0.00    +0.000 OA
ATOM     29  C   UNL     1     105.259 127.971 143.125  0.00  0.00    +0.000 C 
ENDBRANCH  27  29
BRANCH  23  30
ATOM     30  O   UNL     1     106.813 126.362 145.551  0.00  0.00    +0.000 OA
BRANCH  30  35
ATOM     31  O   UNL     1     105.623 125.616 145.819  0.00  0.00    +0.000 OA
ATOM     32  O   UNL     1     107.594 125.546 146.754  0.00  0.00    +0.000 OA
ATOM     33  O   UNL     1     106.795 124.393 147.624  0.00  0.00    +0.000 OA
ATOM     34  O   UNL     1     105.214 124.056 147.289  0.00  0.00    +0.000 OA
ATOM     35  C   UNL     1     106.413 125.785 145.986  0.00  0.00    +0.000 C 
ATOM     36  C   UNL     1     106.804 125.377 146.587  0.00  0.00    +0.000 C 
ATOM     37  C   UNL     1     106.404 124.801 147.022  0.00  0.00    +0.000 C 
ATOM     38  C   UNL     1     105.614 124.633 146.854  0.00  0.00    +0.000 C 
ATOM     39  C   UNL     1     105.223 125.040 146.253  0.00  0.00    +0.000 C 
BRANCH  39  41
ATOM     40  O   UNL     1     104.239 124.418 145.425  0.00  0.00    +0.000 OA
ATOM     41  C   UNL     1     104.433 124.872 146.086  0.00  0.00    +0.000 C 
ENDBRANCH  39  41
ENDBRANCH  30  35
ENDBRANCH  23  30
ENDBRANCH  19  26
ENDBRANCH   3  19
BRANCH   4  42
ATOM     42  O   UNL     1     106.694 132.270 146.983  0.00  0.00    +0.000 OA
BRANCH  42  49
ATOM     43  O   UNL     1     106.188 132.746 145.736  0.00  0.00    +0.000 OA
ATOM     44  O   UNL     1     108.031 134.393 145.615  0.00  0.00    +0.000 OA
ATOM     45  O   UNL     1     106.909 134.319 144.407  0.00  0.00    +0.000 OA
ATOM     46  C   UNL     1     107.363 133.332 146.299  0.00  0.00    +0.000 C 
ATOM     47  C   UNL     1     107.416 133.844 145.655  0.00  0.00    +0.000 C 
ATOM     48  C   UNL     1     106.856 133.808 145.051  0.00  0.00    +0.000 C 
ATOM     49  C   UNL     1     106.748 132.783 146.339  0.00  0.00    +0.000 C 
ATOM     50  C   UNL     1     106.241 133.258 145.091  0.00  0.00    +0.000 C 
ATOM     51  C   UNL     1     105.680 133.221 144.487  0.00  0.00    +0.000 C 
BRANCH  46  52
ATOM     52  O   UNL     1     107.923 133.368 146.903  0.00  0.00    +0.000 OA
BRANCH  52  58
ATOM     53  O   UNL     1     107.211 134.452 147.503  0.00  0.00    +0.000 OA
ATOM     54  O   UNL     1     109.119 133.532 148.028  0.00  0.00    +0.000 OA
ATOM     55  O   UNL     1     109.004 134.698 149.190  0.00  0.00    +0.000 OA
ATOM     56  O   UNL     1     107.693 135.699 149.227  0.00  0.00    +0.000 OA
ATOM     57  O   UNL     1     106.498 135.535 148.103  0.00  0.00    +0.000 OA
ATOM     58  C   UNL     1     107.866 133.951 147.484  0.00  0.00    +0.000 C 
ATOM     59  C   UNL     1     108.464 134.033 148.047  0.00  0.00    +0.000 C 
ATOM     60  C   UNL     1     108.406 134.616 148.628  0.00  0.00    +0.000 C 
ATOM     61  C   UNL     1     107.750 135.117 148.646  0.00  0.00    +0.000 C 
ATOM     62  C   UNL     1     107.153 135.035 148.084  0.00  0.00    +0.000 C 
ENDBRANCH  52  58
ENDBRANCH  46  52
ENDBRANCH  42  49
ENDBRANCH   4  42
BRANCH   5  63
ATOM     63  C   UNL     1     105.192 128.770 146.933  0.00  0.00    +0.000 C 
BRANCH  63  64
ATOM     64  C   UNL     1     105.306 128.422 147.672  0.00  0.00    +0.000 C 
ATOM     65  C   UNL     1     104.659 128.136 148.097  0.00  0.00    +0.000 C 
ATOM     66  C   UNL     1     104.773 127.788 148.836  0.00  0.00    +0.000 C 
ATOM     67  C   UNL     1     103.899 128.198 147.783  0.00  0.00    +0.000 C 
ENDBRANCH  63  64
ENDBRANCH   5  63
TORSDOF 13
ENDMDL
MODEL 3
REMARK VINA RESULT:      -9.8      2.344      7.445
REMARK  Name = 3083261
REMARK  13 active torsions:
REMARK  status: ('A' for Active; 'I' for Inactive)
REMARK    1  A    between atoms: O_1  and  C_25
REMARK    2  A    between atoms: O_1  and  C_28
REMARK    3  A    between atoms: O_4  and  C_32
REMARK    4  A    between atoms: O_4  and  C_40
REMARK    5  A    between atoms: O_6  and  C_29
REMARK    6  A    between atoms: O_6  and  C_48
REMARK    7  A    between atoms: O_11  and  C_38
REMARK    8  A    between atoms: O_11  and  C_49
REMARK    9  A    between atoms: C_31  and  C_43
REMARK   10  A    between atoms: C_36  and  C_45
REMARK   11  A    between atoms: C_50  and  C_57
REMARK   12  A    between atoms: C_55  and  C_58
REMARK   13  A    between atoms: C_57  and  C_59
REMARK                            x       y       z     vdW  Elec       q    Type
REMARK                         _______ _______ _______ _____ _____    ______ ____
ROOT
ATOM      1  O   UNL     1     111.446 127.935 141.201  0.00  0.00    +0.000 OA
ATOM      2  O   UNL     1     110.285 127.520 139.055  0.00  0.00    +0.000 OA
ATOM      3  C   UNL     1     109.367 128.542 141.752  0.00  0.00    +0.000 A 
ATOM      4  C   UNL     1     111.480 127.509 139.838  0.00  0.00    +0.000 A 
ATOM      5  C   UNL     1     110.209 128.384 141.816  0.00  0.00    +0.000 A 
ATOM      6  C   UNL     1     110.637 128.085 141.134  0.00  0.00    +0.000 A 
ATOM      7  C   UNL     1     110.250 127.946 140.418  0.00  0.00    +0.000 A 
ATOM      8  C   UNL     1     108.964 128.398 141.007  0.00  0.00    +0.000 A 
ATOM      9  C   UNL     1     110.672 127.658 139.770  0.00  0.00    +0.000 A 
ATOM     10  C   UNL     1     111.868 127.648 140.553  0.00  0.00    +0.000 A 
ATOM     11  C   UNL     1     109.408 128.098 140.335  0.00  0.00    +0.000 A 
ENDROOT
BRANCH  10  13
ATOM     12  O   UNL     1     115.102 127.050 140.823  0.00  0.00    +0.000 OA
ATOM     13  C   UNL     1     112.676 127.498 140.620  0.00  0.00    +0.000 A 
ATOM     14  C   UNL     1     112.941 126.738 140.798  0.00  0.00    +0.000 A 
ATOM     15  C   UNL     1     113.219 128.109 140.511  0.00  0.00    +0.000 A 
ATOM     16  C   UNL     1     113.750 126.588 140.865  0.00  0.00    +0.000 A 
ATOM     17  C   UNL     1     114.027 127.960 140.578  0.00  0.00    +0.000 A 
ATOM     18  C   UNL     1     114.293 127.200 140.756  0.00  0.00    +0.000 A 
ENDBRANCH  10  13
BRANCH   3  19
ATOM     19  O   UNL     1     108.948 128.829 142.402  0.00  0.00    +0.000 OA
BRANCH  19  26
ATOM     20  O   UNL     1     108.001 127.761 142.491  0.00  0.00    +0.000 OA
ATOM     21  O   UNL     1     106.232 129.381 143.102  0.00  0.00    +0.000 OA
ATOM     22  O   UNL     1     105.877 127.774 142.988  0.00  0.00    +0.000 OA
ATOM     23  C   UNL     1     107.590 129.105 142.752  0.00  0.00    +0.000 C 
ATOM     24  C   UNL     1     106.822 128.841 142.898  0.00  0.00    +0.000 C 
ATOM     25  C   UNL     1     106.644 128.038 142.841  0.00  0.00    +0.000 C 
ATOM     26  C   UNL     1     108.180 128.565 142.548  0.00  0.00    +0.000 C 
ATOM     27  C   UNL     1     107.234 127.498 142.638  0.00  0.00    +0.000 C 
BRANCH  27  29
ATOM     28  O   UNL     1     107.483 126.144 143.024  0.00  0.00    +0.000 OA
ATOM     29  C   UNL     1     107.056 126.694 142.581  0.00  0.00    +0.000 C 
ENDBRANCH  27  29
BRANCH  23  30
ATOM     30  O   UNL     1     107.768 129.908 142.808  0.00  0.00    +0.000 OA
BRANCH  30  35
ATOM     31  O   UNL     1     107.949 129.772 144.219  0.00  0.00    +0.000 OA
ATOM     32  O   UNL     1     107.973 131.540 142.940  0.00  0.00    +0.000 OA
ATOM     33  O   UNL     1     108.257 132.220 144.416  0.00  0.00    +0.000 OA
ATOM     34  O   UNL     1     108.335 131.267 145.761  0.00  0.00    +0.000 OA
ATOM     35  C   UNL     1     107.910 130.248 143.547  0.00  0.00    +0.000 C 
ATOM     36  C   UNL     1     108.012 131.064 143.612  0.00  0.00    +0.000 C 
ATOM     37  C   UNL     1     108.154 131.404 144.350  0.00  0.00    +0.000 C 
ATOM     38  C   UNL     1     108.193 130.927 145.023  0.00  0.00    +0.000 C 
ATOM     39  C   UNL     1     108.091 130.111 144.957  0.00  0.00    +0.000 C 
BRANCH  39  41
ATOM     40  O   UNL     1     108.707 129.048 145.687  0.00  0.00    +0.000 OA
ATOM     41  C   UNL     1     108.130 129.635 145.630  0.00  0.00    +0.000 C 
ENDBRANCH  39  41
ENDBRANCH  30  35
ENDBRANCH  23  30
ENDBRANCH  19  26
ENDBRANCH   3  19
BRANCH   4  42
ATOM     42  O   UNL     1     111.902 127.221 139.190  0.00  0.00    +0.000 OA
BRANCH  42  49
ATOM     43  O   UNL     1     111.944 128.453 138.468  0.00  0.00    +0.000 OA
ATOM     44  O   UNL     1     111.732 127.211 136.337  0.00  0.00    +0.000 OA
ATOM     45  O   UNL     1     111.845 128.857 136.325  0.00  0.00    +0.000 OA
ATOM     46  C   UNL     1     111.817 127.216 137.763  0.00  0.00    +0.000 C 
ATOM     47  C   UNL     1     111.803 127.625 137.047  0.00  0.00    +0.000 C 
ATOM     48  C   UNL     1     111.859 128.448 137.040  0.00  0.00    +0.000 C 
ATOM     49  C   UNL     1     111.887 127.630 138.473  0.00  0.00    +0.000 C 
ATOM     50  C   UNL     1     111.929 128.862 137.751  0.00  0.00    +0.000 C 
ATOM     51  C   UNL     1     111.986 129.685 137.745  0.00  0.00    +0.000 C 
BRANCH  46  52
ATOM     52  O   UNL     1     111.761 126.393 137.769  0.00  0.00    +0.000 OA
BRANCH  52  58
ATOM     53  O   UNL     1     113.161 126.286 137.504  0.00  0.00    +0.000 OA
ATOM     54  O   UNL     1     111.592 124.769 137.536  0.00  0.00    +0.000 OA
ATOM     55  O   UNL     1     112.908 123.849 137.154  0.00  0.00    +0.000 OA
ATOM     56  O   UNL     1     114.392 124.554 137.006  0.00  0.00    +0.000 OA
ATOM     57  O   UNL     1     114.560 126.178 137.239  0.00  0.00    +0.000 OA
ATOM     58  C   UNL     1     112.418 125.934 137.578  0.00  0.00    +0.000 C 
ATOM     59  C   UNL     1     112.334 125.121 137.462  0.00  0.00    +0.000 C 
ATOM     60  C   UNL     1     112.992 124.661 137.271  0.00  0.00    +0.000 C 
ATOM     61  C   UNL     1     113.734 125.014 137.197  0.00  0.00    +0.000 C 
ATOM     62  C   UNL     1     113.819 125.826 137.313  0.00  0.00    +0.000 C 
ENDBRANCH  52  58
ENDBRANCH  46  52
ENDBRANCH  42  49
ENDBRANCH   4  42
BRANCH   5  63
ATOM     63  C   UNL     1     110.604 128.520 142.527  0.00  0.00    +0.000 C 
BRANCH  63  64
ATOM     64  C   UNL     1     110.941 129.258 142.677  0.00  0.00    +0.000 C 
ATOM     65  C   UNL     1     111.375 129.380 143.369  0.00  0.00    +0.000 C 
ATOM     66  C   UNL     1     111.712 130.118 143.519  0.00  0.00    +0.000 C 
ATOM     67  C   UNL     1     111.471 128.765 143.910  0.00  0.00    +0.000 C 
ENDBRANCH  63  64
ENDBRANCH   5  63
TORSDOF 13
ENDMDL
MODEL 4
REMARK VINA RESULT:      -9.7      1.728      7.806
REMARK  Name = 3083261
REMARK  13 active torsions:
REMARK  status: ('A' for Active; 'I' for Inactive)
REMARK    1  A    between atoms: O_1  and  C_25
REMARK    2  A    between atoms: O_1  and  C_28
REMARK    3  A    between atoms: O_4  and  C_32
REMARK    4  A    between atoms: O_4  and  C_40
REMARK    5  A    between atoms: O_6  and  C_29
REMARK    6  A    between atoms: O_6  and  C_48
REMARK    7  A    between atoms: O_11  and  C_38
REMARK    8  A    between atoms: O_11  and  C_49
REMARK    9  A    between atoms: C_31  and  C_43
REMARK   10  A    between atoms: C_36  and  C_45
REMARK   11  A    between atoms: C_50  and  C_57
REMARK   12  A    between atoms: C_55  and  C_58
REMARK   13  A    between atoms: C_57  and  C_59
REMARK                            x       y       z     vdW  Elec       q    Type
REMARK                         _______ _______ _______ _____ _____    ______ ____
ROOT
ATOM      1  O   UNL     1     110.746 127.692 139.763  0.00  0.00    +0.000 OA
ATOM      2  O   UNL     1     111.183 130.076 139.266  0.00  0.00    +0.000 OA
ATOM      3  C   UNL     1     109.313 128.660 141.178  0.00  0.00    +0.000 A 
ATOM      4  C   UNL     1     111.453 128.694 139.029  0.00  0.00    +0.000 A 
ATOM      5  C   UNL     1     109.749 128.052 140.755  0.00  0.00    +0.000 A 
ATOM      6  C   UNL     1     110.331 128.281 140.166  0.00  0.00    +0.000 A 
ATOM      7  C   UNL     1     110.477 129.075 139.999  0.00  0.00    +0.000 A 
ATOM      8  C   UNL     1     109.465 129.488 141.005  0.00  0.00    +0.000 A 
ATOM      9  C   UNL     1     111.038 129.282 139.431  0.00  0.00    +0.000 A 
ATOM     10  C   UNL     1     111.307 127.899 139.194  0.00  0.00    +0.000 A 
ATOM     11  C   UNL     1     110.051 129.698 140.412  0.00  0.00    +0.000 A 
ENDROOT
BRANCH  10  13
ATOM     12  O   UNL     1     112.968 125.545 137.584  0.00  0.00    +0.000 OA
ATOM     13  C   UNL     1     111.722 127.311 138.792  0.00  0.00    +0.000 A 
ATOM     14  C   UNL     1     111.459 127.051 138.055  0.00  0.00    +0.000 A 
ATOM     15  C   UNL     1     112.401 126.982 139.126  0.00  0.00    +0.000 A 
ATOM     16  C   UNL     1     111.874 126.462 137.652  0.00  0.00    +0.000 A 
ATOM     17  C   UNL     1     112.816 126.394 138.724  0.00  0.00    +0.000 A 
ATOM     18  C   UNL     1     112.553 126.134 137.987  0.00  0.00    +0.000 A 
ENDBRANCH  10  13
BRANCH   3  19
ATOM     19  O   UNL     1     108.753 128.451 141.745  0.00  0.00    +0.000 OA
BRANCH  19  26
ATOM     20  O   UNL     1     109.385 128.970 142.918  0.00  0.00    +0.000 OA
ATOM     21  O   UNL     1     107.222 129.915 143.664  0.00  0.00    +0.000 OA
ATOM     22  O   UNL     1     108.574 130.118 144.587  0.00  0.00    +0.000 OA
ATOM     23  C   UNL     1     107.988 129.183 142.705  0.00  0.00    +0.000 C 
ATOM     24  C   UNL     1     107.943 129.600 143.416  0.00  0.00    +0.000 C 
ATOM     25  C   UNL     1     108.619 129.702 143.877  0.00  0.00    +0.000 C 
ATOM     26  C   UNL     1     108.709 128.868 142.456  0.00  0.00    +0.000 C 
ATOM     27  C   UNL     1     109.340 129.387 143.629  0.00  0.00    +0.000 C 
BRANCH  27  29
ATOM     28  O   UNL     1     110.547 128.865 144.188  0.00  0.00    +0.000 OA
ATOM     29  C   UNL     1     110.016 129.489 144.090  0.00  0.00    +0.000 C 
ENDBRANCH  27  29
BRANCH  23  30
ATOM     30  O   UNL     1     107.312 129.081 142.244  0.00  0.00    +0.000 OA
BRANCH  30  35
ATOM     31  O   UNL     1     106.951 127.938 143.023  0.00  0.00    +0.000 OA
ATOM     32  O   UNL     1     105.927 128.916 141.362  0.00  0.00    +0.000 OA
ATOM     33  O   UNL     1     104.873 127.692 141.701  0.00  0.00    +0.000 OA
ATOM     34  O   UNL     1     105.206 126.632 142.921  0.00  0.00    +0.000 OA
ATOM     35  C   UNL     1     106.785 128.468 142.413  0.00  0.00    +0.000 C 
ATOM     36  C   UNL     1     106.092 128.386 141.972  0.00  0.00    +0.000 C 
ATOM     37  C   UNL     1     105.566 127.774 142.141  0.00  0.00    +0.000 C 
ATOM     38  C   UNL     1     105.733 127.244 142.752  0.00  0.00    +0.000 C 
ATOM     39  C   UNL     1     106.425 127.326 143.193  0.00  0.00    +0.000 C 
BRANCH  39  41
ATOM     40  O   UNL     1     107.090 126.154 143.667  0.00  0.00    +0.000 OA
ATOM     41  C   UNL     1     106.591 126.796 143.803  0.00  0.00    +0.000 C 
ENDBRANCH  39  41
ENDBRANCH  30  35
ENDBRANCH  23  30
ENDBRANCH  19  26
ENDBRANCH   3  19
BRANCH   4  42
ATOM     42  O   UNL     1     112.014 128.901 138.461  0.00  0.00    +0.000 OA
BRANCH  42  49
ATOM     43  O   UNL     1     113.018 129.329 139.381  0.00  0.00    +0.000 OA
ATOM     44  O   UNL     1     113.712 131.102 137.798  0.00  0.00    +0.000 OA
ATOM     45  O   UNL     1     114.486 130.940 139.246  0.00  0.00    +0.000 OA
ATOM     46  C   UNL     1     112.863 130.002 138.129  0.00  0.00    +0.000 C 
ATOM     47  C   UNL     1     113.481 130.511 138.326  0.00  0.00    +0.000 C 
ATOM     48  C   UNL     1     113.868 130.431 139.050  0.00  0.00    +0.000 C 
ATOM     49  C   UNL     1     112.632 129.411 138.657  0.00  0.00    +0.000 C 
ATOM     50  C   UNL     1     113.637 129.840 139.577  0.00  0.00    +0.000 C 
ATOM     51  C   UNL     1     114.023 129.758 140.302  0.00  0.00    +0.000 C 
BRANCH  46  52
ATOM     52  O   UNL     1     112.476 130.082 137.406  0.00  0.00    +0.000 OA
BRANCH  52  58
ATOM     53  O   UNL     1     113.531 129.366 136.760  0.00  0.00    +0.000 OA
ATOM     54  O   UNL     1     111.662 130.172 135.973  0.00  0.00    +0.000 OA
ATOM     55  O   UNL     1     112.311 129.502 134.612  0.00  0.00    +0.000 OA
ATOM     56  O   UNL     1     113.773 128.741 134.684  0.00  0.00    +0.000 OA
ATOM     57  O   UNL     1     114.586 128.651 136.116  0.00  0.00    +0.000 OA
ATOM     58  C   UNL     1     112.800 129.747 136.725  0.00  0.00    +0.000 C 
ATOM     59  C   UNL     1     112.393 129.792 136.008  0.00  0.00    +0.000 C 
ATOM     60  C   UNL     1     112.717 129.456 135.328  0.00  0.00    +0.000 C 
ATOM     61  C   UNL     1     113.449 129.076 135.364  0.00  0.00    +0.000 C 
ATOM     62  C   UNL     1     113.856 129.031 136.080  0.00  0.00    +0.000 C 
ENDBRANCH  52  58
ENDBRANCH  46  52
ENDBRANCH  42  49
ENDBRANCH   4  42
BRANCH   5  63
ATOM     63  C   UNL     1     109.610 127.255 140.914  0.00  0.00    +0.000 C 
BRANCH  63  64
ATOM     64  C   UNL     1     109.004 126.856 140.522  0.00  0.00    +0.000 C 
ATOM     65  C   UNL     1     108.894 126.047 140.647  0.00  0.00    +0.000 C 
ATOM     66  C   UNL     1     108.288 125.649 140.254  0.00  0.00    +0.000 C 
ATOM     67  C   UNL     1     109.389 125.639 141.164  0.00  0.00    +0.000 C 
ENDBRANCH  63  64
ENDBRANCH   5  63
TORSDOF 13
ENDMDL
MODEL 5
REMARK VINA RESULT:      -9.7      4.002      9.019
REMARK  Name = 3083261
REMARK  13 active torsions:
REMARK  status: ('A' for Active; 'I' for Inactive)
REMARK    1  A    between atoms: O_1  and  C_25
REMARK    2  A    between atoms: O_1  and  C_28
REMARK    3  A    between atoms: O_4  and  C_32
REMARK    4  A    between atoms: O_4  and  C_40
REMARK    5  A    between atoms: O_6  and  C_29
REMARK    6  A    between atoms: O_6  and  C_48
REMARK    7  A    between atoms: O_11  and  C_38
REMARK    8  A    between atoms: O_11  and  C_49
REMARK    9  A    between atoms: C_31  and  C_43
REMARK   10  A    between atoms: C_36  and  C_45
REMARK   11  A    between atoms: C_50  and  C_57
REMARK   12  A    between atoms: C_55  and  C_58
REMARK   13  A    between atoms: C_57  and  C_59
REMARK                            x       y       z     vdW  Elec       q    Type
REMARK                         _______ _______ _______ _____ _____    ______ ____
ROOT
ATOM      1  O   UNL     1     107.096 130.121 145.923  0.00  0.00    +0.000 OA
ATOM      2  O   UNL     1     109.382 129.414 145.292  0.00  0.00    +0.000 OA
ATOM      3  C   UNL     1     106.900 127.907 146.144  0.00  0.00    +0.000 A 
ATOM      4  C   UNL     1     108.421 130.450 145.503  0.00  0.00    +0.000 A 
ATOM      5  C   UNL     1     106.699 128.742 146.143  0.00  0.00    +0.000 A 
ATOM      6  C   UNL     1     107.295 129.320 145.923  0.00  0.00    +0.000 A 
ATOM      7  C   UNL     1     108.057 129.085 145.712  0.00  0.00    +0.000 A 
ATOM      8  C   UNL     1     107.693 127.661 145.925  0.00  0.00    +0.000 A 
ATOM      9  C   UNL     1     108.620 129.650 145.502  0.00  0.00    +0.000 A 
ATOM     10  C   UNL     1     107.659 130.687 145.714  0.00  0.00    +0.000 A 
ATOM     11  C   UNL     1     108.276 128.254 145.707  0.00  0.00    +0.000 A 
ENDROOT
BRANCH  10  13
ATOM     12  O   UNL     1     106.863 133.889 145.716  0.00  0.00    +0.000 OA
ATOM     13  C   UNL     1     107.460 131.487 145.714  0.00  0.00    +0.000 A 
ATOM     14  C   UNL     1     107.069 131.815 145.067  0.00  0.00    +0.000 A 
ATOM     15  C   UNL     1     107.653 131.960 146.362  0.00  0.00    +0.000 A 
ATOM     16  C   UNL     1     106.869 132.616 145.067  0.00  0.00    +0.000 A 
ATOM     17  C   UNL     1     107.454 132.760 146.363  0.00  0.00    +0.000 A 
ATOM     18  C   UNL     1     107.062 133.088 145.715  0.00  0.00    +0.000 A 
ENDBRANCH  10  13
BRANCH   3  19
ATOM     19  O   UNL     1     106.335 127.344 146.355  0.00  0.00    +0.000 OA
BRANCH  19  26
ATOM     20  O   UNL     1     106.109 126.709 145.094  0.00  0.00    +0.000 OA
ATOM     21  O   UNL     1     106.267 124.492 146.183  0.00  0.00    +0.000 OA
ATOM     22  O   UNL     1     105.989 124.597 144.560  0.00  0.00    +0.000 OA
ATOM     23  C   UNL     1     106.301 125.918 146.268  0.00  0.00    +0.000 C 
ATOM     24  C   UNL     1     106.214 125.231 145.820  0.00  0.00    +0.000 C 
ATOM     25  C   UNL     1     106.075 125.283 145.008  0.00  0.00    +0.000 C 
ATOM     26  C   UNL     1     106.248 126.657 145.905  0.00  0.00    +0.000 C 
ATOM     27  C   UNL     1     106.023 126.022 144.645  0.00  0.00    +0.000 C 
BRANCH  27  29
ATOM     28  O   UNL     1     105.300 126.581 143.546  0.00  0.00    +0.000 OA
ATOM     29  C   UNL     1     105.884 126.075 143.834  0.00  0.00    +0.000 C 
ENDBRANCH  27  29
BRANCH  23  30
ATOM     30  O   UNL     1     106.439 125.866 147.080  0.00  0.00    +0.000 OA
BRANCH  30  35
ATOM     31  O   UNL     1     105.039 125.854 147.363  0.00  0.00    +0.000 OA
ATOM     32  O   UNL     1     106.746 125.246 148.578  0.00  0.00    +0.000 OA
ATOM     33  O   UNL     1     105.499 124.924 149.609  0.00  0.00    +0.000 OA
ATOM     34  O   UNL     1     103.945 125.223 149.142  0.00  0.00    +0.000 OA
ATOM     35  C   UNL     1     105.816 125.705 147.596  0.00  0.00    +0.000 C 
ATOM     36  C   UNL     1     105.969 125.395 148.345  0.00  0.00    +0.000 C 
ATOM     37  C   UNL     1     105.346 125.234 148.860  0.00  0.00    +0.000 C 
ATOM     38  C   UNL     1     104.568 125.384 148.626  0.00  0.00    +0.000 C 
ATOM     39  C   UNL     1     104.415 125.694 147.877  0.00  0.00    +0.000 C 
BRANCH  39  41
ATOM     40  O   UNL     1     103.247 125.313 147.147  0.00  0.00    +0.000 OA
ATOM     41  C   UNL     1     103.638 125.843 147.644  0.00  0.00    +0.000 C 
ENDBRANCH  39  41
ENDBRANCH  30  35
ENDBRANCH  23  30
ENDBRANCH  19  26
ENDBRANCH   3  19
BRANCH   4  42
ATOM     42  O   UNL     1     108.985 131.015 145.293  0.00  0.00    +0.000 OA
BRANCH  42  49
ATOM     43  O   UNL     1     108.936 130.788 143.884  0.00  0.00    +0.000 OA
ATOM     44  O   UNL     1     111.376 131.172 143.738  0.00  0.00    +0.000 OA
ATOM     45  O   UNL     1     110.514 130.817 142.376  0.00  0.00    +0.000 OA
ATOM     46  C   UNL     1     110.181 131.094 144.515  0.00  0.00    +0.000 C 
ATOM     47  C   UNL     1     110.563 131.044 143.786  0.00  0.00    +0.000 C 
ATOM     48  C   UNL     1     110.132 130.867 143.105  0.00  0.00    +0.000 C 
ATOM     49  C   UNL     1     109.367 130.966 144.564  0.00  0.00    +0.000 C 
ATOM     50  C   UNL     1     109.319 130.738 143.154  0.00  0.00    +0.000 C 
ATOM     51  C   UNL     1     108.887 130.561 142.474  0.00  0.00    +0.000 C 
BRANCH  46  52
ATOM     52  O   UNL     1     110.612 131.271 145.195  0.00  0.00    +0.000 OA
BRANCH  52  58
ATOM     53  O   UNL     1     110.498 132.672 144.937  0.00  0.00    +0.000 OA
ATOM     54  O   UNL     1     111.813 131.571 146.286  0.00  0.00    +0.000 OA
ATOM     55  O   UNL     1     112.300 133.121 146.572  0.00  0.00    +0.000 OA
ATOM     56  O   UNL     1     111.585 134.372 145.768  0.00  0.00    +0.000 OA
ATOM     57  O   UNL     1     110.384 134.073 144.678  0.00  0.00    +0.000 OA
ATOM     58  C   UNL     1     110.855 132.047 145.339  0.00  0.00    +0.000 C 
ATOM     59  C   UNL     1     111.456 132.197 145.884  0.00  0.00    +0.000 C 
ATOM     60  C   UNL     1     111.700 132.972 146.028  0.00  0.00    +0.000 C 
ATOM     61  C   UNL     1     111.342 133.597 145.625  0.00  0.00    +0.000 C 
ATOM     62  C   UNL     1     110.742 133.448 145.080  0.00  0.00    +0.000 C 
ENDBRANCH  52  58
ENDBRANCH  46  52
ENDBRANCH  42  49
ENDBRANCH   4  42
BRANCH   5  63
ATOM     63  C   UNL     1     105.940 128.987 146.352  0.00  0.00    +0.000 C 
BRANCH  63  64
ATOM     64  C   UNL     1     105.753 129.119 147.145  0.00  0.00    +0.000 C 
ATOM     65  C   UNL     1     104.994 129.369 147.354  0.00  0.00    +0.000 C 
ATOM     66  C   UNL     1     104.808 129.501 148.146  0.00  0.00    +0.000 C 
ATOM     67  C   UNL     1     104.424 129.488 146.771  0.00  0.00    +0.000 C 
ENDBRANCH  63  64
ENDBRANCH   5  63
TORSDOF 13
ENDMDL
MODEL 6
REMARK VINA RESULT:      -9.7      4.290      6.801
REMARK  Name = 3083261
REMARK  13 active torsions:
REMARK  status: ('A' for Active; 'I' for Inactive)
REMARK    1  A    between atoms: O_1  and  C_25
REMARK    2  A    between atoms: O_1  and  C_28
REMARK    3  A    between atoms: O_4  and  C_32
REMARK    4  A    between atoms: O_4  and  C_40
REMARK    5  A    between atoms: O_6  and  C_29
REMARK    6  A    between atoms: O_6  and  C_48
REMARK    7  A    between atoms: O_11  and  C_38
REMARK    8  A    between atoms: O_11  and  C_49
REMARK    9  A    between atoms: C_31  and  C_43
REMARK   10  A    between atoms: C_36  and  C_45
REMARK   11  A    between atoms: C_50  and  C_57
REMARK   12  A    between atoms: C_55  and  C_58
REMARK   13  A    between atoms: C_57  and  C_59
REMARK                            x       y       z     vdW  Elec       q    Type
REMARK                         _______ _______ _______ _____ _____    ______ ____
ROOT
ATOM      1  O   UNL     1     104.792 129.160 145.881  0.00  0.00    +0.000 OA
ATOM      2  O   UNL     1     105.483 126.991 144.910  0.00  0.00    +0.000 OA
ATOM      3  C   UNL     1     105.301 129.801 143.801  0.00  0.00    +0.000 A 
ATOM      4  C   UNL     1     105.008 127.755 146.020  0.00  0.00    +0.000 A 
ATOM      5  C   UNL     1     105.047 129.838 144.622  0.00  0.00    +0.000 A 
ATOM      6  C   UNL     1     105.037 129.120 145.093  0.00  0.00    +0.000 A 
ATOM      7  C   UNL     1     105.267 128.396 144.770  0.00  0.00    +0.000 A 
ATOM      8  C   UNL     1     105.541 129.049 143.464  0.00  0.00    +0.000 A 
ATOM      9  C   UNL     1     105.253 127.714 145.234  0.00  0.00    +0.000 A 
ATOM     10  C   UNL     1     104.778 128.478 146.344  0.00  0.00    +0.000 A 
ATOM     11  C   UNL     1     105.524 128.341 143.952  0.00  0.00    +0.000 A 
ENDROOT
BRANCH  10  13
ATOM     12  O   UNL     1     103.800 128.641 149.492  0.00  0.00    +0.000 OA
ATOM     13  C   UNL     1     104.533 128.519 147.130  0.00  0.00    +0.000 A 
ATOM     14  C   UNL     1     105.066 128.751 147.716  0.00  0.00    +0.000 A 
ATOM     15  C   UNL     1     103.756 128.327 147.332  0.00  0.00    +0.000 A 
ATOM     16  C   UNL     1     104.822 128.792 148.504  0.00  0.00    +0.000 A 
ATOM     17  C   UNL     1     103.512 128.368 148.118  0.00  0.00    +0.000 A 
ATOM     18  C   UNL     1     104.045 128.600 148.704  0.00  0.00    +0.000 A 
ENDBRANCH  10  13
BRANCH   3  19
ATOM     19  O   UNL     1     105.315 130.485 143.341  0.00  0.00    +0.000 OA
BRANCH  19  26
ATOM     20  O   UNL     1     106.729 130.665 143.232  0.00  0.00    +0.000 OA
ATOM     21  O   UNL     1     106.476 131.204 140.830  0.00  0.00    +0.000 OA
ATOM     22  O   UNL     1     107.973 131.203 141.523  0.00  0.00    +0.000 OA
ATOM     23  C   UNL     1     105.896 130.845 142.085  0.00  0.00    +0.000 C 
ATOM     24  C   UNL     1     106.560 131.024 141.631  0.00  0.00    +0.000 C 
ATOM     25  C   UNL     1     107.309 131.024 141.977  0.00  0.00    +0.000 C 
ATOM     26  C   UNL     1     105.980 130.665 142.886  0.00  0.00    +0.000 C 
ATOM     27  C   UNL     1     107.393 130.844 142.778  0.00  0.00    +0.000 C 
BRANCH  27  29
ATOM     28  O   UNL     1     108.296 131.326 143.776  0.00  0.00    +0.000 OA
ATOM     29  C   UNL     1     108.142 130.844 143.125  0.00  0.00    +0.000 C 
ENDBRANCH  27  29
BRANCH  23  30
ATOM     30  O   UNL     1     105.147 130.845 141.739  0.00  0.00    +0.000 OA
BRANCH  30  35
ATOM     31  O   UNL     1     105.039 132.252 141.966  0.00  0.00    +0.000 OA
ATOM     32  O   UNL     1     103.717 130.868 140.917  0.00  0.00    +0.000 OA
ATOM     33  O   UNL     1     102.893 132.286 140.732  0.00  0.00    +0.000 OA
ATOM     34  O   UNL     1     103.501 133.681 141.371  0.00  0.00    +0.000 OA
ATOM     35  C   UNL     1     104.735 131.554 141.647  0.00  0.00    +0.000 C 
ATOM     36  C   UNL     1     104.020 131.565 141.236  0.00  0.00    +0.000 C 
ATOM     37  C   UNL     1     103.608 132.274 141.143  0.00  0.00    +0.000 C 
ATOM     38  C   UNL     1     103.913 132.972 141.463  0.00  0.00    +0.000 C 
ATOM     39  C   UNL     1     104.628 132.961 141.874  0.00  0.00    +0.000 C 
BRANCH  39  41
ATOM     40  O   UNL     1     104.980 133.751 143.012  0.00  0.00    +0.000 OA
ATOM     41  C   UNL     1     104.931 133.658 142.193  0.00  0.00    +0.000 C 
ENDBRANCH  39  41
ENDBRANCH  30  35
ENDBRANCH  23  30
ENDBRANCH  19  26
ENDBRANCH   3  19
BRANCH   4  42
ATOM     42  O   UNL     1     104.994 127.072 146.483  0.00  0.00    +0.000 OA
BRANCH  42  49
ATOM     43  O   UNL     1     106.406 126.989 146.680  0.00  0.00    +0.000 OA
ATOM     44  O   UNL     1     106.269 124.519 146.619  0.00  0.00    +0.000 OA
ATOM     45  O   UNL     1     107.728 125.259 146.836  0.00  0.00    +0.000 OA
ATOM     46  C   UNL     1     105.631 125.795 146.551  0.00  0.00    +0.000 C 
ATOM     47  C   UNL     1     106.315 125.342 146.639  0.00  0.00    +0.000 C 
ATOM     48  C   UNL     1     107.044 125.712 146.748  0.00  0.00    +0.000 C 
ATOM     49  C   UNL     1     105.677 126.618 146.571  0.00  0.00    +0.000 C 
ATOM     50  C   UNL     1     107.090 126.535 146.769  0.00  0.00    +0.000 C 
ATOM     51  C   UNL     1     107.819 126.906 146.877  0.00  0.00    +0.000 C 
BRANCH  46  52
ATOM     52  O   UNL     1     104.903 125.425 146.442  0.00  0.00    +0.000 OA
BRANCH  52  58
ATOM     53  O   UNL     1     104.790 125.228 147.853  0.00  0.00    +0.000 OA
ATOM     54  O   UNL     1     103.498 124.589 146.214  0.00  0.00    +0.000 OA
ATOM     55  O   UNL     1     102.684 123.975 147.511  0.00  0.00    +0.000 OA
ATOM     56  O   UNL     1     103.274 124.196 149.036  0.00  0.00    +0.000 OA
ATOM     57  O   UNL     1     104.677 125.032 149.263  0.00  0.00    +0.000 OA
ATOM     58  C   UNL     1     104.495 125.118 147.091  0.00  0.00    +0.000 C 
ATOM     59  C   UNL     1     103.793 124.700 146.976  0.00  0.00    +0.000 C 
ATOM     60  C   UNL     1     103.385 124.393 147.625  0.00  0.00    +0.000 C 
ATOM     61  C   UNL     1     103.681 124.504 148.387  0.00  0.00    +0.000 C 
ATOM     62  C   UNL     1     104.382 124.921 148.502  0.00  0.00    +0.000 C 
ENDBRANCH  52  58
ENDBRANCH  46  52
ENDBRANCH  42  49
ENDBRANCH   4  42
BRANCH   5  63
ATOM     63  C   UNL     1     104.816 130.556 144.953  0.00  0.00    +0.000 C 
BRANCH  63  64
ATOM     64  C   UNL     1     104.030 130.803 144.895  0.00  0.00    +0.000 C 
ATOM     65  C   UNL     1     103.788 131.499 145.268  0.00  0.00    +0.000 C 
ATOM     66  C   UNL     1     103.003 131.745 145.209  0.00  0.00    +0.000 C 
ATOM     67  C   UNL     1     104.330 131.947 145.697  0.00  0.00    +0.000 C 
ENDBRANCH  63  64
ENDBRANCH   5  63
TORSDOF 13
ENDMDL
MODEL 7
REMARK VINA RESULT:      -9.7      2.625      4.609
REMARK  Name = 3083261
REMARK  13 active torsions:
REMARK  status: ('A' for Active; 'I' for Inactive)
REMARK    1  A    between atoms: O_1  and  C_25
REMARK    2  A    between atoms: O_1  and  C_28
REMARK    3  A    between atoms: O_4  and  C_32
REMARK    4  A    between atoms: O_4  and  C_40
REMARK    5  A    between atoms: O_6  and  C_29
REMARK    6  A    between atoms: O_6  and  C_48
REMARK    7  A    between atoms: O_11  and  C_38
REMARK    8  A    between atoms: O_11  and  C_49
REMARK    9  A    between atoms: C_31  and  C_43
REMARK   10  A    between atoms: C_36  and  C_45
REMARK   11  A    between atoms: C_50  and  C_57
REMARK   12  A    between atoms: C_55  and  C_58
REMARK   13  A    between atoms: C_57  and  C_59
REMARK                            x       y       z     vdW  Elec       q    Type
REMARK                         _______ _______ _______ _____ _____    ______ ____
ROOT
ATOM      1  O   UNL     1     111.155 128.267 140.584  0.00  0.00    +0.000 OA
ATOM      2  O   UNL     1     108.698 128.072 140.365  0.00  0.00    +0.000 OA
ATOM      3  C   UNL     1     111.015 127.211 138.619  0.00  0.00    +0.000 A 
ATOM      4  C   UNL     1     109.844 128.502 141.100  0.00  0.00    +0.000 A 
ATOM      5  C   UNL     1     111.351 127.593 139.312  0.00  0.00    +0.000 A 
ATOM      6  C   UNL     1     110.827 127.901 139.920  0.00  0.00    +0.000 A 
ATOM      7  C   UNL     1     110.008 127.837 139.847  0.00  0.00    +0.000 A 
ATOM      8  C   UNL     1     110.163 127.143 138.543  0.00  0.00    +0.000 A 
ATOM      9  C   UNL     1     109.516 128.137 140.438  0.00  0.00    +0.000 A 
ATOM     10  C   UNL     1     110.663 128.568 141.174  0.00  0.00    +0.000 A 
ATOM     11  C   UNL     1     109.655 127.458 139.161  0.00  0.00    +0.000 A 
ENDROOT
BRANCH  10  13
ATOM     12  O   UNL     1     111.974 130.029 143.827  0.00  0.00    +0.000 OA
ATOM     13  C   UNL     1     110.990 128.933 141.836  0.00  0.00    +0.000 A 
ATOM     14  C   UNL     1     111.101 128.503 142.532  0.00  0.00    +0.000 A 
ATOM     15  C   UNL     1     111.208 129.728 141.805  0.00  0.00    +0.000 A 
ATOM     16  C   UNL     1     111.428 128.868 143.196  0.00  0.00    +0.000 A 
ATOM     17  C   UNL     1     111.536 130.093 142.468  0.00  0.00    +0.000 A 
ATOM     18  C   UNL     1     111.646 129.663 143.163  0.00  0.00    +0.000 A 
ENDBRANCH  10  13
BRANCH   3  19
ATOM     19  O   UNL     1     111.510 126.911 138.031  0.00  0.00    +0.000 OA
BRANCH  19  26
ATOM     20  O   UNL     1     111.258 127.858 136.990  0.00  0.00    +0.000 OA
ATOM     21  O   UNL     1     111.086 126.011 135.351  0.00  0.00    +0.000 OA
ATOM     22  O   UNL     1     110.891 127.573 134.858  0.00  0.00    +0.000 OA
ATOM     23  C   UNL     1     111.298 126.461 136.691  0.00  0.00    +0.000 C 
ATOM     24  C   UNL     1     111.143 126.626 135.898  0.00  0.00    +0.000 C 
ATOM     25  C   UNL     1     111.046 127.408 135.650  0.00  0.00    +0.000 C 
ATOM     26  C   UNL     1     111.355 127.077 137.237  0.00  0.00    +0.000 C 
ATOM     27  C   UNL     1     111.103 128.023 136.196  0.00  0.00    +0.000 C 
BRANCH  27  29
ATOM     28  O   UNL     1     111.524 129.390 136.216  0.00  0.00    +0.000 OA
ATOM     29  C   UNL     1     111.006 128.805 135.950  0.00  0.00    +0.000 C 
ENDBRANCH  27  29
BRANCH  23  30
ATOM     30  O   UNL     1     111.395 125.680 136.938  0.00  0.00    +0.000 OA
BRANCH  30  35
ATOM     31  O   UNL     1     112.778 125.738 136.584  0.00  0.00    +0.000 OA
ATOM     32  O   UNL     1     111.559 124.083 137.319  0.00  0.00    +0.000 OA
ATOM     33  O   UNL     1     113.025 123.343 137.156  0.00  0.00    +0.000 OA
ATOM     34  O   UNL     1     114.326 124.200 136.611  0.00  0.00    +0.000 OA
ATOM     35  C   UNL     1     112.128 125.310 136.856  0.00  0.00    +0.000 C 
ATOM     36  C   UNL     1     112.210 124.511 137.047  0.00  0.00    +0.000 C 
ATOM     37  C   UNL     1     112.943 124.141 136.965  0.00  0.00    +0.000 C 
ATOM     38  C   UNL     1     113.593 124.570 136.693  0.00  0.00    +0.000 C 
ATOM     39  C   UNL     1     113.511 125.369 136.502  0.00  0.00    +0.000 C 
BRANCH  39  41
ATOM     40  O   UNL     1     114.477 126.405 136.690  0.00  0.00    +0.000 OA
ATOM     41  C   UNL     1     114.161 125.797 136.230  0.00  0.00    +0.000 C 
ENDBRANCH  39  41
ENDBRANCH  30  35
ENDBRANCH  23  30
ENDBRANCH  19  26
ENDBRANCH   3  19
BRANCH   4  42
ATOM     42  O   UNL     1     109.352 128.803 141.691  0.00  0.00    +0.000 OA
BRANCH  42  49
ATOM     43  O   UNL     1     108.919 129.932 140.931  0.00  0.00    +0.000 OA
ATOM     44  O   UNL     1     106.723 129.856 142.071  0.00  0.00    +0.000 OA
ATOM     45  O   UNL     1     107.021 131.011 140.931  0.00  0.00    +0.000 OA
ATOM     46  C   UNL     1     108.037 129.329 141.881  0.00  0.00    +0.000 C 
ATOM     47  C   UNL     1     107.455 129.881 141.691  0.00  0.00    +0.000 C 
ATOM     48  C   UNL     1     107.603 130.459 141.121  0.00  0.00    +0.000 C 
ATOM     49  C   UNL     1     108.769 129.355 141.501  0.00  0.00    +0.000 C 
ATOM     50  C   UNL     1     108.335 130.484 140.741  0.00  0.00    +0.000 C 
ATOM     51  C   UNL     1     108.485 131.061 140.171  0.00  0.00    +0.000 C 
BRANCH  46  52
ATOM     52  O   UNL     1     107.888 128.752 142.451  0.00  0.00    +0.000 OA
BRANCH  52  58
ATOM     53  O   UNL     1     108.152 129.702 143.486  0.00  0.00    +0.000 OA
ATOM     54  O   UNL     1     107.456 127.636 143.586  0.00  0.00    +0.000 OA
ATOM     55  O   UNL     1     107.503 128.027 145.188  0.00  0.00    +0.000 OA
ATOM     56  O   UNL     1     107.984 129.535 145.655  0.00  0.00    +0.000 OA
ATOM     57  O   UNL     1     108.416 130.651 144.520  0.00  0.00    +0.000 OA
ATOM     58  C   UNL     1     107.912 128.948 143.252  0.00  0.00    +0.000 C 
ATOM     59  C   UNL     1     107.696 128.390 143.820  0.00  0.00    +0.000 C 
ATOM     60  C   UNL     1     107.720 128.585 144.621  0.00  0.00    +0.000 C 
ATOM     61  C   UNL     1     107.960 129.339 144.854  0.00  0.00    +0.000 C 
ATOM     62  C   UNL     1     108.176 129.897 144.287  0.00  0.00    +0.000 C 
ENDBRANCH  52  58
ENDBRANCH  46  52
ENDBRANCH  42  49
ENDBRANCH   4  42
BRANCH   5  63
ATOM     63  C   UNL     1     112.168 127.662 139.394  0.00  0.00    +0.000 C 
BRANCH  63  64
ATOM     64  C   UNL     1     112.601 127.052 139.743  0.00  0.00    +0.000 C 
ATOM     65  C   UNL     1     113.411 127.144 139.874  0.00  0.00    +0.000 C 
ATOM     66  C   UNL     1     113.843 126.535 140.223  0.00  0.00    +0.000 C 
ATOM     67  C   UNL     1     113.787 127.844 139.655  0.00  0.00    +0.000 C 
ENDBRANCH  63  64
ENDBRANCH   5  63
TORSDOF 13
ENDMDL
MODEL 8
REMARK VINA RESULT:      -9.6      1.989      7.801
REMARK  Name = 3083261
REMARK  13 active torsions:
REMARK  status: ('A' for Active; 'I' for Inactive)
REMARK    1  A    between atoms: O_1  and  C_25
REMARK    2  A    between atoms: O_1  and  C_28
REMARK    3  A    between atoms: O_4  and  C_32
REMARK    4  A    between atoms: O_4  and  C_40
REMARK    5  A    between atoms: O_6  and  C_29
REMARK    6  A    between atoms: O_6  and  C_48
REMARK    7  A    between atoms: O_11  and  C_38
REMARK    8  A    between atoms: O_11  and  C_49
REMARK    9  A    between atoms: C_31  and  C_43
REMARK   10  A    between atoms: C_36  and  C_45
REMARK   11  A    between atoms: C_50  and  C_57
REMARK   12  A    between atoms: C_55  and  C_58
REMARK   13  A    between atoms: C_57  and  C_59
REMARK                            x       y       z     vdW  Elec       q    Type
REMARK                         _______ _______ _______ _____ _____    ______ ____
ROOT
ATOM      1  O   UNL     1     110.394 128.181 139.375  0.00  0.00    +0.000 OA
ATOM      2  O   UNL     1     110.084 130.311 138.156  0.00  0.00    +0.000 OA
ATOM      3  C   UNL     1     108.818 129.134 140.640  0.00  0.00    +0.000 A 
ATOM      4  C   UNL     1     110.735 129.047 138.291  0.00  0.00    +0.000 A 
ATOM      5  C   UNL     1     109.390 128.561 140.353  0.00  0.00    +0.000 A 
ATOM      6  C   UNL     1     109.846 128.735 139.646  0.00  0.00    +0.000 A 
ATOM      7  C   UNL     1     109.743 129.446 139.239  0.00  0.00    +0.000 A 
ATOM      8  C   UNL     1     108.710 129.874 140.217  0.00  0.00    +0.000 A 
ATOM      9  C   UNL     1     110.188 129.601 138.562  0.00  0.00    +0.000 A 
ATOM     10  C   UNL     1     110.839 128.337 138.697  0.00  0.00    +0.000 A 
ATOM     11  C   UNL     1     109.176 130.031 139.511  0.00  0.00    +0.000 A 
ENDROOT
BRANCH  10  13
ATOM     12  O   UNL     1     113.029 126.118 137.615  0.00  0.00    +0.000 OA
ATOM     13  C   UNL     1     111.386 127.782 138.427  0.00  0.00    +0.000 A 
ATOM     14  C   UNL     1     112.178 127.843 138.648  0.00  0.00    +0.000 A 
ATOM     15  C   UNL     1     111.141 127.166 137.935  0.00  0.00    +0.000 A 
ATOM     16  C   UNL     1     112.726 127.289 138.377  0.00  0.00    +0.000 A 
ATOM     17  C   UNL     1     111.688 126.612 137.665  0.00  0.00    +0.000 A 
ATOM     18  C   UNL     1     112.481 126.673 137.886  0.00  0.00    +0.000 A 
ENDBRANCH  10  13
BRANCH   3  19
ATOM     19  O   UNL     1     108.375 128.976 141.317  0.00  0.00    +0.000 OA
BRANCH  19  26
ATOM     20  O   UNL     1     108.948 129.914 142.231  0.00  0.00    +0.000 OA
ATOM     21  O   UNL     1     106.681 130.582 142.966  0.00  0.00    +0.000 OA
ATOM     22  O   UNL     1     108.009 131.297 143.634  0.00  0.00    +0.000 OA
ATOM     23  C   UNL     1     107.528 129.779 142.142  0.00  0.00    +0.000 C 
ATOM     24  C   UNL     1     107.437 130.359 142.721  0.00  0.00    +0.000 C 
ATOM     25  C   UNL     1     108.101 130.717 143.055  0.00  0.00    +0.000 C 
ATOM     26  C   UNL     1     108.284 129.557 141.897  0.00  0.00    +0.000 C 
ATOM     27  C   UNL     1     108.856 130.495 142.810  0.00  0.00    +0.000 C 
BRANCH  27  29
ATOM     28  O   UNL     1     110.175 130.395 143.353  0.00  0.00    +0.000 OA
ATOM     29  C   UNL     1     109.521 130.852 143.144  0.00  0.00    +0.000 C 
ENDBRANCH  27  29
BRANCH  23  30
ATOM     30  O   UNL     1     106.864 129.421 141.808  0.00  0.00    +0.000 OA
BRANCH  30  35
ATOM     31  O   UNL     1     106.825 128.469 142.872  0.00  0.00    +0.000 OA
ATOM     32  O   UNL     1     105.384 128.905 141.292  0.00  0.00    +0.000 OA
ATOM     33  O   UNL     1     104.605 127.695 142.099  0.00  0.00    +0.000 OA
ATOM     34  O   UNL     1     105.307 127.000 143.422  0.00  0.00    +0.000 OA
ATOM     35  C   UNL     1     106.475 128.816 142.211  0.00  0.00    +0.000 C 
ATOM     36  C   UNL     1     105.735 128.558 141.953  0.00  0.00    +0.000 C 
ATOM     37  C   UNL     1     105.345 127.953 142.357  0.00  0.00    +0.000 C 
ATOM     38  C   UNL     1     105.697 127.606 143.018  0.00  0.00    +0.000 C 
ATOM     39  C   UNL     1     106.437 127.864 143.276  0.00  0.00    +0.000 C 
BRANCH  39  41
ATOM     40  O   UNL     1     107.447 127.029 143.847  0.00  0.00    +0.000 OA
ATOM     41  C   UNL     1     106.787 127.517 143.937  0.00  0.00    +0.000 C 
ENDBRANCH  39  41
ENDBRANCH  30  35
ENDBRANCH  23  30
ENDBRANCH  19  26
ENDBRANCH   3  19
BRANCH   4  42
ATOM     42  O   UNL     1     111.179 129.203 137.614  0.00  0.00    +0.000 OA
BRANCH  42  49
ATOM     43  O   UNL     1     110.114 128.974 136.690  0.00  0.00    +0.000 OA
ATOM     44  O   UNL     1     111.033 130.721 135.197  0.00  0.00    +0.000 OA
ATOM     45  O   UNL     1     109.661 129.909 134.771  0.00  0.00    +0.000 OA
ATOM     46  C   UNL     1     111.106 129.962 136.405  0.00  0.00    +0.000 C 
ATOM     47  C   UNL     1     110.727 130.139 135.695  0.00  0.00    +0.000 C 
ATOM     48  C   UNL     1     110.041 129.733 135.481  0.00  0.00    +0.000 C 
ATOM     49  C   UNL     1     110.800 129.380 136.903  0.00  0.00    +0.000 C 
ATOM     50  C   UNL     1     109.734 129.151 135.979  0.00  0.00    +0.000 C 
ATOM     51  C   UNL     1     109.049 128.744 135.766  0.00  0.00    +0.000 C 
BRANCH  46  52
ATOM     52  O   UNL     1     111.792 130.368 136.618  0.00  0.00    +0.000 OA
BRANCH  52  58
ATOM     53  O   UNL     1     112.561 129.516 135.766  0.00  0.00    +0.000 OA
ATOM     54  O   UNL     1     113.162 131.185 137.038  0.00  0.00    +0.000 OA
ATOM     55  O   UNL     1     114.616 130.742 136.396  0.00  0.00    +0.000 OA
ATOM     56  O   UNL     1     114.699 129.482 135.334  0.00  0.00    +0.000 OA
ATOM     57  O   UNL     1     113.329 128.665 134.915  0.00  0.00    +0.000 OA
ATOM     58  C   UNL     1     112.518 130.146 136.297  0.00  0.00    +0.000 C 
ATOM     59  C   UNL     1     113.205 130.555 136.507  0.00  0.00    +0.000 C 
ATOM     60  C   UNL     1     113.931 130.334 136.186  0.00  0.00    +0.000 C 
ATOM     61  C   UNL     1     113.972 129.703 135.655  0.00  0.00    +0.000 C 
ATOM     62  C   UNL     1     113.288 129.295 135.445  0.00  0.00    +0.000 C 
ENDBRANCH  52  58
ENDBRANCH  46  52
ENDBRANCH  42  49
ENDBRANCH   4  42
BRANCH   5  63
ATOM     63  C   UNL     1     109.500 127.848 140.753  0.00  0.00    +0.000 C 
BRANCH  63  64
ATOM     64  C   UNL     1     109.009 127.205 140.591  0.00  0.00    +0.000 C 
ATOM     65  C   UNL     1     109.164 126.471 140.937  0.00  0.00    +0.000 C 
ATOM     66  C   UNL     1     108.673 125.828 140.775  0.00  0.00    +0.000 C 
ATOM     67  C   UNL     1     109.808 126.381 141.443  0.00  0.00    +0.000 C 
ENDBRANCH  63  64
ENDBRANCH   5  63
TORSDOF 13
ENDMDL
MODEL 9
REMARK VINA RESULT:      -9.6      3.984      8.457
REMARK  Name = 3083261
REMARK  13 active torsions:
REMARK  status: ('A' for Active; 'I' for Inactive)
REMARK    1  A    between atoms: O_1  and  C_25
REMARK    2  A    between atoms: O_1  and  C_28
REMARK    3  A    between atoms: O_4  and  C_32
REMARK    4  A    between atoms: O_4  and  C_40
REMARK    5  A    between atoms: O_6  and  C_29
REMARK    6  A    between atoms: O_6  and  C_48
REMARK    7  A    between atoms: O_11  and  C_38
REMARK    8  A    between atoms: O_11  and  C_49
REMARK    9  A    between atoms: C_31  and  C_43
REMARK   10  A    between atoms: C_36  and  C_45
REMARK   11  A    between atoms: C_50  and  C_57
REMARK   12  A    between atoms: C_55  and  C_58
REMARK   13  A    between atoms: C_57  and  C_59
REMARK                            x       y       z     vdW  Elec       q    Type
REMARK                         _______ _______ _______ _____ _____    ______ ____
ROOT
ATOM      1  O   UNL     1     105.446 130.571 144.075  0.00  0.00    +0.000 OA
ATOM      2  O   UNL     1     103.843 130.212 142.224  0.00  0.00    +0.000 OA
ATOM      3  C   UNL     1     105.348 128.339 144.063  0.00  0.00    +0.000 A 
ATOM      4  C   UNL     1     104.593 131.098 143.057  0.00  0.00    +0.000 A 
ATOM      5  C   UNL     1     105.569 129.139 144.284  0.00  0.00    +0.000 A 
ATOM      6  C   UNL     1     105.230 129.804 143.858  0.00  0.00    +0.000 A 
ATOM      7  C   UNL     1     104.695 129.685 143.241  0.00  0.00    +0.000 A 
ATOM      8  C   UNL     1     104.792 128.214 143.421  0.00  0.00    +0.000 A 
ATOM      9  C   UNL     1     104.377 130.332 142.840  0.00  0.00    +0.000 A 
ATOM     10  C   UNL     1     105.127 131.218 143.674  0.00  0.00    +0.000 A 
ATOM     11  C   UNL     1     104.463 128.892 143.007  0.00  0.00    +0.000 A 
ENDROOT
BRANCH  10  13
ATOM     12  O   UNL     1     105.991 134.284 144.538  0.00  0.00    +0.000 OA
ATOM     13  C   UNL     1     105.343 131.984 143.890  0.00  0.00    +0.000 A 
ATOM     14  C   UNL     1     105.941 132.376 143.478  0.00  0.00    +0.000 A 
ATOM     15  C   UNL     1     104.961 132.359 144.518  0.00  0.00    +0.000 A 
ATOM     16  C   UNL     1     106.157 133.143 143.694  0.00  0.00    +0.000 A 
ATOM     17  C   UNL     1     105.177 133.125 144.734  0.00  0.00    +0.000 A 
ATOM     18  C   UNL     1     105.775 133.517 144.322  0.00  0.00    +0.000 A 
ENDBRANCH  10  13
BRANCH   3  19
ATOM     19  O   UNL     1     105.668 127.694 144.466  0.00  0.00    +0.000 OA
BRANCH  19  26
ATOM     20  O   UNL     1     106.454 127.119 143.419  0.00  0.00    +0.000 OA
ATOM     21  O   UNL     1     105.639 124.867 144.046  0.00  0.00    +0.000 OA
ATOM     22  O   UNL     1     106.696 125.043 142.791  0.00  0.00    +0.000 OA
ATOM     23  C   UNL     1     105.654 126.281 144.256  0.00  0.00    +0.000 C 
ATOM     24  C   UNL     1     105.911 125.618 143.837  0.00  0.00    +0.000 C 
ATOM     25  C   UNL     1     106.439 125.705 143.210  0.00  0.00    +0.000 C 
ATOM     26  C   UNL     1     105.925 127.031 144.047  0.00  0.00    +0.000 C 
ATOM     27  C   UNL     1     106.710 126.456 143.001  0.00  0.00    +0.000 C 
BRANCH  27  29
ATOM     28  O   UNL     1     107.983 126.875 142.503  0.00  0.00    +0.000 OA
ATOM     29  C   UNL     1     107.239 126.544 142.373  0.00  0.00    +0.000 C 
ENDBRANCH  27  29
BRANCH  23  30
ATOM     30  O   UNL     1     105.126 126.193 144.883  0.00  0.00    +0.000 OA
BRANCH  30  35
ATOM     31  O   UNL     1     106.191 125.921 145.796  0.00  0.00    +0.000 OA
ATOM     32  O   UNL     1     104.048 125.535 145.946  0.00  0.00    +0.000 OA
ATOM     33  O   UNL     1     104.574 124.935 147.390  0.00  0.00    +0.000 OA
ATOM     34  O   UNL     1     106.179 124.992 147.771  0.00  0.00    +0.000 OA
ATOM     35  C   UNL     1     105.389 125.893 145.605  0.00  0.00    +0.000 C 
ATOM     36  C   UNL     1     104.850 125.564 146.137  0.00  0.00    +0.000 C 
ATOM     37  C   UNL     1     105.113 125.263 146.859  0.00  0.00    +0.000 C 
ATOM     38  C   UNL     1     105.916 125.292 147.049  0.00  0.00    +0.000 C 
ATOM     39  C   UNL     1     106.455 125.621 146.518  0.00  0.00    +0.000 C 
BRANCH  39  41
ATOM     40  O   UNL     1     107.624 126.377 146.839  0.00  0.00    +0.000 OA
ATOM     41  C   UNL     1     107.257 125.650 146.708  0.00  0.00    +0.000 C 
ENDBRANCH  39  41
ENDBRANCH  30  35
ENDBRANCH  23  30
ENDBRANCH  19  26
ENDBRANCH   3  19
BRANCH   4  42
ATOM     42  O   UNL     1     104.274 131.745 142.656  0.00  0.00    +0.000 OA
BRANCH  42  49
ATOM     43  O   UNL     1     103.000 131.700 143.299  0.00  0.00    +0.000 OA
ATOM     44  O   UNL     1     101.919 132.479 141.213  0.00  0.00    +0.000 OA
ATOM     45  O   UNL     1     101.005 132.175 142.552  0.00  0.00    +0.000 OA
ATOM     46  C   UNL     1     103.097 132.112 141.934  0.00  0.00    +0.000 C 
ATOM     47  C   UNL     1     102.280 132.220 141.908  0.00  0.00    +0.000 C 
ATOM     48  C   UNL     1     101.822 132.068 142.578  0.00  0.00    +0.000 C 
ATOM     49  C   UNL     1     103.457 131.853 142.629  0.00  0.00    +0.000 C 
ATOM     50  C   UNL     1     102.182 131.808 143.273  0.00  0.00    +0.000 C 
ATOM     51  C   UNL     1     101.725 131.656 143.943  0.00  0.00    +0.000 C 
BRANCH  46  52
ATOM     52  O   UNL     1     103.554 132.264 141.265  0.00  0.00    +0.000 OA
BRANCH  52  58
ATOM     53  O   UNL     1     103.551 133.660 141.571  0.00  0.00    +0.000 OA
ATOM     54  O   UNL     1     104.292 132.582 139.824  0.00  0.00    +0.000 OA
ATOM     55  O   UNL     1     104.658 134.137 139.411  0.00  0.00    +0.000 OA
ATOM     56  O   UNL     1     104.286 135.374 140.438  0.00  0.00    +0.000 OA
ATOM     57  O   UNL     1     103.548 135.055 141.878  0.00  0.00    +0.000 OA
ATOM     58  C   UNL     1     103.737 133.041 141.058  0.00  0.00    +0.000 C 
ATOM     59  C   UNL     1     104.106 133.201 140.337  0.00  0.00    +0.000 C 
ATOM     60  C   UNL     1     104.289 133.978 140.131  0.00  0.00    +0.000 C 
ATOM     61  C   UNL     1     104.103 134.596 140.645  0.00  0.00    +0.000 C 
ATOM     62  C   UNL     1     103.734 134.437 141.365  0.00  0.00    +0.000 C 
ENDBRANCH  52  58
ENDBRANCH  46  52
ENDBRANCH  42  49
ENDBRANCH   4  42
BRANCH   5  63
ATOM     63  C   UNL     1     106.102 129.268 144.900  0.00  0.00    +0.000 C 
BRANCH  63  64
ATOM     64  C   UNL     1     105.830 129.321 145.677  0.00  0.00    +0.000 C 
ATOM     65  C   UNL     1     106.360 129.485 146.288  0.00  0.00    +0.000 C 
ATOM     66  C   UNL     1     106.087 129.538 147.065  0.00  0.00    +0.000 C 
ATOM     67  C   UNL     1     107.159 129.596 146.124  0.00  0.00    +0.000 C 
ENDBRANCH  63  64
ENDBRANCH   5  63
TORSDOF 13
ENDMDL
MODEL 10
REMARK VINA RESULT:      -9.5      4.075      6.004
REMARK  Name = 3083261
REMARK  13 active torsions:
REMARK  status: ('A' for Active; 'I' for Inactive)
REMARK    1  A    between atoms: O_1  and  C_25
REMARK    2  A    between atoms: O_1  and  C_28
REMARK    3  A    between atoms: O_4  and  C_32
REMARK    4  A    between atoms: O_4  and  C_40
REMARK    5  A    between atoms: O_6  and  C_29
REMARK    6  A    between atoms: O_6  and  C_48
REMARK    7  A    between atoms: O_11  and  C_38
REMARK    8  A    between atoms: O_11  and  C_49
REMARK    9  A    between atoms: C_31  and  C_43
REMARK   10  A    between atoms: C_36  and  C_45
REMARK   11  A    between atoms: C_50  and  C_57
REMARK   12  A    between atoms: C_55  and  C_58
REMARK   13  A    between atoms: C_57  and  C_59
REMARK                            x       y       z     vdW  Elec       q    Type
REMARK                         _______ _______ _______ _____ _____    ______ ____
ROOT
ATOM      1  O   UNL     1     106.879 129.990 146.082  0.00  0.00    +0.000 OA
ATOM      2  O   UNL     1     107.720 127.667 145.941  0.00  0.00    +0.000 OA
ATOM      3  C   UNL     1     108.931 130.360 145.277  0.00  0.00    +0.000 A 
ATOM      4  C   UNL     1     106.678 128.587 146.266  0.00  0.00    +0.000 A 
ATOM      5  C   UNL     1     108.135 130.506 145.567  0.00  0.00    +0.000 A 
ATOM      6  C   UNL     1     107.643 129.843 145.804  0.00  0.00    +0.000 A 
ATOM      7  C   UNL     1     107.923 129.069 145.757  0.00  0.00    +0.000 A 
ATOM      8  C   UNL     1     109.223 129.554 145.228  0.00  0.00    +0.000 A 
ATOM      9  C   UNL     1     107.440 128.441 145.988  0.00  0.00    +0.000 A 
ATOM     10  C   UNL     1     106.397 129.361 146.313  0.00  0.00    +0.000 A 
ATOM     11  C   UNL     1     108.715 128.903 145.470  0.00  0.00    +0.000 A 
ENDROOT
BRANCH  10  13
ATOM     12  O   UNL     1     103.345 129.948 147.424  0.00  0.00    +0.000 OA
ATOM     13  C   UNL     1     105.635 129.508 146.591  0.00  0.00    +0.000 A 
ATOM     14  C   UNL     1     105.017 129.629 146.057  0.00  0.00    +0.000 A 
ATOM     15  C   UNL     1     105.488 129.534 147.402  0.00  0.00    +0.000 A 
ATOM     16  C   UNL     1     104.254 129.776 146.334  0.00  0.00    +0.000 A 
ATOM     17  C   UNL     1     104.726 129.680 147.680  0.00  0.00    +0.000 A 
ATOM     18  C   UNL     1     104.109 129.801 147.146  0.00  0.00    +0.000 A 
ENDBRANCH  10  13
BRANCH   3  19
ATOM     19  O   UNL     1     109.411 130.990 145.047  0.00  0.00    +0.000 OA
BRANCH  19  26
ATOM     20  O   UNL     1     109.443 130.830 143.626  0.00  0.00    +0.000 OA
ATOM     21  O   UNL     1     111.907 131.061 143.656  0.00  0.00    +0.000 OA
ATOM     22  O   UNL     1     111.117 130.824 142.227  0.00  0.00    +0.000 OA
ATOM     23  C   UNL     1     110.659 131.025 144.351  0.00  0.00    +0.000 C 
ATOM     24  C   UNL     1     111.086 130.984 143.646  0.00  0.00    +0.000 C 
ATOM     25  C   UNL     1     110.691 130.866 142.932  0.00  0.00    +0.000 C 
ATOM     26  C   UNL     1     109.837 130.948 144.341  0.00  0.00    +0.000 C 
ATOM     27  C   UNL     1     109.870 130.789 142.922  0.00  0.00    +0.000 C 
BRANCH  27  29
ATOM     28  O   UNL     1     108.776 131.080 142.048  0.00  0.00    +0.000 OA
ATOM     29  C   UNL     1     109.474 130.670 142.207  0.00  0.00    +0.000 C 
ENDBRANCH  27  29
BRANCH  23  30
ATOM     30  O   UNL     1     111.053 131.144 145.066  0.00  0.00    +0.000 OA
BRANCH  30  35
ATOM     31  O   UNL     1     110.991 132.559 144.880  0.00  0.00    +0.000 OA
ATOM     32  O   UNL     1     112.082 131.356 146.338  0.00  0.00    +0.000 OA
ATOM     33  O   UNL     1     112.534 132.878 146.789  0.00  0.00    +0.000 OA
ATOM     34  O   UNL     1     111.957 134.187 145.966  0.00  0.00    +0.000 OA
ATOM     35  C   UNL     1     111.279 131.905 145.291  0.00  0.00    +0.000 C 
ATOM     36  C   UNL     1     111.794 132.011 145.927  0.00  0.00    +0.000 C 
ATOM     37  C   UNL     1     112.020 132.772 146.153  0.00  0.00    +0.000 C 
ATOM     38  C   UNL     1     111.731 133.426 145.741  0.00  0.00    +0.000 C 
ATOM     39  C   UNL     1     111.217 133.320 145.105  0.00  0.00    +0.000 C 
BRANCH  39  41
ATOM     40  O   UNL     1     110.144 134.212 144.793  0.00  0.00    +0.000 OA
ATOM     41  C   UNL     1     110.928 133.975 144.694  0.00  0.00    +0.000 C 
ENDBRANCH  39  41
ENDBRANCH  30  35
ENDBRANCH  23  30
ENDBRANCH  19  26
ENDBRANCH   3  19
BRANCH   4  42
ATOM     42  O   UNL     1     106.195 127.959 146.497  0.00  0.00    +0.000 OA
BRANCH  42  49
ATOM     43  O   UNL     1     105.870 127.524 145.176  0.00  0.00    +0.000 OA
ATOM     44  O   UNL     1     105.849 125.175 145.955  0.00  0.00    +0.000 OA
ATOM     45  O   UNL     1     105.530 125.522 144.374  0.00  0.00    +0.000 OA
ATOM     46  C   UNL     1     106.022 126.566 146.226  0.00  0.00    +0.000 C 
ATOM     47  C   UNL     1     105.856 125.958 145.696  0.00  0.00    +0.000 C 
ATOM     48  C   UNL     1     105.696 126.131 144.905  0.00  0.00    +0.000 C 
ATOM     49  C   UNL     1     106.029 127.349 145.966  0.00  0.00    +0.000 C 
ATOM     50  C   UNL     1     105.703 126.914 144.645  0.00  0.00    +0.000 C 
ATOM     51  C   UNL     1     105.544 127.088 143.855  0.00  0.00    +0.000 C 
BRANCH  46  52
ATOM     52  O   UNL     1     106.182 126.393 147.016  0.00  0.00    +0.000 OA
BRANCH  52  58
ATOM     53  O   UNL     1     104.781 126.318 147.290  0.00  0.00    +0.000 OA
ATOM     54  O   UNL     1     106.508 125.838 148.536  0.00  0.00    +0.000 OA
ATOM     55  O   UNL     1     105.271 125.487 149.569  0.00  0.00    +0.000 OA
ATOM     56  O   UNL     1     103.707 125.689 149.082  0.00  0.00    +0.000 OA
ATOM     57  O   UNL     1     103.381 126.243 147.564  0.00  0.00    +0.000 OA
ATOM     58  C   UNL     1     105.563 126.217 147.533  0.00  0.00    +0.000 C 
ATOM     59  C   UNL     1     105.726 125.939 148.293  0.00  0.00    +0.000 C 
ATOM     60  C   UNL     1     105.107 125.764 148.810  0.00  0.00    +0.000 C 
ATOM     61  C   UNL     1     104.326 125.865 148.566  0.00  0.00    +0.000 C 
ATOM     62  C   UNL     1     104.163 126.142 147.807  0.00  0.00    +0.000 C 
ENDBRANCH  52  58
ENDBRANCH  46  52
ENDBRANCH  42  49
ENDBRANCH   4  42
BRANCH   5  63
ATOM     63  C   UNL     1     107.847 131.277 145.617  0.00  0.00    +0.000 C 
BRANCH  63  64
ATOM     64  C   UNL     1     107.992 131.728 146.293  0.00  0.00    +0.000 C 
ATOM     65  C   UNL     1     107.677 132.489 146.356  0.00  0.00    +0.000 C 
ATOM     66  C   UNL     1     107.823 132.940 147.031  0.00  0.00    +0.000 C 
ATOM     67  C   UNL     1     107.219 132.798 145.745  0.00  0.00    +0.000 C 
ENDBRANCH  63  64
ENDBRANCH   5  63
TORSDOF 13
ENDMDL
