MODEL 1
REMARK VINA RESULT:     -10.0      0.000      0.000
REMARK  Name = 44259307
REMARK  10 active torsions:
REMARK  status: ('A' for Active; 'I' for Inactive)
REMARK    1  A    between atoms: O_3  and  C_24
REMARK    2  A    between atoms: O_3  and  C_28
REMARK    3  A    between atoms: O_4  and  C_20
REMARK    4  A    between atoms: O_4  and  C_32
REMARK    5  A    between atoms: O_5  and  C_22
REMARK    6  A    between atoms: O_5  and  C_33
REMARK    7  A    between atoms: O_9  and  C_29
REMARK    8  A    between atoms: O_9  and  C_31
REMARK    9  A    between atoms: C_19  and  C_28
REMARK   10  A    between atoms: C_34  and  C_39
REMARK                            x       y       z     vdW  Elec       q    Type
REMARK                         _______ _______ _______ _____ _____    ______ ____
ROOT
ATOM      1  O   UNL     1     113.245 129.160 136.923  0.00  0.00    +0.000 OA
ATOM      2  O   UNL     1     114.345 128.772 135.077  0.00  0.00    +0.000 OA
ATOM      3  O   UNL     1     114.818 130.319 135.403  0.00  0.00    +0.000 OA
ATOM      4  O   UNL     1     114.243 131.093 136.741  0.00  0.00    +0.000 OA
ATOM      5  C   UNL     1     113.532 128.773 136.254  0.00  0.00    +0.000 C 
ATOM      6  C   UNL     1     114.057 129.159 135.746  0.00  0.00    +0.000 C 
ATOM      7  C   UNL     1     114.293 129.932 135.910  0.00  0.00    +0.000 C 
ATOM      8  C   UNL     1     114.006 130.320 136.579  0.00  0.00    +0.000 C 
ATOM      9  C   UNL     1     113.482 129.934 137.085  0.00  0.00    +0.000 C 
ENDROOT
BRANCH   9  10
ATOM     10  O   UNL     1     113.194 130.321 137.754  0.00  0.00    +0.000 OA
BRANCH  10  15
ATOM     11  O   UNL     1     111.422 129.837 138.933  0.00  0.00    +0.000 OA
ATOM     12  O   UNL     1     111.995 130.768 136.712  0.00  0.00    +0.000 OA
ATOM     13  O   UNL     1     110.598 130.916 136.383  0.00  0.00    +0.000 OA
ATOM     14  O   UNL     1     108.584 130.107 138.336  0.00  0.00    +0.000 OA
ATOM     15  C   UNL     1     112.403 130.234 137.974  0.00  0.00    +0.000 A 
ATOM     16  C   UNL     1     112.212 129.924 138.714  0.00  0.00    +0.000 A 
ATOM     17  C   UNL     1     111.804 130.457 137.453  0.00  0.00    +0.000 A 
ATOM     18  C   UNL     1     111.013 130.370 137.672  0.00  0.00    +0.000 A 
ATOM     19  C   UNL     1     110.822 130.060 138.412  0.00  0.00    +0.000 A 
ATOM     20  C   UNL     1     110.398 130.606 137.121  0.00  0.00    +0.000 A 
ATOM     21  C   UNL     1     110.003 129.964 138.652  0.00  0.00    +0.000 A 
ATOM     22  C   UNL     1     109.573 130.519 137.342  0.00  0.00    +0.000 A 
ATOM     23  C   UNL     1     109.373 130.195 138.114  0.00  0.00    +0.000 A 
BRANCH  16  26
ATOM     24  O   UNL     1     113.702 127.877 140.040  0.00  0.00    +0.000 OA
ATOM     25  O   UNL     1     114.611 129.028 140.796  0.00  0.00    +0.000 OA
ATOM     26  C   UNL     1     112.812 129.700 139.235  0.00  0.00    +0.000 A 
ATOM     27  C   UNL     1     112.957 128.901 139.377  0.00  0.00    +0.000 A 
ATOM     28  C   UNL     1     113.267 130.275 139.612  0.00  0.00    +0.000 A 
ATOM     29  C   UNL     1     113.557 128.676 139.898  0.00  0.00    +0.000 A 
ATOM     30  C   UNL     1     113.867 130.052 140.133  0.00  0.00    +0.000 A 
ATOM     31  C   UNL     1     114.012 129.253 140.276  0.00  0.00    +0.000 A 
ENDBRANCH  16  26
ENDBRANCH  10  15
ENDBRANCH   9  10
BRANCH   5  32
ATOM     32  C   UNL     1     113.296 128.000 136.090  0.00  0.00    +0.000 C 
BRANCH  32  33
ATOM     33  O   UNL     1     112.512 127.773 136.213  0.00  0.00    +0.000 OA
BRANCH  33  39
ATOM     34  O   UNL     1     112.899 126.407 136.379  0.00  0.00    +0.000 OA
ATOM     35  O   UNL     1     110.946 127.302 135.992  0.00  0.00    +0.000 OA
ATOM     36  C   UNL     1     111.333 125.937 136.158  0.00  0.00    +0.000 C 
ATOM     37  C   UNL     1     111.532 126.737 136.130  0.00  0.00    +0.000 C 
ATOM     38  C   UNL     1     111.919 125.371 136.296  0.00  0.00    +0.000 C 
ATOM     39  C   UNL     1     112.315 126.972 136.241  0.00  0.00    +0.000 C 
ATOM     40  C   UNL     1     112.702 125.606 136.407  0.00  0.00    +0.000 C 
ATOM     41  C   UNL     1     113.286 125.042 136.545  0.00  0.00    +0.000 C 
BRANCH  36  42
ATOM     42  O   UNL     1     110.550 125.701 136.048  0.00  0.00    +0.000 OA
BRANCH  42  44
ATOM     43  O   UNL     1     110.511 125.611 134.622  0.00  0.00    +0.000 OA
ATOM     44  C   UNL     1     110.171 125.856 135.332  0.00  0.00    +0.000 C 
ATOM     45  C   UNL     1     109.450 126.257 135.326  0.00  0.00    +0.000 C 
ENDBRANCH  42  44
ENDBRANCH  36  42
BRANCH  38  46
ATOM     46  O   UNL     1     111.720 124.571 136.324  0.00  0.00    +0.000 OA
BRANCH  46  48
ATOM     47  O   UNL     1     111.480 124.494 137.731  0.00  0.00    +0.000 OA
ATOM     48  C   UNL     1     111.772 124.158 137.037  0.00  0.00    +0.000 C 
ATOM     49  C   UNL     1     112.117 123.409 137.055  0.00  0.00    +0.000 C 
ENDBRANCH  46  48
ENDBRANCH  38  46
ENDBRANCH  33  39
ENDBRANCH  32  33
ENDBRANCH   5  32
TORSDOF 10
ENDMDL
MODEL 2
REMARK VINA RESULT:      -9.9      1.466      4.016
REMARK  Name = 44259307
REMARK  10 active torsions:
REMARK  status: ('A' for Active; 'I' for Inactive)
REMARK    1  A    between atoms: O_3  and  C_24
REMARK    2  A    between atoms: O_3  and  C_28
REMARK    3  A    between atoms: O_4  and  C_20
REMARK    4  A    between atoms: O_4  and  C_32
REMARK    5  A    between atoms: O_5  and  C_22
REMARK    6  A    between atoms: O_5  and  C_33
REMARK    7  A    between atoms: O_9  and  C_29
REMARK    8  A    between atoms: O_9  and  C_31
REMARK    9  A    between atoms: C_19  and  C_28
REMARK   10  A    between atoms: C_34  and  C_39
REMARK                            x       y       z     vdW  Elec       q    Type
REMARK                         _______ _______ _______ _____ _____    ______ ____
ROOT
ATOM      1  O   UNL     1     110.324 129.237 138.106  0.00  0.00    +0.000 OA
ATOM      2  O   UNL     1     109.314 128.037 139.625  0.00  0.00    +0.000 OA
ATOM      3  O   UNL     1     108.778 129.548 140.016  0.00  0.00    +0.000 OA
ATOM      4  O   UNL     1     109.273 130.852 139.134  0.00  0.00    +0.000 OA
ATOM      5  C   UNL     1     110.076 128.585 138.547  0.00  0.00    +0.000 C 
ATOM      6  C   UNL     1     109.561 128.689 139.184  0.00  0.00    +0.000 C 
ATOM      7  C   UNL     1     109.294 129.444 139.379  0.00  0.00    +0.000 C 
ATOM      8  C   UNL     1     109.541 130.096 138.938  0.00  0.00    +0.000 C 
ATOM      9  C   UNL     1     110.055 129.993 138.302  0.00  0.00    +0.000 C 
ENDROOT
BRANCH   9  10
ATOM     10  O   UNL     1     110.303 130.645 137.862  0.00  0.00    +0.000 OA
BRANCH  10  15
ATOM     11  O   UNL     1     111.946 130.755 136.430  0.00  0.00    +0.000 OA
ATOM     12  O   UNL     1     111.603 130.565 138.874  0.00  0.00    +0.000 OA
ATOM     13  O   UNL     1     113.029 130.546 139.100  0.00  0.00    +0.000 OA
ATOM     14  O   UNL     1     114.834 130.723 136.812  0.00  0.00    +0.000 OA
ATOM     15  C   UNL     1     111.068 130.668 137.553  0.00  0.00    +0.000 A 
ATOM     16  C   UNL     1     111.182 130.732 136.738  0.00  0.00    +0.000 A 
ATOM     17  C   UNL     1     111.718 130.628 138.059  0.00  0.00    +0.000 A 
ATOM     18  C   UNL     1     112.483 130.652 137.750  0.00  0.00    +0.000 A 
ATOM     19  C   UNL     1     112.597 130.715 136.935  0.00  0.00    +0.000 A 
ATOM     20  C   UNL     1     113.152 130.609 138.287  0.00  0.00    +0.000 A 
ATOM     21  C   UNL     1     113.388 130.741 136.602  0.00  0.00    +0.000 A 
ATOM     22  C   UNL     1     113.951 130.633 137.973  0.00  0.00    +0.000 A 
ATOM     23  C   UNL     1     114.070 130.700 137.124  0.00  0.00    +0.000 A 
BRANCH  16  26
ATOM     24  O   UNL     1     109.507 129.526 134.761  0.00  0.00    +0.000 OA
ATOM     25  O   UNL     1     108.579 130.890 134.715  0.00  0.00    +0.000 OA
ATOM     26  C   UNL     1     110.531 130.772 136.232  0.00  0.00    +0.000 A 
ATOM     27  C   UNL     1     110.344 130.130 135.750  0.00  0.00    +0.000 A 
ATOM     28  C   UNL     1     110.068 131.453 136.209  0.00  0.00    +0.000 A 
ATOM     29  C   UNL     1     109.694 130.168 135.244  0.00  0.00    +0.000 A 
ATOM     30  C   UNL     1     109.417 131.493 135.704  0.00  0.00    +0.000 A 
ATOM     31  C   UNL     1     109.230 130.851 135.221  0.00  0.00    +0.000 A 
ENDBRANCH  16  26
ENDBRANCH  10  15
ENDBRANCH   9  10
BRANCH   5  32
ATOM     32  C   UNL     1     110.344 127.830 138.352  0.00  0.00    +0.000 C 
BRANCH  32  33
ATOM     33  O   UNL     1     110.136 127.492 137.629  0.00  0.00    +0.000 OA
BRANCH  33  39
ATOM     34  O   UNL     1     111.335 126.715 137.631  0.00  0.00    +0.000 OA
ATOM     35  O   UNL     1     109.566 126.609 136.357  0.00  0.00    +0.000 OA
ATOM     36  C   UNL     1     110.765 125.832 136.359  0.00  0.00    +0.000 C 
ATOM     37  C   UNL     1     110.309 126.441 136.676  0.00  0.00    +0.000 C 
ATOM     38  C   UNL     1     111.508 125.664 136.678  0.00  0.00    +0.000 C 
ATOM     39  C   UNL     1     110.594 126.883 137.312  0.00  0.00    +0.000 C 
ATOM     40  C   UNL     1     111.793 126.106 137.314  0.00  0.00    +0.000 C 
ATOM     41  C   UNL     1     112.535 125.938 137.633  0.00  0.00    +0.000 C 
BRANCH  36  42
ATOM     42  O   UNL     1     110.480 125.391 135.722  0.00  0.00    +0.000 OA
BRANCH  42  44
ATOM     43  O   UNL     1     110.913 126.184 134.615  0.00  0.00    +0.000 OA
ATOM     44  C   UNL     1     110.321 125.762 135.003  0.00  0.00    +0.000 C 
ATOM     45  C   UNL     1     109.567 125.709 134.670  0.00  0.00    +0.000 C 
ENDBRANCH  42  44
ENDBRANCH  36  42
BRANCH  38  46
ATOM     46  O   UNL     1     111.965 125.055 136.360  0.00  0.00    +0.000 OA
BRANCH  46  48
ATOM     47  O   UNL     1     111.517 124.025 137.244  0.00  0.00    +0.000 OA
ATOM     48  C   UNL     1     112.121 124.380 136.809  0.00  0.00    +0.000 C 
ATOM     49  C   UNL     1     112.882 124.062 136.823  0.00  0.00    +0.000 C 
ENDBRANCH  46  48
ENDBRANCH  38  46
ENDBRANCH  33  39
ENDBRANCH  32  33
ENDBRANCH   5  32
TORSDOF 10
ENDMDL
MODEL 3
REMARK VINA RESULT:      -9.9      0.902      2.694
REMARK  Name = 44259307
REMARK  10 active torsions:
REMARK  status: ('A' for Active; 'I' for Inactive)
REMARK    1  A    between atoms: O_3  and  C_24
REMARK    2  A    between atoms: O_3  and  C_28
REMARK    3  A    between atoms: O_4  and  C_20
REMARK    4  A    between atoms: O_4  and  C_32
REMARK    5  A    between atoms: O_5  and  C_22
REMARK    6  A    between atoms: O_5  and  C_33
REMARK    7  A    between atoms: O_9  and  C_29
REMARK    8  A    between atoms: O_9  and  C_31
REMARK    9  A    between atoms: C_19  and  C_28
REMARK   10  A    between atoms: C_34  and  C_39
REMARK                            x       y       z     vdW  Elec       q    Type
REMARK                         _______ _______ _______ _____ _____    ______ ____
ROOT
ATOM      1  O   UNL     1     113.183 129.458 136.787  0.00  0.00    +0.000 OA
ATOM      2  O   UNL     1     114.587 128.581 135.364  0.00  0.00    +0.000 OA
ATOM      3  O   UNL     1     115.018 130.171 135.286  0.00  0.00    +0.000 OA
ATOM      4  O   UNL     1     114.226 131.287 136.209  0.00  0.00    +0.000 OA
ATOM      5  C   UNL     1     113.579 128.900 136.326  0.00  0.00    +0.000 C 
ATOM      6  C   UNL     1     114.191 129.138 135.825  0.00  0.00    +0.000 C 
ATOM      7  C   UNL     1     114.406 129.934 135.787  0.00  0.00    +0.000 C 
ATOM      8  C   UNL     1     114.010 130.491 136.248  0.00  0.00    +0.000 C 
ATOM      9  C   UNL     1     113.399 130.254 136.748  0.00  0.00    +0.000 C 
ENDROOT
BRANCH   9  10
ATOM     10  O   UNL     1     113.003 130.811 137.209  0.00  0.00    +0.000 OA
BRANCH  10  15
ATOM     11  O   UNL     1     111.721 130.475 138.944  0.00  0.00    +0.000 OA
ATOM     12  O   UNL     1     114.113 130.320 138.327  0.00  0.00    +0.000 OA
ATOM     13  O   UNL     1     114.456 129.874 139.656  0.00  0.00    +0.000 OA
ATOM     14  O   UNL     1     112.340 129.579 141.646  0.00  0.00    +0.000 OA
ATOM     15  C   UNL     1     112.761 130.617 137.974  0.00  0.00    +0.000 A 
ATOM     16  C   UNL     1     111.963 130.669 138.180  0.00  0.00    +0.000 A 
ATOM     17  C   UNL     1     113.316 130.371 138.533  0.00  0.00    +0.000 A 
ATOM     18  C   UNL     1     113.073 130.177 139.298  0.00  0.00    +0.000 A 
ATOM     19  C   UNL     1     112.276 130.229 139.503  0.00  0.00    +0.000 A 
ATOM     20  C   UNL     1     113.661 129.923 139.870  0.00  0.00    +0.000 A 
ATOM     21  C   UNL     1     112.011 130.029 140.295  0.00  0.00    +0.000 A 
ATOM     22  C   UNL     1     113.416 129.719 140.668  0.00  0.00    +0.000 A 
ATOM     23  C   UNL     1     112.585 129.773 140.882  0.00  0.00    +0.000 A 
BRANCH  16  26
ATOM     24  O   UNL     1     109.834 130.059 136.374  0.00  0.00    +0.000 OA
ATOM     25  O   UNL     1     109.744 131.649 135.943  0.00  0.00    +0.000 OA
ATOM     26  C   UNL     1     111.409 130.914 137.621  0.00  0.00    +0.000 A 
ATOM     27  C   UNL     1     110.899 130.364 137.277  0.00  0.00    +0.000 A 
ATOM     28  C   UNL     1     111.364 131.709 137.405  0.00  0.00    +0.000 A 
ATOM     29  C   UNL     1     110.344 130.609 136.718  0.00  0.00    +0.000 A 
ATOM     30  C   UNL     1     110.809 131.954 136.845  0.00  0.00    +0.000 A 
ATOM     31  C   UNL     1     110.299 131.404 136.502  0.00  0.00    +0.000 A 
ENDBRANCH  16  26
ENDBRANCH  10  15
ENDBRANCH   9  10
BRANCH   5  32
ATOM     32  C   UNL     1     113.364 128.105 136.364  0.00  0.00    +0.000 C 
BRANCH  32  33
ATOM     33  O   UNL     1     112.582 127.881 136.224  0.00  0.00    +0.000 OA
BRANCH  33  39
ATOM     34  O   UNL     1     112.647 126.695 137.018  0.00  0.00    +0.000 OA
ATOM     35  O   UNL     1     111.495 127.151 135.220  0.00  0.00    +0.000 OA
ATOM     36  C   UNL     1     111.560 125.964 136.014  0.00  0.00    +0.000 C 
ATOM     37  C   UNL     1     111.800 126.740 135.869  0.00  0.00    +0.000 C 
ATOM     38  C   UNL     1     111.865 125.553 136.662  0.00  0.00    +0.000 C 
ATOM     39  C   UNL     1     112.343 127.105 136.370  0.00  0.00    +0.000 C 
ATOM     40  C   UNL     1     112.408 125.919 137.164  0.00  0.00    +0.000 C 
ATOM     41  C   UNL     1     112.712 125.508 137.811  0.00  0.00    +0.000 C 
BRANCH  36  42
ATOM     42  O   UNL     1     111.017 125.599 135.512  0.00  0.00    +0.000 OA
BRANCH  42  44
ATOM     43  O   UNL     1     109.816 126.063 136.133  0.00  0.00    +0.000 OA
ATOM     44  C   UNL     1     110.248 125.894 135.452  0.00  0.00    +0.000 C 
ATOM     45  C   UNL     1     109.913 126.021 134.709  0.00  0.00    +0.000 C 
ENDBRANCH  42  44
ENDBRANCH  36  42
BRANCH  38  46
ATOM     46  O   UNL     1     111.625 124.778 136.808  0.00  0.00    +0.000 OA
BRANCH  46  48
ATOM     47  O   UNL     1     112.746 124.201 136.133  0.00  0.00    +0.000 OA
ATOM     48  C   UNL     1     112.160 124.156 136.713  0.00  0.00    +0.000 C 
ATOM     49  C   UNL     1     112.109 123.491 137.199  0.00  0.00    +0.000 C 
ENDBRANCH  46  48
ENDBRANCH  38  46
ENDBRANCH  33  39
ENDBRANCH  32  33
ENDBRANCH   5  32
TORSDOF 10
ENDMDL
MODEL 4
REMARK VINA RESULT:      -9.8      1.644      5.225
REMARK  Name = 44259307
REMARK  10 active torsions:
REMARK  status: ('A' for Active; 'I' for Inactive)
REMARK    1  A    between atoms: O_3  and  C_24
REMARK    2  A    between atoms: O_3  and  C_28
REMARK    3  A    between atoms: O_4  and  C_20
REMARK    4  A    between atoms: O_4  and  C_32
REMARK    5  A    between atoms: O_5  and  C_22
REMARK    6  A    between atoms: O_5  and  C_33
REMARK    7  A    between atoms: O_9  and  C_29
REMARK    8  A    between atoms: O_9  and  C_31
REMARK    9  A    between atoms: C_19  and  C_28
REMARK   10  A    between atoms: C_34  and  C_39
REMARK                            x       y       z     vdW  Elec       q    Type
REMARK                         _______ _______ _______ _____ _____    ______ ____
ROOT
ATOM      1  O   UNL     1     111.420 126.610 136.350  0.00  0.00    +0.000 OA
ATOM      2  O   UNL     1     110.077 127.126 134.708  0.00  0.00    +0.000 OA
ATOM      3  O   UNL     1     110.046 125.478 134.630  0.00  0.00    +0.000 OA
ATOM      4  O   UNL     1     110.931 124.585 135.699  0.00  0.00    +0.000 OA
ATOM      5  C   UNL     1     110.978 127.057 135.816  0.00  0.00    +0.000 C 
ATOM      6  C   UNL     1     110.519 126.679 135.242  0.00  0.00    +0.000 C 
ATOM      7  C   UNL     1     110.504 125.855 135.204  0.00  0.00    +0.000 C 
ATOM      8  C   UNL     1     110.947 125.409 135.738  0.00  0.00    +0.000 C 
ATOM      9  C   UNL     1     111.404 125.786 136.311  0.00  0.00    +0.000 C 
ENDROOT
BRANCH   9  10
ATOM     10  O   UNL     1     111.847 125.340 136.845  0.00  0.00    +0.000 OA
BRANCH  10  15
ATOM     11  O   UNL     1     112.914 126.026 138.621  0.00  0.00    +0.000 OA
ATOM     12  O   UNL     1     110.586 125.704 137.845  0.00  0.00    +0.000 OA
ATOM     13  O   UNL     1     110.070 126.178 139.107  0.00  0.00    +0.000 OA
ATOM     14  O   UNL     1     111.944 126.991 141.193  0.00  0.00    +0.000 OA
ATOM     15  C   UNL     1     111.993 125.630 137.604  0.00  0.00    +0.000 A 
ATOM     16  C   UNL     1     112.769 125.737 137.863  0.00  0.00    +0.000 A 
ATOM     17  C   UNL     1     111.362 125.812 138.104  0.00  0.00    +0.000 A 
ATOM     18  C   UNL     1     111.508 126.102 138.863  0.00  0.00    +0.000 A 
ATOM     19  C   UNL     1     112.284 126.209 139.122  0.00  0.00    +0.000 A 
ATOM     20  C   UNL     1     110.843 126.288 139.374  0.00  0.00    +0.000 A 
ATOM     21  C   UNL     1     112.448 126.510 139.909  0.00  0.00    +0.000 A 
ATOM     22  C   UNL     1     110.987 126.590 140.165  0.00  0.00    +0.000 A 
ATOM     23  C   UNL     1     111.796 126.702 140.435  0.00  0.00    +0.000 A 
BRANCH  16  26
ATOM     24  O   UNL     1     114.866 126.583 136.116  0.00  0.00    +0.000 OA
ATOM     25  O   UNL     1     115.289 125.009 135.861  0.00  0.00    +0.000 OA
ATOM     26  C   UNL     1     113.399 125.554 137.363  0.00  0.00    +0.000 A 
ATOM     27  C   UNL     1     113.817 126.159 136.989  0.00  0.00    +0.000 A 
ATOM     28  C   UNL     1     113.611 124.768 137.235  0.00  0.00    +0.000 A 
ATOM     29  C   UNL     1     114.447 125.978 136.489  0.00  0.00    +0.000 A 
ATOM     30  C   UNL     1     114.241 124.585 136.735  0.00  0.00    +0.000 A 
ATOM     31  C   UNL     1     114.659 125.190 136.362  0.00  0.00    +0.000 A 
ENDBRANCH  16  26
ENDBRANCH  10  15
ENDBRANCH   9  10
BRANCH   5  32
ATOM     32  C   UNL     1     110.993 127.881 135.854  0.00  0.00    +0.000 C 
BRANCH  32  33
ATOM     33  O   UNL     1     111.703 128.275 135.997  0.00  0.00    +0.000 OA
BRANCH  33  39
ATOM     34  O   UNL     1     111.076 129.223 136.862  0.00  0.00    +0.000 OA
ATOM     35  O   UNL     1     112.940 129.334 135.733  0.00  0.00    +0.000 OA
ATOM     36  C   UNL     1     112.313 130.282 136.598  0.00  0.00    +0.000 C 
ATOM     37  C   UNL     1     112.317 129.543 136.232  0.00  0.00    +0.000 C 
ATOM     38  C   UNL     1     111.689 130.491 137.098  0.00  0.00    +0.000 C 
ATOM     39  C   UNL     1     111.698 129.014 136.364  0.00  0.00    +0.000 C 
ATOM     40  C   UNL     1     111.071 129.962 137.230  0.00  0.00    +0.000 C 
ATOM     41  C   UNL     1     110.448 130.171 137.728  0.00  0.00    +0.000 C 
BRANCH  36  42
ATOM     42  O   UNL     1     112.931 130.812 136.466  0.00  0.00    +0.000 OA
BRANCH  42  44
ATOM     43  O   UNL     1     113.824 130.418 137.510  0.00  0.00    +0.000 OA
ATOM     44  C   UNL     1     113.693 130.628 136.724  0.00  0.00    +0.000 C 
ATOM     45  C   UNL     1     114.325 130.655 136.194  0.00  0.00    +0.000 C 
ENDBRANCH  42  44
ENDBRANCH  36  42
BRANCH  38  46
ATOM     46  O   UNL     1     111.685 131.230 137.464  0.00  0.00    +0.000 OA
BRANCH  46  48
ATOM     47  O   UNL     1     110.942 131.963 136.487  0.00  0.00    +0.000 OA
ATOM     48  C   UNL     1     111.099 131.780 137.276  0.00  0.00    +0.000 C 
ATOM     49  C   UNL     1     110.670 132.147 137.878  0.00  0.00    +0.000 C 
ENDBRANCH  46  48
ENDBRANCH  38  46
ENDBRANCH  33  39
ENDBRANCH  32  33
ENDBRANCH   5  32
TORSDOF 10
ENDMDL
MODEL 5
REMARK VINA RESULT:      -9.7      1.628      5.578
REMARK  Name = 44259307
REMARK  10 active torsions:
REMARK  status: ('A' for Active; 'I' for Inactive)
REMARK    1  A    between atoms: O_3  and  C_24
REMARK    2  A    between atoms: O_3  and  C_28
REMARK    3  A    between atoms: O_4  and  C_20
REMARK    4  A    between atoms: O_4  and  C_32
REMARK    5  A    between atoms: O_5  and  C_22
REMARK    6  A    between atoms: O_5  and  C_33
REMARK    7  A    between atoms: O_9  and  C_29
REMARK    8  A    between atoms: O_9  and  C_31
REMARK    9  A    between atoms: C_19  and  C_28
REMARK   10  A    between atoms: C_34  and  C_39
REMARK                            x       y       z     vdW  Elec       q    Type
REMARK                         _______ _______ _______ _____ _____    ______ ____
ROOT
ATOM      1  O   UNL     1     111.499 127.159 137.777  0.00  0.00    +0.000 OA
ATOM      2  O   UNL     1     111.538 125.816 139.498  0.00  0.00    +0.000 OA
ATOM      3  O   UNL     1     111.123 124.768 138.294  0.00  0.00    +0.000 OA
ATOM      4  O   UNL     1     110.959 125.313 136.745  0.00  0.00    +0.000 OA
ATOM      5  C   UNL     1     111.581 126.887 138.551  0.00  0.00    +0.000 C 
ATOM      6  C   UNL     1     111.456 126.089 138.724  0.00  0.00    +0.000 C 
ATOM      7  C   UNL     1     111.249 125.565 138.121  0.00  0.00    +0.000 C 
ATOM      8  C   UNL     1     111.167 125.838 137.347  0.00  0.00    +0.000 C 
ATOM      9  C   UNL     1     111.292 126.634 137.175  0.00  0.00    +0.000 C 
ENDROOT
BRANCH   9  10
ATOM     10  O   UNL     1     111.210 126.907 136.401  0.00  0.00    +0.000 OA
BRANCH  10  15
ATOM     11  O   UNL     1     111.789 128.846 135.583  0.00  0.00    +0.000 OA
ATOM     12  O   UNL     1     112.855 126.776 136.423  0.00  0.00    +0.000 OA
ATOM     13  O   UNL     1     114.169 127.317 136.171  0.00  0.00    +0.000 OA
ATOM     14  O   UNL     1     114.409 130.002 135.049  0.00  0.00    +0.000 OA
ATOM     15  C   UNL     1     111.677 127.532 136.131  0.00  0.00    +0.000 A 
ATOM     16  C   UNL     1     111.322 128.222 135.852  0.00  0.00    +0.000 A 
ATOM     17  C   UNL     1     112.500 127.466 136.143  0.00  0.00    +0.000 A 
ATOM     18  C   UNL     1     112.967 128.091 135.873  0.00  0.00    +0.000 A 
ATOM     19  C   UNL     1     112.612 128.781 135.593  0.00  0.00    +0.000 A 
ATOM     20  C   UNL     1     113.822 128.011 135.890  0.00  0.00    +0.000 A 
ATOM     21  C   UNL     1     113.087 129.438 135.310  0.00  0.00    +0.000 A 
ATOM     22  C   UNL     1     114.315 128.657 135.611  0.00  0.00    +0.000 A 
ATOM     23  C   UNL     1     113.944 129.376 135.319  0.00  0.00    +0.000 A 
BRANCH  16  26
ATOM     24  O   UNL     1     108.912 129.304 136.941  0.00  0.00    +0.000 OA
ATOM     25  O   UNL     1     108.033 128.483 135.811  0.00  0.00    +0.000 OA
ATOM     26  C   UNL     1     110.500 128.287 135.841  0.00  0.00    +0.000 A 
ATOM     27  C   UNL     1     110.117 128.763 136.396  0.00  0.00    +0.000 A 
ATOM     28  C   UNL     1     110.060 127.877 135.277  0.00  0.00    +0.000 A 
ATOM     29  C   UNL     1     109.295 128.828 136.386  0.00  0.00    +0.000 A 
ATOM     30  C   UNL     1     109.238 127.941 135.266  0.00  0.00    +0.000 A 
ATOM     31  C   UNL     1     108.855 128.417 135.821  0.00  0.00    +0.000 A 
ENDBRANCH  16  26
ENDBRANCH  10  15
ENDBRANCH   9  10
BRANCH   5  32
ATOM     32  C   UNL     1     111.788 127.411 139.154  0.00  0.00    +0.000 C 
BRANCH  32  33
ATOM     33  O   UNL     1     111.383 128.124 139.239  0.00  0.00    +0.000 OA
BRANCH  33  39
ATOM     34  O   UNL     1     112.559 128.877 139.541  0.00  0.00    +0.000 OA
ATOM     35  O   UNL     1     110.481 129.172 140.140  0.00  0.00    +0.000 OA
ATOM     36  C   UNL     1     111.657 129.924 140.442  0.00  0.00    +0.000 C 
ATOM     37  C   UNL     1     111.295 129.286 140.065  0.00  0.00    +0.000 C 
ATOM     38  C   UNL     1     112.472 130.039 140.368  0.00  0.00    +0.000 C 
ATOM     39  C   UNL     1     111.746 128.762 139.615  0.00  0.00    +0.000 C 
ATOM     40  C   UNL     1     112.923 129.515 139.917  0.00  0.00    +0.000 C 
ATOM     41  C   UNL     1     113.736 129.630 139.843  0.00  0.00    +0.000 C 
BRANCH  36  42
ATOM     42  O   UNL     1     111.206 130.448 140.892  0.00  0.00    +0.000 OA
BRANCH  42  44
ATOM     43  O   UNL     1     110.817 131.383 139.884  0.00  0.00    +0.000 OA
ATOM     44  C   UNL     1     110.625 130.908 140.530  0.00  0.00    +0.000 C 
ATOM     45  C   UNL     1     109.850 130.892 140.814  0.00  0.00    +0.000 C 
ENDBRANCH  42  44
ENDBRANCH  36  42
BRANCH  38  46
ATOM     46  O   UNL     1     112.834 130.677 140.744  0.00  0.00    +0.000 OA
BRANCH  46  48
ATOM     47  O   UNL     1     113.129 130.074 142.006  0.00  0.00    +0.000 OA
ATOM     48  C   UNL     1     113.358 130.545 141.368  0.00  0.00    +0.000 C 
ATOM     49  C   UNL     1     114.110 130.882 141.353  0.00  0.00    +0.000 C 
ENDBRANCH  46  48
ENDBRANCH  38  46
ENDBRANCH  33  39
ENDBRANCH  32  33
ENDBRANCH   5  32
TORSDOF 10
ENDMDL
MODEL 6
REMARK VINA RESULT:      -9.7      1.420      5.336
REMARK  Name = 44259307
REMARK  10 active torsions:
REMARK  status: ('A' for Active; 'I' for Inactive)
REMARK    1  A    between atoms: O_3  and  C_24
REMARK    2  A    between atoms: O_3  and  C_28
REMARK    3  A    between atoms: O_4  and  C_20
REMARK    4  A    between atoms: O_4  and  C_32
REMARK    5  A    between atoms: O_5  and  C_22
REMARK    6  A    between atoms: O_5  and  C_33
REMARK    7  A    between atoms: O_9  and  C_29
REMARK    8  A    between atoms: O_9  and  C_31
REMARK    9  A    between atoms: C_19  and  C_28
REMARK   10  A    between atoms: C_34  and  C_39
REMARK                            x       y       z     vdW  Elec       q    Type
REMARK                         _______ _______ _______ _____ _____    ______ ____
ROOT
ATOM      1  O   UNL     1     111.977 129.218 136.880  0.00  0.00    +0.000 OA
ATOM      2  O   UNL     1     110.152 130.260 137.475  0.00  0.00    +0.000 OA
ATOM      3  O   UNL     1     109.968 130.222 135.836  0.00  0.00    +0.000 OA
ATOM      4  O   UNL     1     111.123 129.515 134.892  0.00  0.00    +0.000 OA
ATOM      5  C   UNL     1     111.399 129.572 137.351  0.00  0.00    +0.000 C 
ATOM      6  C   UNL     1     110.730 129.907 137.003  0.00  0.00    +0.000 C 
ATOM      7  C   UNL     1     110.638 129.887 136.184  0.00  0.00    +0.000 C 
ATOM      8  C   UNL     1     111.215 129.533 135.712  0.00  0.00    +0.000 C 
ATOM      9  C   UNL     1     111.884 129.199 136.060  0.00  0.00    +0.000 C 
ENDROOT
BRANCH   9  10
ATOM     10  O   UNL     1     112.461 128.846 135.588  0.00  0.00    +0.000 OA
BRANCH  10  15
ATOM     11  O   UNL     1     114.142 127.597 136.204  0.00  0.00    +0.000 OA
ATOM     12  O   UNL     1     111.673 127.479 136.072  0.00  0.00    +0.000 OA
ATOM     13  O   UNL     1     111.680 126.137 136.603  0.00  0.00    +0.000 OA
ATOM     14  O   UNL     1     114.232 124.891 137.281  0.00  0.00    +0.000 OA
ATOM     15  C   UNL     1     112.890 128.201 135.874  0.00  0.00    +0.000 A 
ATOM     16  C   UNL     1     113.713 128.240 135.919  0.00  0.00    +0.000 A 
ATOM     17  C   UNL     1     112.496 127.518 136.116  0.00  0.00    +0.000 A 
ATOM     18  C   UNL     1     112.925 126.874 136.402  0.00  0.00    +0.000 A 
ATOM     19  C   UNL     1     113.748 126.913 136.446  0.00  0.00    +0.000 A 
ATOM     20  C   UNL     1     112.503 126.168 136.651  0.00  0.00    +0.000 A 
ATOM     21  C   UNL     1     114.206 126.249 136.742  0.00  0.00    +0.000 A 
ATOM     22  C   UNL     1     112.943 125.493 136.949  0.00  0.00    +0.000 A 
ATOM     23  C   UNL     1     113.801 125.534 136.996  0.00  0.00    +0.000 A 
BRANCH  16  26
ATOM     24  O   UNL     1     115.097 130.657 136.562  0.00  0.00    +0.000 OA
ATOM     25  O   UNL     1     115.288 130.976 134.954  0.00  0.00    +0.000 OA
ATOM     26  C   UNL     1     114.107 128.924 135.677  0.00  0.00    +0.000 A 
ATOM     27  C   UNL     1     114.405 129.449 136.239  0.00  0.00    +0.000 A 
ATOM     28  C   UNL     1     114.202 129.084 134.874  0.00  0.00    +0.000 A 
ATOM     29  C   UNL     1     114.799 130.132 135.999  0.00  0.00    +0.000 A 
ATOM     30  C   UNL     1     114.596 129.767 134.632  0.00  0.00    +0.000 A 
ATOM     31  C   UNL     1     114.894 130.292 135.194  0.00  0.00    +0.000 A 
ENDBRANCH  16  26
ENDBRANCH  10  15
ENDBRANCH   9  10
BRANCH   5  32
ATOM     32  C   UNL     1     111.491 129.592 138.171  0.00  0.00    +0.000 C 
BRANCH  32  33
ATOM     33  O   UNL     1     112.207 129.835 138.501  0.00  0.00    +0.000 OA
BRANCH  33  39
ATOM     34  O   UNL     1     111.902 129.179 139.733  0.00  0.00    +0.000 OA
ATOM     35  O   UNL     1     113.380 130.713 139.259  0.00  0.00    +0.000 OA
ATOM     36  C   UNL     1     113.075 130.057 140.491  0.00  0.00    +0.000 C 
ATOM     37  C   UNL     1     112.934 130.165 139.686  0.00  0.00    +0.000 C 
ATOM     38  C   UNL     1     112.629 129.509 140.918  0.00  0.00    +0.000 C 
ATOM     39  C   UNL     1     112.347 129.726 139.307  0.00  0.00    +0.000 C 
ATOM     40  C   UNL     1     112.042 129.070 140.539  0.00  0.00    +0.000 C 
ATOM     41  C   UNL     1     111.596 128.523 140.966  0.00  0.00    +0.000 C 
BRANCH  36  42
ATOM     42  O   UNL     1     113.662 130.496 140.870  0.00  0.00    +0.000 OA
BRANCH  42  44
ATOM     43  O   UNL     1     114.768 129.625 140.626  0.00  0.00    +0.000 OA
ATOM     44  C   UNL     1     114.455 130.386 140.667  0.00  0.00    +0.000 C 
ATOM     45  C   UNL     1     114.933 131.038 140.506  0.00  0.00    +0.000 C 
ENDBRANCH  42  44
ENDBRANCH  36  42
BRANCH  38  46
ATOM     46  O   UNL     1     112.770 129.401 141.724  0.00  0.00    +0.000 OA
BRANCH  46  48
ATOM     47  O   UNL     1     111.899 130.397 142.266  0.00  0.00    +0.000 OA
ATOM     48  C   UNL     1     112.200 129.629 142.276  0.00  0.00    +0.000 C 
ATOM     49  C   UNL     1     111.933 129.087 142.838  0.00  0.00    +0.000 C 
ENDBRANCH  46  48
ENDBRANCH  38  46
ENDBRANCH  33  39
ENDBRANCH  32  33
ENDBRANCH   5  32
TORSDOF 10
ENDMDL
MODEL 7
REMARK VINA RESULT:      -9.7      2.265      4.848
REMARK  Name = 44259307
REMARK  10 active torsions:
REMARK  status: ('A' for Active; 'I' for Inactive)
REMARK    1  A    between atoms: O_3  and  C_24
REMARK    2  A    between atoms: O_3  and  C_28
REMARK    3  A    between atoms: O_4  and  C_20
REMARK    4  A    between atoms: O_4  and  C_32
REMARK    5  A    between atoms: O_5  and  C_22
REMARK    6  A    between atoms: O_5  and  C_33
REMARK    7  A    between atoms: O_9  and  C_29
REMARK    8  A    between atoms: O_9  and  C_31
REMARK    9  A    between atoms: C_19  and  C_28
REMARK   10  A    between atoms: C_34  and  C_39
REMARK                            x       y       z     vdW  Elec       q    Type
REMARK                         _______ _______ _______ _____ _____    ______ ____
ROOT
ATOM      1  O   UNL     1     111.053 130.579 138.087  0.00  0.00    +0.000 OA
ATOM      2  O   UNL     1     110.669 131.742 139.895  0.00  0.00    +0.000 OA
ATOM      3  O   UNL     1     110.085 132.763 138.737  0.00  0.00    +0.000 OA
ATOM      4  O   UNL     1     110.146 132.329 137.147  0.00  0.00    +0.000 OA
ATOM      5  C   UNL     1     111.023 130.797 138.882  0.00  0.00    +0.000 C 
ATOM      6  C   UNL     1     110.700 131.525 139.099  0.00  0.00    +0.000 C 
ATOM      7  C   UNL     1     110.408 132.035 138.520  0.00  0.00    +0.000 C 
ATOM      8  C   UNL     1     110.439 131.818 137.725  0.00  0.00    +0.000 C 
ATOM      9  C   UNL     1     110.761 131.091 137.509  0.00  0.00    +0.000 C 
ENDROOT
BRANCH   9  10
ATOM     10  O   UNL     1     110.792 130.873 136.713  0.00  0.00    +0.000 OA
BRANCH  10  15
ATOM     11  O   UNL     1     111.825 129.175 135.812  0.00  0.00    +0.000 OA
ATOM     12  O   UNL     1     112.365 131.337 136.889  0.00  0.00    +0.000 OA
ATOM     13  O   UNL     1     113.779 131.102 136.715  0.00  0.00    +0.000 OA
ATOM     14  O   UNL     1     114.662 128.634 135.429  0.00  0.00    +0.000 OA
ATOM     15  C   UNL     1     111.399 130.384 136.442  0.00  0.00    +0.000 A 
ATOM     16  C   UNL     1     111.219 129.663 136.083  0.00  0.00    +0.000 A 
ATOM     17  C   UNL     1     112.185 130.616 136.530  0.00  0.00    +0.000 A 
ATOM     18  C   UNL     1     112.792 130.127 136.258  0.00  0.00    +0.000 A 
ATOM     19  C   UNL     1     112.612 129.406 135.899  0.00  0.00    +0.000 A 
ATOM     20  C   UNL     1     113.607 130.380 136.356  0.00  0.00    +0.000 A 
ATOM     21  C   UNL     1     113.235 128.889 135.613  0.00  0.00    +0.000 A 
ATOM     22  C   UNL     1     114.245 129.876 136.075  0.00  0.00    +0.000 A 
ATOM     23  C   UNL     1     114.057 129.124 135.701  0.00  0.00    +0.000 A 
BRANCH  16  26
ATOM     24  O   UNL     1     109.018 128.025 136.884  0.00  0.00    +0.000 OA
ATOM     25  O   UNL     1     108.070 128.736 135.736  0.00  0.00    +0.000 OA
ATOM     26  C   UNL     1     110.431 129.432 135.996  0.00  0.00    +0.000 A 
ATOM     27  C   UNL     1     110.118 128.845 136.483  0.00  0.00    +0.000 A 
ATOM     28  C   UNL     1     109.958 129.787 135.422  0.00  0.00    +0.000 A 
ATOM     29  C   UNL     1     109.331 128.612 136.396  0.00  0.00    +0.000 A 
ATOM     30  C   UNL     1     109.170 129.556 135.335  0.00  0.00    +0.000 A 
ATOM     31  C   UNL     1     108.857 128.969 135.822  0.00  0.00    +0.000 A 
ENDBRANCH  16  26
ENDBRANCH  10  15
ENDBRANCH   9  10
BRANCH   5  32
ATOM     32  C   UNL     1     111.315 130.287 139.461  0.00  0.00    +0.000 C 
BRANCH  32  33
ATOM     33  O   UNL     1     111.210 129.472 139.384  0.00  0.00    +0.000 OA
BRANCH  33  39
ATOM     34  O   UNL     1     112.487 129.159 139.945  0.00  0.00    +0.000 OA
ATOM     35  O   UNL     1     110.625 128.020 139.907  0.00  0.00    +0.000 OA
ATOM     36  C   UNL     1     111.902 127.707 140.467  0.00  0.00    +0.000 C 
ATOM     37  C   UNL     1     111.411 128.227 140.056  0.00  0.00    +0.000 C 
ATOM     38  C   UNL     1     112.687 127.914 140.617  0.00  0.00    +0.000 C 
ATOM     39  C   UNL     1     111.703 128.953 139.795  0.00  0.00    +0.000 C 
ATOM     40  C   UNL     1     112.980 128.640 140.356  0.00  0.00    +0.000 C 
ATOM     41  C   UNL     1     113.764 128.847 140.505  0.00  0.00    +0.000 C 
BRANCH  36  42
ATOM     42  O   UNL     1     111.610 126.982 140.729  0.00  0.00    +0.000 OA
BRANCH  42  44
ATOM     43  O   UNL     1     111.108 127.329 142.021  0.00  0.00    +0.000 OA
ATOM     44  C   UNL     1     111.006 126.959 141.291  0.00  0.00    +0.000 C 
ATOM     45  C   UNL     1     110.301 126.566 141.123  0.00  0.00    +0.000 C 
ENDBRANCH  42  44
ENDBRANCH  36  42
BRANCH  38  46
ATOM     46  O   UNL     1     113.179 127.395 141.028  0.00  0.00    +0.000 OA
BRANCH  46  48
ATOM     47  O   UNL     1     113.728 126.660 139.932  0.00  0.00    +0.000 OA
ATOM     48  C   UNL     1     113.829 127.056 140.649  0.00  0.00    +0.000 C 
ATOM     49  C   UNL     1     114.579 127.113 140.987  0.00  0.00    +0.000 C 
ENDBRANCH  46  48
ENDBRANCH  38  46
ENDBRANCH  33  39
ENDBRANCH  32  33
ENDBRANCH   5  32
TORSDOF 10
ENDMDL
MODEL 8
REMARK VINA RESULT:      -9.7      2.204      4.682
REMARK  Name = 44259307
REMARK  10 active torsions:
REMARK  status: ('A' for Active; 'I' for Inactive)
REMARK    1  A    between atoms: O_3  and  C_24
REMARK    2  A    between atoms: O_3  and  C_28
REMARK    3  A    between atoms: O_4  and  C_20
REMARK    4  A    between atoms: O_4  and  C_32
REMARK    5  A    between atoms: O_5  and  C_22
REMARK    6  A    between atoms: O_5  and  C_33
REMARK    7  A    between atoms: O_9  and  C_29
REMARK    8  A    between atoms: O_9  and  C_31
REMARK    9  A    between atoms: C_19  and  C_28
REMARK   10  A    between atoms: C_34  and  C_39
REMARK                            x       y       z     vdW  Elec       q    Type
REMARK                         _______ _______ _______ _____ _____    ______ ____
ROOT
ATOM      1  O   UNL     1     110.690 129.096 137.315  0.00  0.00    +0.000 OA
ATOM      2  O   UNL     1     109.409 127.341 137.529  0.00  0.00    +0.000 OA
ATOM      3  O   UNL     1     108.657 128.126 136.288  0.00  0.00    +0.000 OA
ATOM      4  O   UNL     1     109.260 129.557 135.731  0.00  0.00    +0.000 OA
ATOM      5  C   UNL     1     110.388 128.381 137.593  0.00  0.00    +0.000 C 
ATOM      6  C   UNL     1     109.710 128.057 137.251  0.00  0.00    +0.000 C 
ATOM      7  C   UNL     1     109.335 128.450 136.630  0.00  0.00    +0.000 C 
ATOM      8  C   UNL     1     109.636 129.165 136.352  0.00  0.00    +0.000 C 
ATOM      9  C   UNL     1     110.313 129.488 136.694  0.00  0.00    +0.000 C 
ENDROOT
BRANCH   9  10
ATOM     10  O   UNL     1     110.615 130.204 136.416  0.00  0.00    +0.000 OA
BRANCH  10  15
ATOM     11  O   UNL     1     112.517 131.153 136.909  0.00  0.00    +0.000 OA
ATOM     12  O   UNL     1     111.674 129.197 135.650  0.00  0.00    +0.000 OA
ATOM     13  O   UNL     1     113.018 128.816 135.286  0.00  0.00    +0.000 OA
ATOM     14  O   UNL     1     115.256 130.445 136.214  0.00  0.00    +0.000 OA
ATOM     15  C   UNL     1     111.426 130.353 136.453  0.00  0.00    +0.000 A 
ATOM     16  C   UNL     1     111.707 131.005 136.873  0.00  0.00    +0.000 A 
ATOM     17  C   UNL     1     111.955 129.849 136.070  0.00  0.00    +0.000 A 
ATOM     18  C   UNL     1     112.766 129.998 136.107  0.00  0.00    +0.000 A 
ATOM     19  C   UNL     1     113.048 130.650 136.527  0.00  0.00    +0.000 A 
ATOM     20  C   UNL     1     113.307 129.466 135.704  0.00  0.00    +0.000 A 
ATOM     21  C   UNL     1     113.889 130.815 136.573  0.00  0.00    +0.000 A 
ATOM     22  C   UNL     1     114.153 129.614 135.738  0.00  0.00    +0.000 A 
ATOM     23  C   UNL     1     114.446 130.294 136.176  0.00  0.00    +0.000 A 
BRANCH  16  26
ATOM     24  O   UNL     1     110.466 131.925 139.277  0.00  0.00    +0.000 OA
ATOM     25  O   UNL     1     109.588 133.017 138.406  0.00  0.00    +0.000 OA
ATOM     26  C   UNL     1     111.177 131.508 137.255  0.00  0.00    +0.000 A 
ATOM     27  C   UNL     1     111.086 131.465 138.074  0.00  0.00    +0.000 A 
ATOM     28  C   UNL     1     110.738 132.054 136.820  0.00  0.00    +0.000 A 
ATOM     29  C   UNL     1     110.557 131.968 138.458  0.00  0.00    +0.000 A 
ATOM     30  C   UNL     1     110.208 132.557 137.203  0.00  0.00    +0.000 A 
ATOM     31  C   UNL     1     110.117 132.514 138.022  0.00  0.00    +0.000 A 
ENDBRANCH  16  26
ENDBRANCH  10  15
ENDBRANCH   9  10
BRANCH   5  32
ATOM     32  C   UNL     1     110.764 127.988 138.214  0.00  0.00    +0.000 C 
BRANCH  32  33
ATOM     33  O   UNL     1     110.944 128.392 138.910  0.00  0.00    +0.000 OA
BRANCH  33  39
ATOM     34  O   UNL     1     112.148 127.652 139.119  0.00  0.00    +0.000 OA
ATOM     35  O   UNL     1     110.856 128.705 140.528  0.00  0.00    +0.000 OA
ATOM     36  C   UNL     1     112.060 127.964 140.736  0.00  0.00    +0.000 C 
ATOM     37  C   UNL     1     111.480 128.256 140.227  0.00  0.00    +0.000 C 
ATOM     38  C   UNL     1     112.684 127.515 140.436  0.00  0.00    +0.000 C 
ATOM     39  C   UNL     1     111.524 128.100 139.418  0.00  0.00    +0.000 C 
ATOM     40  C   UNL     1     112.728 127.359 139.627  0.00  0.00    +0.000 C 
ATOM     41  C   UNL     1     113.352 126.911 139.327  0.00  0.00    +0.000 C 
BRANCH  36  42
ATOM     42  O   UNL     1     112.016 128.120 141.545  0.00  0.00    +0.000 OA
BRANCH  42  44
ATOM     43  O   UNL     1     111.175 127.041 141.958  0.00  0.00    +0.000 OA
ATOM     44  C   UNL     1     111.377 127.840 141.985  0.00  0.00    +0.000 C 
ATOM     45  C   UNL     1     110.938 128.360 142.452  0.00  0.00    +0.000 C 
ENDBRANCH  42  44
ENDBRANCH  36  42
BRANCH  38  46
ATOM     46  O   UNL     1     113.264 127.223 140.945  0.00  0.00    +0.000 OA
BRANCH  46  48
ATOM     47  O   UNL     1     114.173 128.326 140.888  0.00  0.00    +0.000 OA
ATOM     48  C   UNL     1     114.036 127.512 140.899  0.00  0.00    +0.000 C 
ATOM     49  C   UNL     1     114.671 126.986 140.864  0.00  0.00    +0.000 C 
ENDBRANCH  46  48
ENDBRANCH  38  46
ENDBRANCH  33  39
ENDBRANCH  32  33
ENDBRANCH   5  32
TORSDOF 10
ENDMDL
MODEL 9
REMARK VINA RESULT:      -9.7      2.127      5.048
REMARK  Name = 44259307
REMARK  10 active torsions:
REMARK  status: ('A' for Active; 'I' for Inactive)
REMARK    1  A    between atoms: O_3  and  C_24
REMARK    2  A    between atoms: O_3  and  C_28
REMARK    3  A    between atoms: O_4  and  C_20
REMARK    4  A    between atoms: O_4  and  C_32
REMARK    5  A    between atoms: O_5  and  C_22
REMARK    6  A    between atoms: O_5  and  C_33
REMARK    7  A    between atoms: O_9  and  C_29
REMARK    8  A    between atoms: O_9  and  C_31
REMARK    9  A    between atoms: C_19  and  C_28
REMARK   10  A    between atoms: C_34  and  C_39
REMARK                            x       y       z     vdW  Elec       q    Type
REMARK                         _______ _______ _______ _____ _____    ______ ____
ROOT
ATOM      1  O   UNL     1     110.856 127.281 139.602  0.00  0.00    +0.000 OA
ATOM      2  O   UNL     1     108.820 127.558 140.340  0.00  0.00    +0.000 OA
ATOM      3  O   UNL     1     109.441 126.567 141.504  0.00  0.00    +0.000 OA
ATOM      4  O   UNL     1     111.005 126.052 141.400  0.00  0.00    +0.000 OA
ATOM      5  C   UNL     1     110.074 127.538 139.653  0.00  0.00    +0.000 C 
ATOM      6  C   UNL     1     109.602 127.300 140.288  0.00  0.00    +0.000 C 
ATOM      7  C   UNL     1     109.913 126.805 140.869  0.00  0.00    +0.000 C 
ATOM      8  C   UNL     1     110.695 126.548 140.818  0.00  0.00    +0.000 C 
ATOM      9  C   UNL     1     111.166 126.785 140.184  0.00  0.00    +0.000 C 
ENDROOT
BRANCH   9  10
ATOM     10  O   UNL     1     111.948 126.528 140.132  0.00  0.00    +0.000 OA
BRANCH  10  15
ATOM     11  O   UNL     1     113.268 126.571 138.394  0.00  0.00    +0.000 OA
ATOM     12  O   UNL     1     111.270 125.350 139.196  0.00  0.00    +0.000 OA
ATOM     13  O   UNL     1     111.234 124.559 137.990  0.00  0.00    +0.000 OA
ATOM     14  O   UNL     1     113.258 125.011 135.934  0.00  0.00    +0.000 OA
ATOM     15  C   UNL     1     112.275 126.346 139.396  0.00  0.00    +0.000 A 
ATOM     16  C   UNL     1     112.941 126.753 139.129  0.00  0.00    +0.000 A 
ATOM     17  C   UNL     1     111.936 125.757 138.929  0.00  0.00    +0.000 A 
ATOM     18  C   UNL     1     112.263 125.576 138.192  0.00  0.00    +0.000 A 
ATOM     19  C   UNL     1     112.929 125.983 137.925  0.00  0.00    +0.000 A 
ATOM     20  C   UNL     1     111.900 124.961 137.715  0.00  0.00    +0.000 A 
ATOM     21  C   UNL     1     113.278 125.803 137.161  0.00  0.00    +0.000 A 
ATOM     22  C   UNL     1     112.235 124.767 136.947  0.00  0.00    +0.000 A 
ATOM     23  C   UNL     1     112.929 125.191 136.669  0.00  0.00    +0.000 A 
BRANCH  16  26
ATOM     24  O   UNL     1     113.412 129.519 139.670  0.00  0.00    +0.000 OA
ATOM     25  O   UNL     1     114.296 129.109 141.002  0.00  0.00    +0.000 OA
ATOM     26  C   UNL     1     113.280 127.342 139.597  0.00  0.00    +0.000 A 
ATOM     27  C   UNL     1     113.177 128.136 139.400  0.00  0.00    +0.000 A 
ATOM     28  C   UNL     1     113.722 127.136 140.263  0.00  0.00    +0.000 A 
ATOM     29  C   UNL     1     113.515 128.725 139.868  0.00  0.00    +0.000 A 
ATOM     30  C   UNL     1     114.061 127.725 140.731  0.00  0.00    +0.000 A 
ATOM     31  C   UNL     1     113.957 128.519 140.534  0.00  0.00    +0.000 A 
ENDBRANCH  16  26
ENDBRANCH  10  15
ENDBRANCH   9  10
BRANCH   5  32
ATOM     32  C   UNL     1     109.763 128.034 139.072  0.00  0.00    +0.000 C 
BRANCH  32  33
ATOM     33  O   UNL     1     109.648 127.750 138.306  0.00  0.00    +0.000 OA
BRANCH  33  39
ATOM     34  O   UNL     1     109.460 129.084 137.831  0.00  0.00    +0.000 OA
ATOM     35  O   UNL     1     109.648 127.197 136.751  0.00  0.00    +0.000 OA
ATOM     36  C   UNL     1     109.459 128.531 136.276  0.00  0.00    +0.000 C 
ATOM     37  C   UNL     1     109.554 128.003 136.903  0.00  0.00    +0.000 C 
ATOM     38  C   UNL     1     109.365 129.337 136.428  0.00  0.00    +0.000 C 
ATOM     39  C   UNL     1     109.554 128.279 137.680  0.00  0.00    +0.000 C 
ATOM     40  C   UNL     1     109.365 129.614 137.205  0.00  0.00    +0.000 C 
ATOM     41  C   UNL     1     109.271 130.419 137.356  0.00  0.00    +0.000 C 
BRANCH  36  42
ATOM     42  O   UNL     1     109.459 128.255 135.499  0.00  0.00    +0.000 OA
BRANCH  42  44
ATOM     43  O   UNL     1     110.864 128.270 135.238  0.00  0.00    +0.000 OA
ATOM     44  C   UNL     1     110.133 127.892 135.191  0.00  0.00    +0.000 C 
ATOM     45  C   UNL     1     110.075 127.150 134.835  0.00  0.00    +0.000 C 
ENDBRANCH  42  44
ENDBRANCH  36  42
BRANCH  38  46
ATOM     46  O   UNL     1     109.270 129.866 135.802  0.00  0.00    +0.000 OA
BRANCH  46  48
ATOM     47  O   UNL     1     107.842 129.857 135.739  0.00  0.00    +0.000 OA
ATOM     48  C   UNL     1     108.556 130.269 135.707  0.00  0.00    +0.000 C 
ATOM     49  C   UNL     1     108.557 131.084 135.580  0.00  0.00    +0.000 C 
ENDBRANCH  46  48
ENDBRANCH  38  46
ENDBRANCH  33  39
ENDBRANCH  32  33
ENDBRANCH   5  32
TORSDOF 10
ENDMDL
MODEL 10
REMARK VINA RESULT:      -9.7      1.744      4.791
REMARK  Name = 44259307
REMARK  10 active torsions:
REMARK  status: ('A' for Active; 'I' for Inactive)
REMARK    1  A    between atoms: O_3  and  C_24
REMARK    2  A    between atoms: O_3  and  C_28
REMARK    3  A    between atoms: O_4  and  C_20
REMARK    4  A    between atoms: O_4  and  C_32
REMARK    5  A    between atoms: O_5  and  C_22
REMARK    6  A    between atoms: O_5  and  C_33
REMARK    7  A    between atoms: O_9  and  C_29
REMARK    8  A    between atoms: O_9  and  C_31
REMARK    9  A    between atoms: C_19  and  C_28
REMARK   10  A    between atoms: C_34  and  C_39
REMARK                            x       y       z     vdW  Elec       q    Type
REMARK                         _______ _______ _______ _____ _____    ______ ____
ROOT
ATOM      1  O   UNL     1     111.386 127.004 136.542  0.00  0.00    +0.000 OA
ATOM      2  O   UNL     1     111.194 124.849 136.837  0.00  0.00    +0.000 OA
ATOM      3  O   UNL     1     110.573 125.012 135.317  0.00  0.00    +0.000 OA
ATOM      4  O   UNL     1     110.494 126.503 134.613  0.00  0.00    +0.000 OA
ATOM      5  C   UNL     1     111.426 126.258 136.894  0.00  0.00    +0.000 C 
ATOM      6  C   UNL     1     111.155 125.594 136.485  0.00  0.00    +0.000 C 
ATOM      7  C   UNL     1     110.844 125.676 135.725  0.00  0.00    +0.000 C 
ATOM      8  C   UNL     1     110.805 126.422 135.374  0.00  0.00    +0.000 C 
ATOM      9  C   UNL     1     111.076 127.085 135.782  0.00  0.00    +0.000 C 
ENDROOT
BRANCH   9  10
ATOM     10  O   UNL     1     111.036 127.830 135.430  0.00  0.00    +0.000 OA
BRANCH  10  15
ATOM     11  O   UNL     1     111.764 129.733 136.212  0.00  0.00    +0.000 OA
ATOM     12  O   UNL     1     112.668 127.611 135.316  0.00  0.00    +0.000 OA
ATOM     13  O   UNL     1     114.021 128.080 135.492  0.00  0.00    +0.000 OA
ATOM     14  O   UNL     1     114.468 130.746 136.596  0.00  0.00    +0.000 OA
ATOM     15  C   UNL     1     111.551 128.429 135.672  0.00  0.00    +0.000 A 
ATOM     16  C   UNL     1     111.250 129.136 135.971  0.00  0.00    +0.000 A 
ATOM     17  C   UNL     1     112.366 128.318 135.615  0.00  0.00    +0.000 A 
ATOM     18  C   UNL     1     112.881 128.917 135.857  0.00  0.00    +0.000 A 
ATOM     19  C   UNL     1     112.580 129.624 136.156  0.00  0.00    +0.000 A 
ATOM     20  C   UNL     1     113.728 128.790 135.792  0.00  0.00    +0.000 A 
ATOM     21  C   UNL     1     113.105 130.254 136.410  0.00  0.00    +0.000 A 
ATOM     22  C   UNL     1     114.270 129.409 136.042  0.00  0.00    +0.000 A 
ATOM     23  C   UNL     1     113.956 130.146 136.353  0.00  0.00    +0.000 A 
BRANCH  16  26
ATOM     24  O   UNL     1     108.876 129.264 137.557  0.00  0.00    +0.000 OA
ATOM     25  O   UNL     1     107.987 129.572 136.201  0.00  0.00    +0.000 OA
ATOM     26  C   UNL     1     110.434 129.245 136.028  0.00  0.00    +0.000 A 
ATOM     27  C   UNL     1     110.062 129.200 136.763  0.00  0.00    +0.000 A 
ATOM     28  C   UNL     1     109.990 129.399 135.351  0.00  0.00    +0.000 A 
ATOM     29  C   UNL     1     109.247 129.309 136.821  0.00  0.00    +0.000 A 
ATOM     30  C   UNL     1     109.174 129.508 135.408  0.00  0.00    +0.000 A 
ATOM     31  C   UNL     1     108.802 129.463 136.143  0.00  0.00    +0.000 A 
ENDBRANCH  16  26
ENDBRANCH  10  15
ENDBRANCH   9  10
BRANCH   5  32
ATOM     32  C   UNL     1     111.736 126.176 137.654  0.00  0.00    +0.000 C 
BRANCH  32  33
ATOM     33  O   UNL     1     111.499 126.689 138.254  0.00  0.00    +0.000 OA
BRANCH  33  39
ATOM     34  O   UNL     1     112.761 126.589 138.916  0.00  0.00    +0.000 OA
ATOM     35  O   UNL     1     110.799 127.187 139.664  0.00  0.00    +0.000 OA
ATOM     36  C   UNL     1     112.062 127.086 140.326  0.00  0.00    +0.000 C 
ATOM     37  C   UNL     1     111.606 127.012 139.642  0.00  0.00    +0.000 C 
ATOM     38  C   UNL     1     112.868 126.911 140.304  0.00  0.00    +0.000 C 
ATOM     39  C   UNL     1     111.956 126.763 138.937  0.00  0.00    +0.000 C 
ATOM     40  C   UNL     1     113.218 126.662 139.599  0.00  0.00    +0.000 C 
ATOM     41  C   UNL     1     114.023 126.488 139.578  0.00  0.00    +0.000 C 
BRANCH  36  42
ATOM     42  O   UNL     1     111.712 127.335 141.030  0.00  0.00    +0.000 OA
BRANCH  42  44
ATOM     43  O   UNL     1     111.193 126.074 141.458  0.00  0.00    +0.000 OA
ATOM     44  C   UNL     1     111.106 126.889 141.369  0.00  0.00    +0.000 C 
ATOM     45  C   UNL     1     110.413 127.259 141.620  0.00  0.00    +0.000 C 
ENDBRANCH  42  44
ENDBRANCH  36  42
BRANCH  38  46
ATOM     46  O   UNL     1     113.324 126.985 140.988  0.00  0.00    +0.000 OA
BRANCH  46  48
ATOM     47  O   UNL     1     113.802 128.332 140.952  0.00  0.00    +0.000 OA
ATOM     48  C   UNL     1     113.951 127.523 141.009  0.00  0.00    +0.000 C 
ATOM     49  C   UNL     1     114.725 127.249 141.087  0.00  0.00    +0.000 C 
ENDBRANCH  46  48
ENDBRANCH  38  46
ENDBRANCH  33  39
ENDBRANCH  32  33
ENDBRANCH   5  32
TORSDOF 10
ENDMDL
