MODEL 1
REMARK VINA RESULT:      -7.7      0.000      0.000
REMARK  Name = 5318368
REMARK  4 active torsions:
REMARK  status: ('A' for Active; 'I' for Inactive)
REMARK    1  A    between atoms: O_2  and  C_10
REMARK    2  A    between atoms: O_3  and  C_15
REMARK    3  A    between atoms: O_6  and  C_21
REMARK    4  A    between atoms: C_9  and  C_13
REMARK                            x       y       z     vdW  Elec       q    Type
REMARK                         _______ _______ _______ _____ _____    ______ ____
ROOT
ATOM      1  O   UNL     1     104.915 124.270 147.205  0.00  0.00    +0.000 OA
ATOM      2  O   UNL     1     105.734 124.195 148.642  0.00  0.00    +0.000 OA
ATOM      3  O   UNL     1     105.976 125.520 145.273  0.00  0.00    +0.000 OA
ATOM      4  C   UNL     1     106.026 125.055 146.657  0.00  0.00    +0.000 A 
ATOM      5  C   UNL     1     105.683 124.649 147.288  0.00  0.00    +0.000 A 
ATOM      6  C   UNL     1     104.500 124.317 146.453  0.00  0.00    +0.000 A 
ATOM      7  C   UNL     1     106.763 125.414 146.750  0.00  0.00    +0.000 A 
ATOM      8  C   UNL     1     106.077 124.601 148.012  0.00  0.00    +0.000 A 
ATOM      9  C   UNL     1     105.626 125.112 145.899  0.00  0.00    +0.000 A 
ATOM     10  C   UNL     1     104.857 124.740 145.796  0.00  0.00    +0.000 A 
ATOM     11  C   UNL     1     106.814 124.961 148.103  0.00  0.00    +0.000 A 
ATOM     12  C   UNL     1     107.157 125.367 147.473  0.00  0.00    +0.000 A 
ENDROOT
BRANCH   6  13
ATOM     13  C   UNL     1     103.763 123.956 146.364  0.00  0.00    +0.000 A 
ATOM     14  C   UNL     1     103.704 123.226 145.984  0.00  0.00    +0.000 A 
ATOM     15  C   UNL     1     103.085 124.326 146.654  0.00  0.00    +0.000 A 
ATOM     16  C   UNL     1     102.968 122.866 145.895  0.00  0.00    +0.000 A 
ATOM     17  C   UNL     1     102.349 123.966 146.565  0.00  0.00    +0.000 A 
ATOM     18  C   UNL     1     102.290 123.235 146.186  0.00  0.00    +0.000 A 
BRANCH  18  19
ATOM     19  O   UNL     1     101.553 122.875 146.097  0.00  0.00    +0.000 OA
ATOM     20  C   UNL     1     101.048 123.115 145.490  0.00  0.00    +0.000 C 
ENDBRANCH  18  19
ENDBRANCH   6  13
BRANCH   7  21
ATOM     21  O   UNL     1     107.106 125.820 146.119  0.00  0.00    +0.000 OA
ATOM     22  C   UNL     1     107.159 126.643 146.138  0.00  0.00    +0.000 C 
ENDBRANCH   7  21
BRANCH  11  23
ATOM     23  O   UNL     1     107.208 124.913 148.827  0.00  0.00    +0.000 OA
ATOM     24  C   UNL     1     107.980 124.625 148.858  0.00  0.00    +0.000 C 
ENDBRANCH  11  23
TORSDOF 4
ENDMDL
MODEL 2
REMARK VINA RESULT:      -7.7      6.609      7.635
REMARK  Name = 5318368
REMARK  4 active torsions:
REMARK  status: ('A' for Active; 'I' for Inactive)
REMARK    1  A    between atoms: O_2  and  C_10
REMARK    2  A    between atoms: O_3  and  C_15
REMARK    3  A    between atoms: O_6  and  C_21
REMARK    4  A    between atoms: C_9  and  C_13
REMARK                            x       y       z     vdW  Elec       q    Type
REMARK                         _______ _______ _______ _____ _____    ______ ____
ROOT
ATOM      1  O   UNL     1     104.500 124.688 139.368  0.00  0.00    +0.000 OA
ATOM      2  O   UNL     1     104.582 126.211 140.015  0.00  0.00    +0.000 OA
ATOM      3  O   UNL     1     105.982 122.879 140.341  0.00  0.00    +0.000 OA
ATOM      4  C   UNL     1     105.517 124.264 140.335  0.00  0.00    +0.000 A 
ATOM      5  C   UNL     1     105.035 124.855 140.020  0.00  0.00    +0.000 A 
ATOM      6  C   UNL     1     104.466 123.893 139.041  0.00  0.00    +0.000 A 
ATOM      7  C   UNL     1     106.027 124.437 140.960  0.00  0.00    +0.000 A 
ATOM      8  C   UNL     1     105.064 125.619 140.330  0.00  0.00    +0.000 A 
ATOM      9  C   UNL     1     105.497 123.464 140.021  0.00  0.00    +0.000 A 
ATOM     10  C   UNL     1     104.968 123.278 139.369  0.00  0.00    +0.000 A 
ATOM     11  C   UNL     1     105.574 125.792 140.955  0.00  0.00    +0.000 A 
ATOM     12  C   UNL     1     106.055 125.200 141.270  0.00  0.00    +0.000 A 
ENDROOT
BRANCH   6  13
ATOM     13  C   UNL     1     103.955 123.724 138.416  0.00  0.00    +0.000 A 
ATOM     14  C   UNL     1     103.139 123.729 138.538  0.00  0.00    +0.000 A 
ATOM     15  C   UNL     1     104.260 123.550 137.669  0.00  0.00    +0.000 A 
ATOM     16  C   UNL     1     102.628 123.560 137.914  0.00  0.00    +0.000 A 
ATOM     17  C   UNL     1     103.748 123.381 137.045  0.00  0.00    +0.000 A 
ATOM     18  C   UNL     1     102.932 123.386 137.167  0.00  0.00    +0.000 A 
BRANCH  18  19
ATOM     19  O   UNL     1     102.421 123.217 136.541  0.00  0.00    +0.000 OA
ATOM     20  C   UNL     1     102.676 122.740 135.918  0.00  0.00    +0.000 C 
ENDBRANCH  18  19
ENDBRANCH   6  13
BRANCH   7  21
ATOM     21  O   UNL     1     106.508 123.846 141.275  0.00  0.00    +0.000 OA
ATOM     22  C   UNL     1     107.329 123.906 141.214  0.00  0.00    +0.000 C 
ENDBRANCH   7  21
BRANCH  11  23
ATOM     23  O   UNL     1     105.602 126.556 141.265  0.00  0.00    +0.000 OA
ATOM     24  C   UNL     1     106.183 126.756 141.816  0.00  0.00    +0.000 C 
ENDBRANCH  11  23
TORSDOF 4
ENDMDL
MODEL 3
REMARK VINA RESULT:      -7.5      1.176      4.727
REMARK  Name = 5318368
REMARK  4 active torsions:
REMARK  status: ('A' for Active; 'I' for Inactive)
REMARK    1  A    between atoms: O_2  and  C_10
REMARK    2  A    between atoms: O_3  and  C_15
REMARK    3  A    between atoms: O_6  and  C_21
REMARK    4  A    between atoms: C_9  and  C_13
REMARK                            x       y       z     vdW  Elec       q    Type
REMARK                         _______ _______ _______ _____ _____    ______ ____
ROOT
ATOM      1  O   UNL     1     104.370 124.172 146.667  0.00  0.00    +0.000 OA
ATOM      2  O   UNL     1     103.730 122.990 145.699  0.00  0.00    +0.000 OA
ATOM      3  O   UNL     1     102.789 125.613 148.024  0.00  0.00    +0.000 OA
ATOM      4  C   UNL     1     103.007 124.526 147.073  0.00  0.00    +0.000 A 
ATOM      5  C   UNL     1     103.519 124.055 146.630  0.00  0.00    +0.000 A 
ATOM      6  C   UNL     1     104.690 124.789 147.173  0.00  0.00    +0.000 A 
ATOM      7  C   UNL     1     102.192 124.403 147.029  0.00  0.00    +0.000 A 
ATOM      8  C   UNL     1     103.217 123.461 146.143  0.00  0.00    +0.000 A 
ATOM      9  C   UNL     1     103.309 125.147 147.584  0.00  0.00    +0.000 A 
ATOM     10  C   UNL     1     104.157 125.280 147.634  0.00  0.00    +0.000 A 
ATOM     11  C   UNL     1     102.403 123.339 146.099  0.00  0.00    +0.000 A 
ATOM     12  C   UNL     1     101.890 123.810 146.542  0.00  0.00    +0.000 A 
ENDROOT
BRANCH   6  13
ATOM     13  C   UNL     1     105.506 124.909 147.215  0.00  0.00    +0.000 A 
ATOM     14  C   UNL     1     105.931 124.626 147.862  0.00  0.00    +0.000 A 
ATOM     15  C   UNL     1     105.895 125.312 146.609  0.00  0.00    +0.000 A 
ATOM     16  C   UNL     1     106.746 124.745 147.904  0.00  0.00    +0.000 A 
ATOM     17  C   UNL     1     106.710 125.432 146.651  0.00  0.00    +0.000 A 
ATOM     18  C   UNL     1     107.136 125.148 147.299  0.00  0.00    +0.000 A 
BRANCH  18  19
ATOM     19  O   UNL     1     107.951 125.268 147.340  0.00  0.00    +0.000 OA
ATOM     20  C   UNL     1     108.375 124.997 147.995  0.00  0.00    +0.000 C 
ENDBRANCH  18  19
ENDBRANCH   6  13
BRANCH   7  21
ATOM     21  O   UNL     1     101.679 124.873 147.472  0.00  0.00    +0.000 OA
ATOM     22  C   UNL     1     101.248 124.543 148.092  0.00  0.00    +0.000 C 
ENDBRANCH   7  21
BRANCH  11  23
ATOM     23  O   UNL     1     102.100 122.745 145.611  0.00  0.00    +0.000 OA
ATOM     24  C   UNL     1     101.358 122.836 145.263  0.00  0.00    +0.000 C 
ENDBRANCH  11  23
TORSDOF 4
ENDMDL
MODEL 4
REMARK VINA RESULT:      -7.5      0.790      2.171
REMARK  Name = 5318368
REMARK  4 active torsions:
REMARK  status: ('A' for Active; 'I' for Inactive)
REMARK    1  A    between atoms: O_2  and  C_10
REMARK    2  A    between atoms: O_3  and  C_15
REMARK    3  A    between atoms: O_6  and  C_21
REMARK    4  A    between atoms: C_9  and  C_13
REMARK                            x       y       z     vdW  Elec       q    Type
REMARK                         _______ _______ _______ _____ _____    ______ ____
ROOT
ATOM      1  O   UNL     1     104.405 124.593 145.857  0.00  0.00    +0.000 OA
ATOM      2  O   UNL     1     105.235 125.321 144.623  0.00  0.00    +0.000 OA
ATOM      3  O   UNL     1     105.410 124.637 148.182  0.00  0.00    +0.000 OA
ATOM      4  C   UNL     1     105.485 124.989 146.766  0.00  0.00    +0.000 A 
ATOM      5  C   UNL     1     105.160 124.976 146.008  0.00  0.00    +0.000 A 
ATOM      6  C   UNL     1     103.984 124.218 146.507  0.00  0.00    +0.000 A 
ATOM      7  C   UNL     1     106.210 125.360 146.897  0.00  0.00    +0.000 A 
ATOM      8  C   UNL     1     105.560 125.334 145.381  0.00  0.00    +0.000 A 
ATOM      9  C   UNL     1     105.078 124.620 147.427  0.00  0.00    +0.000 A 
ATOM     10  C   UNL     1     104.322 124.232 147.296  0.00  0.00    +0.000 A 
ATOM     11  C   UNL     1     106.285 125.704 145.513  0.00  0.00    +0.000 A 
ATOM     12  C   UNL     1     106.610 125.717 146.271  0.00  0.00    +0.000 A 
ENDROOT
BRANCH   6  13
ATOM     13  C   UNL     1     103.258 123.848 146.371  0.00  0.00    +0.000 A 
ATOM     14  C   UNL     1     102.558 124.219 146.601  0.00  0.00    +0.000 A 
ATOM     15  C   UNL     1     103.235 123.109 146.006  0.00  0.00    +0.000 A 
ATOM     16  C   UNL     1     101.834 123.849 146.466  0.00  0.00    +0.000 A 
ATOM     17  C   UNL     1     102.509 122.739 145.872  0.00  0.00    +0.000 A 
ATOM     18  C   UNL     1     101.809 123.110 146.101  0.00  0.00    +0.000 A 
BRANCH  18  19
ATOM     19  O   UNL     1     101.084 122.740 145.966  0.00  0.00    +0.000 OA
ATOM     20  C   UNL     1     100.714 122.815 145.232  0.00  0.00    +0.000 C 
ENDBRANCH  18  19
ENDBRANCH   6  13
BRANCH   7  21
ATOM     21  O   UNL     1     106.535 125.373 147.655  0.00  0.00    +0.000 OA
ATOM     22  C   UNL     1     107.336 125.209 147.764  0.00  0.00    +0.000 C 
ENDBRANCH   7  21
BRANCH  11  23
ATOM     23  O   UNL     1     106.685 126.063 144.886  0.00  0.00    +0.000 OA
ATOM     24  C   UNL     1     106.701 126.885 144.823  0.00  0.00    +0.000 C 
ENDBRANCH  11  23
TORSDOF 4
ENDMDL
MODEL 5
REMARK VINA RESULT:      -7.4      2.730      4.424
REMARK  Name = 5318368
REMARK  4 active torsions:
REMARK  status: ('A' for Active; 'I' for Inactive)
REMARK    1  A    between atoms: O_2  and  C_10
REMARK    2  A    between atoms: O_3  and  C_15
REMARK    3  A    between atoms: O_6  and  C_21
REMARK    4  A    between atoms: C_9  and  C_13
REMARK                            x       y       z     vdW  Elec       q    Type
REMARK                         _______ _______ _______ _____ _____    ______ ____
ROOT
ATOM      1  O   UNL     1     106.575 125.266 145.833  0.00  0.00    +0.000 OA
ATOM      2  O   UNL     1     106.190 124.327 144.525  0.00  0.00    +0.000 OA
ATOM      3  O   UNL     1     106.392 127.783 145.611  0.00  0.00    +0.000 OA
ATOM      4  C   UNL     1     106.260 126.450 145.029  0.00  0.00    +0.000 A 
ATOM      5  C   UNL     1     106.319 125.630 145.098  0.00  0.00    +0.000 A 
ATOM      6  C   UNL     1     106.773 125.765 146.506  0.00  0.00    +0.000 A 
ATOM      7  C   UNL     1     106.013 126.787 144.317  0.00  0.00    +0.000 A 
ATOM      8  C   UNL     1     106.131 125.147 144.456  0.00  0.00    +0.000 A 
ATOM      9  C   UNL     1     106.454 126.964 145.689  0.00  0.00    +0.000 A 
ATOM     10  C   UNL     1     106.712 126.619 146.433  0.00  0.00    +0.000 A 
ATOM     11  C   UNL     1     105.884 125.484 143.745  0.00  0.00    +0.000 A 
ATOM     12  C   UNL     1     105.825 126.304 143.675  0.00  0.00    +0.000 A 
ENDROOT
BRANCH   6  13
ATOM     13  C   UNL     1     107.020 125.424 147.216  0.00  0.00    +0.000 A 
ATOM     14  C   UNL     1     107.825 125.335 147.372  0.00  0.00    +0.000 A 
ATOM     15  C   UNL     1     106.461 125.173 147.769  0.00  0.00    +0.000 A 
ATOM     16  C   UNL     1     108.072 124.995 148.081  0.00  0.00    +0.000 A 
ATOM     17  C   UNL     1     106.709 124.833 148.478  0.00  0.00    +0.000 A 
ATOM     18  C   UNL     1     107.514 124.744 148.634  0.00  0.00    +0.000 A 
BRANCH  18  19
ATOM     19  O   UNL     1     107.761 124.403 149.345  0.00  0.00    +0.000 OA
ATOM     20  C   UNL     1     107.408 123.707 149.612  0.00  0.00    +0.000 C 
ENDBRANCH  18  19
ENDBRANCH   6  13
BRANCH   7  21
ATOM     21  O   UNL     1     105.954 127.606 144.247  0.00  0.00    +0.000 OA
ATOM     22  C   UNL     1     105.249 127.950 143.994  0.00  0.00    +0.000 C 
ENDBRANCH   7  21
BRANCH  11  23
ATOM     23  O   UNL     1     105.695 125.001 143.103  0.00  0.00    +0.000 OA
ATOM     24  C   UNL     1     106.001 125.170 142.356  0.00  0.00    +0.000 C 
ENDBRANCH  11  23
TORSDOF 4
ENDMDL
MODEL 6
REMARK VINA RESULT:      -7.3     12.705     14.197
REMARK  Name = 5318368
REMARK  4 active torsions:
REMARK  status: ('A' for Active; 'I' for Inactive)
REMARK    1  A    between atoms: O_2  and  C_10
REMARK    2  A    between atoms: O_3  and  C_15
REMARK    3  A    between atoms: O_6  and  C_21
REMARK    4  A    between atoms: C_9  and  C_13
REMARK                            x       y       z     vdW  Elec       q    Type
REMARK                         _______ _______ _______ _____ _____    ______ ____
ROOT
ATOM      1  O   UNL     1     113.878 127.848 136.038  0.00  0.00    +0.000 OA
ATOM      2  O   UNL     1     114.707 128.690 134.878  0.00  0.00    +0.000 OA
ATOM      3  O   UNL     1     112.834 129.137 137.953  0.00  0.00    +0.000 OA
ATOM      4  C   UNL     1     113.608 129.120 136.714  0.00  0.00    +0.000 A 
ATOM      5  C   UNL     1     113.949 128.703 136.090  0.00  0.00    +0.000 A 
ATOM      6  C   UNL     1     113.445 127.422 136.647  0.00  0.00    +0.000 A 
ATOM      7  C   UNL     1     113.684 129.941 136.752  0.00  0.00    +0.000 A 
ATOM      8  C   UNL     1     114.366 129.107 135.502  0.00  0.00    +0.000 A 
ATOM      9  C   UNL     1     113.172 128.712 137.331  0.00  0.00    +0.000 A 
ATOM     10  C   UNL     1     113.090 127.857 137.298  0.00  0.00    +0.000 A 
ATOM     11  C   UNL     1     114.441 129.927 135.541  0.00  0.00    +0.000 A 
ATOM     12  C   UNL     1     114.100 130.344 136.165  0.00  0.00    +0.000 A 
ENDROOT
BRANCH   6  13
ATOM     13  C   UNL     1     113.371 126.601 136.606  0.00  0.00    +0.000 A 
ATOM     14  C   UNL     1     112.666 126.263 136.344  0.00  0.00    +0.000 A 
ATOM     15  C   UNL     1     114.003 126.119 136.827  0.00  0.00    +0.000 A 
ATOM     16  C   UNL     1     112.592 125.444 136.303  0.00  0.00    +0.000 A 
ATOM     17  C   UNL     1     113.929 125.298 136.785  0.00  0.00    +0.000 A 
ATOM     18  C   UNL     1     113.223 124.961 136.523  0.00  0.00    +0.000 A 
BRANCH  18  19
ATOM     19  O   UNL     1     113.150 124.140 136.482  0.00  0.00    +0.000 OA
ATOM     20  C   UNL     1     112.517 123.763 136.856  0.00  0.00    +0.000 C 
ENDBRANCH  18  19
ENDBRANCH   6  13
BRANCH   7  21
ATOM     21  O   UNL     1     113.343 130.358 137.376  0.00  0.00    +0.000 OA
ATOM     22  C   UNL     1     112.801 130.961 137.223  0.00  0.00    +0.000 C 
ENDBRANCH   7  21
BRANCH  11  23
ATOM     23  O   UNL     1     114.858 130.331 134.953  0.00  0.00    +0.000 OA
ATOM     24  C   UNL     1     115.391 130.925 135.161  0.00  0.00    +0.000 C 
ENDBRANCH  11  23
TORSDOF 4
ENDMDL
MODEL 7
REMARK VINA RESULT:      -7.3      8.766     10.138
REMARK  Name = 5318368
REMARK  4 active torsions:
REMARK  status: ('A' for Active; 'I' for Inactive)
REMARK    1  A    between atoms: O_2  and  C_10
REMARK    2  A    between atoms: O_3  and  C_15
REMARK    3  A    between atoms: O_6  and  C_21
REMARK    4  A    between atoms: C_9  and  C_13
REMARK                            x       y       z     vdW  Elec       q    Type
REMARK                         _______ _______ _______ _____ _____    ______ ____
ROOT
ATOM      1  O   UNL     1     102.870 132.046 141.205  0.00  0.00    +0.000 OA
ATOM      2  O   UNL     1     103.610 133.398 140.600  0.00  0.00    +0.000 OA
ATOM      3  O   UNL     1     100.710 132.323 142.498  0.00  0.00    +0.000 OA
ATOM      4  C   UNL     1     101.820 132.910 141.752  0.00  0.00    +0.000 A 
ATOM      5  C   UNL     1     102.524 132.822 141.330  0.00  0.00    +0.000 A 
ATOM      6  C   UNL     1     102.477 131.350 141.524  0.00  0.00    +0.000 A 
ATOM      7  C   UNL     1     101.499 133.661 141.865  0.00  0.00    +0.000 A 
ATOM      8  C   UNL     1     102.906 133.486 141.022  0.00  0.00    +0.000 A 
ATOM      9  C   UNL     1     101.414 132.227 142.078  0.00  0.00    +0.000 A 
ATOM     10  C   UNL     1     101.744 131.442 141.963  0.00  0.00    +0.000 A 
ATOM     11  C   UNL     1     102.583 134.237 141.136  0.00  0.00    +0.000 A 
ATOM     12  C   UNL     1     101.880 134.324 141.557  0.00  0.00    +0.000 A 
ENDROOT
BRANCH   6  13
ATOM     13  C   UNL     1     102.802 130.601 141.408  0.00  0.00    +0.000 A 
ATOM     14  C   UNL     1     103.348 130.300 141.950  0.00  0.00    +0.000 A 
ATOM     15  C   UNL     1     102.581 130.152 140.752  0.00  0.00    +0.000 A 
ATOM     16  C   UNL     1     103.672 129.552 141.835  0.00  0.00    +0.000 A 
ATOM     17  C   UNL     1     102.907 129.403 140.637  0.00  0.00    +0.000 A 
ATOM     18  C   UNL     1     103.452 129.103 141.179  0.00  0.00    +0.000 A 
BRANCH  18  19
ATOM     19  O   UNL     1     103.777 128.353 141.063  0.00  0.00    +0.000 OA
ATOM     20  C   UNL     1     104.453 128.128 141.480  0.00  0.00    +0.000 C 
ENDBRANCH  18  19
ENDBRANCH   6  13
BRANCH   7  21
ATOM     21  O   UNL     1     100.795 133.749 142.287  0.00  0.00    +0.000 OA
ATOM     22  C   UNL     1     100.776 134.215 142.967  0.00  0.00    +0.000 C 
ENDBRANCH   7  21
BRANCH  11  23
ATOM     23  O   UNL     1     102.965 134.900 140.827  0.00  0.00    +0.000 OA
ATOM     24  C   UNL     1     102.535 135.466 140.409  0.00  0.00    +0.000 C 
ENDBRANCH  11  23
TORSDOF 4
ENDMDL
MODEL 8
REMARK VINA RESULT:      -7.3      1.851      3.441
REMARK  Name = 5318368
REMARK  4 active torsions:
REMARK  status: ('A' for Active; 'I' for Inactive)
REMARK    1  A    between atoms: O_2  and  C_10
REMARK    2  A    between atoms: O_3  and  C_15
REMARK    3  A    between atoms: O_6  and  C_21
REMARK    4  A    between atoms: C_9  and  C_13
REMARK                            x       y       z     vdW  Elec       q    Type
REMARK                         _______ _______ _______ _____ _____    ______ ____
ROOT
ATOM      1  O   UNL     1     106.585 125.280 145.963  0.00  0.00    +0.000 OA
ATOM      2  O   UNL     1     107.942 125.279 146.913  0.00  0.00    +0.000 OA
ATOM      3  O   UNL     1     104.358 124.724 147.033  0.00  0.00    +0.000 OA
ATOM      4  C   UNL     1     105.802 124.914 147.146  0.00  0.00    +0.000 A 
ATOM      5  C   UNL     1     106.528 125.094 146.800  0.00  0.00    +0.000 A 
ATOM      6  C   UNL     1     105.874 125.277 145.479  0.00  0.00    +0.000 A 
ATOM      7  C   UNL     1     105.761 124.738 147.951  0.00  0.00    +0.000 A 
ATOM      8  C   UNL     1     107.215 125.099 147.259  0.00  0.00    +0.000 A 
ATOM      9  C   UNL     1     105.081 124.906 146.679  0.00  0.00    +0.000 A 
ATOM     10  C   UNL     1     105.117 125.089 145.840  0.00  0.00    +0.000 A 
ATOM     11  C   UNL     1     107.173 124.923 148.064  0.00  0.00    +0.000 A 
ATOM     12  C   UNL     1     106.446 124.742 148.410  0.00  0.00    +0.000 A 
ENDROOT
BRANCH   6  13
ATOM     13  C   UNL     1     105.919 125.453 144.674  0.00  0.00    +0.000 A 
ATOM     14  C   UNL     1     105.973 126.239 144.428  0.00  0.00    +0.000 A 
ATOM     15  C   UNL     1     105.909 124.845 144.117  0.00  0.00    +0.000 A 
ATOM     16  C   UNL     1     106.018 126.416 143.624  0.00  0.00    +0.000 A 
ATOM     17  C   UNL     1     105.954 125.022 143.313  0.00  0.00    +0.000 A 
ATOM     18  C   UNL     1     106.008 125.808 143.066  0.00  0.00    +0.000 A 
BRANCH  18  19
ATOM     19  O   UNL     1     106.053 125.985 142.261  0.00  0.00    +0.000 OA
ATOM     20  C   UNL     1     106.774 126.211 141.929  0.00  0.00    +0.000 C 
ENDBRANCH  18  19
ENDBRANCH   6  13
BRANCH   7  21
ATOM     21  O   UNL     1     105.034 124.557 148.297  0.00  0.00    +0.000 OA
ATOM     22  C   UNL     1     104.733 125.034 148.899  0.00  0.00    +0.000 C 
ENDBRANCH   7  21
BRANCH  11  23
ATOM     23  O   UNL     1     107.859 124.927 148.523  0.00  0.00    +0.000 OA
ATOM     24  C   UNL     1     107.900 124.468 149.206  0.00  0.00    +0.000 C 
ENDBRANCH  11  23
TORSDOF 4
ENDMDL
MODEL 9
REMARK VINA RESULT:      -7.3     12.386     14.007
REMARK  Name = 5318368
REMARK  4 active torsions:
REMARK  status: ('A' for Active; 'I' for Inactive)
REMARK    1  A    between atoms: O_2  and  C_10
REMARK    2  A    between atoms: O_3  and  C_15
REMARK    3  A    between atoms: O_6  and  C_21
REMARK    4  A    between atoms: C_9  and  C_13
REMARK                            x       y       z     vdW  Elec       q    Type
REMARK                         _______ _______ _______ _____ _____    ______ ____
ROOT
ATOM      1  O   UNL     1     112.977 127.069 136.296  0.00  0.00    +0.000 OA
ATOM      2  O   UNL     1     113.504 125.553 136.703  0.00  0.00    +0.000 OA
ATOM      3  O   UNL     1     110.579 127.349 135.529  0.00  0.00    +0.000 OA
ATOM      4  C   UNL     1     111.664 126.490 135.996  0.00  0.00    +0.000 A 
ATOM      5  C   UNL     1     112.444 126.396 136.246  0.00  0.00    +0.000 A 
ATOM      6  C   UNL     1     112.690 127.851 136.081  0.00  0.00    +0.000 A 
ATOM      7  C   UNL     1     111.163 125.836 135.953  0.00  0.00    +0.000 A 
ATOM      8  C   UNL     1     112.724 125.647 136.453  0.00  0.00    +0.000 A 
ATOM      9  C   UNL     1     111.361 127.264 135.778  0.00  0.00    +0.000 A 
ATOM     10  C   UNL     1     111.878 127.949 135.821  0.00  0.00    +0.000 A 
ATOM     11  C   UNL     1     112.222 124.994 136.410  0.00  0.00    +0.000 A 
ATOM     12  C   UNL     1     111.442 125.088 136.159  0.00  0.00    +0.000 A 
ENDROOT
BRANCH   6  13
ATOM     13  C   UNL     1     113.195 128.503 136.126  0.00  0.00    +0.000 A 
ATOM     14  C   UNL     1     113.681 128.693 135.486  0.00  0.00    +0.000 A 
ATOM     15  C   UNL     1     113.212 128.965 136.809  0.00  0.00    +0.000 A 
ATOM     16  C   UNL     1     114.184 129.344 135.530  0.00  0.00    +0.000 A 
ATOM     17  C   UNL     1     113.716 129.617 136.853  0.00  0.00    +0.000 A 
ATOM     18  C   UNL     1     114.202 129.806 136.213  0.00  0.00    +0.000 A 
BRANCH  18  19
ATOM     19  O   UNL     1     114.706 130.458 136.258  0.00  0.00    +0.000 OA
ATOM     20  C   UNL     1     115.225 130.621 135.637  0.00  0.00    +0.000 C 
ENDBRANCH  18  19
ENDBRANCH   6  13
BRANCH   7  21
ATOM     21  O   UNL     1     110.382 125.930 135.703  0.00  0.00    +0.000 OA
ATOM     22  C   UNL     1     110.128 125.578 135.001  0.00  0.00    +0.000 C 
ENDBRANCH   7  21
BRANCH  11  23
ATOM     23  O   UNL     1     112.502 124.245 136.617  0.00  0.00    +0.000 OA
ATOM     24  C   UNL     1     111.995 123.699 136.969  0.00  0.00    +0.000 C 
ENDBRANCH  11  23
TORSDOF 4
ENDMDL
MODEL 10
REMARK VINA RESULT:      -7.2     12.049     14.378
REMARK  Name = 5318368
REMARK  4 active torsions:
REMARK  status: ('A' for Active; 'I' for Inactive)
REMARK    1  A    between atoms: O_2  and  C_10
REMARK    2  A    between atoms: O_3  and  C_15
REMARK    3  A    between atoms: O_6  and  C_21
REMARK    4  A    between atoms: C_9  and  C_13
REMARK                            x       y       z     vdW  Elec       q    Type
REMARK                         _______ _______ _______ _____ _____    ______ ____
ROOT
ATOM      1  O   UNL     1     112.440 127.972 135.748  0.00  0.00    +0.000 OA
ATOM      2  O   UNL     1     110.932 127.863 135.071  0.00  0.00    +0.000 OA
ATOM      3  O   UNL     1     113.360 125.960 136.980  0.00  0.00    +0.000 OA
ATOM      4  C   UNL     1     112.287 126.592 136.218  0.00  0.00    +0.000 A 
ATOM      5  C   UNL     1     111.985 127.246 135.816  0.00  0.00    +0.000 A 
ATOM      6  C   UNL     1     113.221 128.016 136.104  0.00  0.00    +0.000 A 
ATOM      7  C   UNL     1     111.839 125.901 136.277  0.00  0.00    +0.000 A 
ATOM      8  C   UNL     1     111.235 127.209 135.473  0.00  0.00    +0.000 A 
ATOM      9  C   UNL     1     113.066 126.618 136.580  0.00  0.00    +0.000 A 
ATOM     10  C   UNL     1     113.536 127.335 136.522  0.00  0.00    +0.000 A 
ATOM     11  C   UNL     1     110.788 126.518 135.532  0.00  0.00    +0.000 A 
ATOM     12  C   UNL     1     111.091 125.864 135.934  0.00  0.00    +0.000 A 
ENDROOT
BRANCH   6  13
ATOM     13  C   UNL     1     113.666 128.709 136.043  0.00  0.00    +0.000 A 
ATOM     14  C   UNL     1     114.197 128.804 135.419  0.00  0.00    +0.000 A 
ATOM     15  C   UNL     1     113.578 129.306 136.606  0.00  0.00    +0.000 A 
ATOM     16  C   UNL     1     114.641 129.496 135.358  0.00  0.00    +0.000 A 
ATOM     17  C   UNL     1     114.023 129.998 136.544  0.00  0.00    +0.000 A 
ATOM     18  C   UNL     1     114.554 130.093 135.920  0.00  0.00    +0.000 A 
BRANCH  18  19
ATOM     19  O   UNL     1     114.998 130.786 135.859  0.00  0.00    +0.000 OA
ATOM     20  C   UNL     1     115.404 130.955 135.161  0.00  0.00    +0.000 C 
ENDBRANCH  18  19
ENDBRANCH   6  13
BRANCH   7  21
ATOM     21  O   UNL     1     112.142 125.247 136.679  0.00  0.00    +0.000 OA
ATOM     22  C   UNL     1     111.721 124.918 137.307  0.00  0.00    +0.000 C 
ENDBRANCH   7  21
BRANCH  11  23
ATOM     23  O   UNL     1     110.038 126.481 135.188  0.00  0.00    +0.000 OA
ATOM     24  C   UNL     1     109.817 125.815 134.754  0.00  0.00    +0.000 C 
ENDBRANCH  11  23
TORSDOF 4
ENDMDL
