MODEL 1
REMARK VINA RESULT:     -10.2      0.000      0.000
REMARK  Name = 6290103
REMARK  8 active torsions:
REMARK  status: ('A' for Active; 'I' for Inactive)
REMARK    1  A    between atoms: O_2  and  C_17
REMARK    2  A    between atoms: O_2  and  C_19
REMARK    3  A    between atoms: O_6  and  C_18
REMARK    4  A    between atoms: O_6  and  C_29
REMARK    5  A    between atoms: C_15  and  C_18
REMARK    6  A    between atoms: C_20  and  C_28
REMARK    7  A    between atoms: C_29  and  C_32
REMARK    8  A    between atoms: C_36  and  C_37
REMARK                            x       y       z     vdW  Elec       q    Type
REMARK                         _______ _______ _______ _____ _____    ______ ____
ROOT
ATOM      1  O   UNL     1     110.249 128.011 135.462  0.00  0.00    +0.000 OA
ATOM      2  O   UNL     1     108.347 127.105 136.034  0.00  0.00    +0.000 OA
ATOM      3  O   UNL     1     107.889 128.674 135.806  0.00  0.00    +0.000 OA
ATOM      4  O   UNL     1     109.004 129.801 135.349  0.00  0.00    +0.000 OA
ATOM      5  C   UNL     1     108.905 127.668 135.806  0.00  0.00    +0.000 C 
ATOM      6  C   UNL     1     108.676 128.453 135.691  0.00  0.00    +0.000 C 
ATOM      7  C   UNL     1     109.692 127.447 135.691  0.00  0.00    +0.000 C 
ATOM      8  C   UNL     1     109.234 129.016 135.463  0.00  0.00    +0.000 C 
ATOM      9  C   UNL     1     110.020 128.795 135.348  0.00  0.00    +0.000 C 
ENDROOT
BRANCH   9  10
ATOM     10  O   UNL     1     110.578 129.359 135.120  0.00  0.00    +0.000 OA
BRANCH  10  14
ATOM     11  O   UNL     1     112.513 129.481 137.293  0.00  0.00    +0.000 OA
ATOM     12  O   UNL     1     113.416 128.893 134.612  0.00  0.00    +0.000 OA
ATOM     13  O   UNL     1     114.346 128.962 135.713  0.00  0.00    +0.000 OA
ATOM     14  C   UNL     1     111.355 129.303 135.390  0.00  0.00    +0.000 A 
ATOM     15  C   UNL     1     113.290 129.426 137.566  0.00  0.00    +0.000 C 
ATOM     16  C   UNL     1     112.347 129.364 136.493  0.00  0.00    +0.000 A 
ATOM     17  C   UNL     1     111.535 129.424 136.221  0.00  0.00    +0.000 A 
ATOM     18  C   UNL     1     112.958 129.191 135.966  0.00  0.00    +0.000 A 
ATOM     19  C   UNL     1     113.900 129.253 137.040  0.00  0.00    +0.000 C 
ATOM     20  C   UNL     1     111.992 129.123 134.841  0.00  0.00    +0.000 A 
ATOM     21  C   UNL     1     113.734 129.135 136.240  0.00  0.00    +0.000 C 
ATOM     22  C   UNL     1     112.799 129.066 135.132  0.00  0.00    +0.000 A 
BRANCH  15  24
ATOM     23  O   UNL     1     113.951 129.896 140.765  0.00  0.00    +0.000 OA
ATOM     24  C   UNL     1     113.455 129.544 138.366  0.00  0.00    +0.000 A 
ATOM     25  C   UNL     1     113.315 128.939 138.909  0.00  0.00    +0.000 A 
ATOM     26  C   UNL     1     113.760 130.266 138.621  0.00  0.00    +0.000 A 
ATOM     27  C   UNL     1     113.480 129.057 139.708  0.00  0.00    +0.000 A 
ATOM     28  C   UNL     1     113.925 130.383 139.421  0.00  0.00    +0.000 A 
ATOM     29  C   UNL     1     113.786 129.779 139.965  0.00  0.00    +0.000 A 
ENDBRANCH  15  24
ENDBRANCH  10  14
ENDBRANCH   9  10
BRANCH   7  30
ATOM     30  C   UNL     1     109.920 126.663 135.805  0.00  0.00    +0.000 C 
BRANCH  30  31
ATOM     31  O   UNL     1     110.679 126.419 135.592  0.00  0.00    +0.000 OA
BRANCH  31  33
ATOM     32  O   UNL     1     110.658 124.993 135.663  0.00  0.00    +0.000 OA
ATOM     33  C   UNL     1     110.985 125.715 135.892  0.00  0.00    +0.000 C 
BRANCH  33  34
ATOM     34  C   UNL     1     111.619 125.731 136.420  0.00  0.00    +0.000 C 
ATOM     35  C   UNL     1     112.363 125.467 136.182  0.00  0.00    +0.000 C 
BRANCH  35  37
ATOM     36  O   UNL     1     114.895 125.532 138.297  0.00  0.00    +0.000 OA
ATOM     37  C   UNL     1     112.996 125.483 136.710  0.00  0.00    +0.000 A 
ATOM     38  C   UNL     1     112.854 125.510 137.523  0.00  0.00    +0.000 A 
ATOM     39  C   UNL     1     113.770 125.472 136.427  0.00  0.00    +0.000 A 
ATOM     40  C   UNL     1     113.487 125.526 138.052  0.00  0.00    +0.000 A 
ATOM     41  C   UNL     1     114.403 125.489 136.956  0.00  0.00    +0.000 A 
ATOM     42  C   UNL     1     114.261 125.516 137.768  0.00  0.00    +0.000 A 
ENDBRANCH  35  37
ENDBRANCH  33  34
ENDBRANCH  31  33
ENDBRANCH  30  31
ENDBRANCH   7  30
TORSDOF 8
ENDMDL
MODEL 2
REMARK VINA RESULT:     -10.1      1.527      4.139
REMARK  Name = 6290103
REMARK  8 active torsions:
REMARK  status: ('A' for Active; 'I' for Inactive)
REMARK    1  A    between atoms: O_2  and  C_17
REMARK    2  A    between atoms: O_2  and  C_19
REMARK    3  A    between atoms: O_6  and  C_18
REMARK    4  A    between atoms: O_6  and  C_29
REMARK    5  A    between atoms: C_15  and  C_18
REMARK    6  A    between atoms: C_20  and  C_28
REMARK    7  A    between atoms: C_29  and  C_32
REMARK    8  A    between atoms: C_36  and  C_37
REMARK                            x       y       z     vdW  Elec       q    Type
REMARK                         _______ _______ _______ _____ _____    ______ ____
ROOT
ATOM      1  O   UNL     1     112.173 125.857 136.768  0.00  0.00    +0.000 OA
ATOM      2  O   UNL     1     111.608 123.855 136.107  0.00  0.00    +0.000 OA
ATOM      3  O   UNL     1     113.011 123.533 136.913  0.00  0.00    +0.000 OA
ATOM      4  O   UNL     1     113.856 124.760 137.622  0.00  0.00    +0.000 OA
ATOM      5  C   UNL     1     112.029 124.469 136.461  0.00  0.00    +0.000 C 
ATOM      6  C   UNL     1     112.732 124.307 136.864  0.00  0.00    +0.000 C 
ATOM      7  C   UNL     1     111.750 125.244 136.413  0.00  0.00    +0.000 C 
ATOM      8  C   UNL     1     113.153 124.921 137.219  0.00  0.00    +0.000 C 
ATOM      9  C   UNL     1     112.874 125.696 137.170  0.00  0.00    +0.000 C 
ENDROOT
BRANCH   9  10
ATOM     10  O   UNL     1     113.297 126.309 137.525  0.00  0.00    +0.000 OA
BRANCH  10  14
ATOM     11  O   UNL     1     112.447 129.092 137.384  0.00  0.00    +0.000 OA
ATOM     12  O   UNL     1     114.342 128.081 135.451  0.00  0.00    +0.000 OA
ATOM     13  O   UNL     1     113.898 129.454 135.413  0.00  0.00    +0.000 OA
ATOM     14  C   UNL     1     113.329 127.050 137.164  0.00  0.00    +0.000 A 
ATOM     15  C   UNL     1     112.478 129.834 137.025  0.00  0.00    +0.000 C 
ATOM     16  C   UNL     1     112.900 128.470 137.086  0.00  0.00    +0.000 A 
ATOM     17  C   UNL     1     112.860 127.702 137.469  0.00  0.00    +0.000 A 
ATOM     18  C   UNL     1     113.384 128.590 136.429  0.00  0.00    +0.000 A 
ATOM     19  C   UNL     1     112.961 129.954 136.368  0.00  0.00    +0.000 C 
ATOM     20  C   UNL     1     113.834 127.176 136.479  0.00  0.00    +0.000 A 
ATOM     21  C   UNL     1     113.414 129.332 136.070  0.00  0.00    +0.000 C 
ATOM     22  C   UNL     1     113.861 127.951 136.109  0.00  0.00    +0.000 A 
BRANCH  15  24
ATOM     23  O   UNL     1     110.664 132.320 138.217  0.00  0.00    +0.000 OA
ATOM     24  C   UNL     1     112.024 130.456 137.323  0.00  0.00    +0.000 A 
ATOM     25  C   UNL     1     112.026 131.187 136.942  0.00  0.00    +0.000 A 
ATOM     26  C   UNL     1     111.569 130.344 138.002  0.00  0.00    +0.000 A 
ATOM     27  C   UNL     1     111.573 131.808 137.241  0.00  0.00    +0.000 A 
ATOM     28  C   UNL     1     111.115 130.966 138.300  0.00  0.00    +0.000 A 
ATOM     29  C   UNL     1     111.117 131.698 137.920  0.00  0.00    +0.000 A 
ENDBRANCH  15  24
ENDBRANCH  10  14
ENDBRANCH   9  10
BRANCH   7  30
ATOM     30  C   UNL     1     111.049 125.404 136.010  0.00  0.00    +0.000 C 
BRANCH  30  31
ATOM     31  O   UNL     1     111.001 126.058 135.509  0.00  0.00    +0.000 OA
BRANCH  31  33
ATOM     32  O   UNL     1     109.915 125.743 134.636  0.00  0.00    +0.000 OA
ATOM     33  C   UNL     1     110.280 126.261 135.164  0.00  0.00    +0.000 C 
BRANCH  33  34
ATOM     34  C   UNL     1     109.924 126.984 135.345  0.00  0.00    +0.000 C 
ATOM     35  C   UNL     1     110.063 127.643 134.870  0.00  0.00    +0.000 C 
BRANCH  35  37
ATOM     36  O   UNL     1     108.637 130.529 135.596  0.00  0.00    +0.000 OA
ATOM     37  C   UNL     1     109.707 128.365 135.051  0.00  0.00    +0.000 A 
ATOM     38  C   UNL     1     109.166 128.413 135.672  0.00  0.00    +0.000 A 
ATOM     39  C   UNL     1     109.891 129.038 134.612  0.00  0.00    +0.000 A 
ATOM     40  C   UNL     1     108.809 129.134 135.854  0.00  0.00    +0.000 A 
ATOM     41  C   UNL     1     109.535 129.759 134.793  0.00  0.00    +0.000 A 
ATOM     42  C   UNL     1     108.994 129.807 135.414  0.00  0.00    +0.000 A 
ENDBRANCH  35  37
ENDBRANCH  33  34
ENDBRANCH  31  33
ENDBRANCH  30  31
ENDBRANCH   7  30
TORSDOF 8
ENDMDL
MODEL 3
REMARK VINA RESULT:     -10.0      1.760      3.734
REMARK  Name = 6290103
REMARK  8 active torsions:
REMARK  status: ('A' for Active; 'I' for Inactive)
REMARK    1  A    between atoms: O_2  and  C_17
REMARK    2  A    between atoms: O_2  and  C_19
REMARK    3  A    between atoms: O_6  and  C_18
REMARK    4  A    between atoms: O_6  and  C_29
REMARK    5  A    between atoms: C_15  and  C_18
REMARK    6  A    between atoms: C_20  and  C_28
REMARK    7  A    between atoms: C_29  and  C_32
REMARK    8  A    between atoms: C_36  and  C_37
REMARK                            x       y       z     vdW  Elec       q    Type
REMARK                         _______ _______ _______ _____ _____    ______ ____
ROOT
ATOM      1  O   UNL     1     110.008 129.009 136.532  0.00  0.00    +0.000 OA
ATOM      2  O   UNL     1     108.411 130.291 137.287  0.00  0.00    +0.000 OA
ATOM      3  O   UNL     1     108.196 130.451 135.658  0.00  0.00    +0.000 OA
ATOM      4  O   UNL     1     109.190 129.650 134.612  0.00  0.00    +0.000 OA
ATOM      5  C   UNL     1     108.908 129.890 136.764  0.00  0.00    +0.000 C 
ATOM      6  C   UNL     1     108.800 129.971 135.949  0.00  0.00    +0.000 C 
ATOM      7  C   UNL     1     109.511 129.409 137.055  0.00  0.00    +0.000 C 
ATOM      8  C   UNL     1     109.297 129.570 135.427  0.00  0.00    +0.000 C 
ATOM      9  C   UNL     1     109.901 129.089 135.718  0.00  0.00    +0.000 C 
ENDROOT
BRANCH   9  10
ATOM     10  O   UNL     1     110.398 128.689 135.194  0.00  0.00    +0.000 OA
BRANCH  10  14
ATOM     11  O   UNL     1     112.148 126.544 136.099  0.00  0.00    +0.000 OA
ATOM     12  O   UNL     1     109.575 125.896 134.956  0.00  0.00    +0.000 OA
ATOM     13  O   UNL     1     110.469 124.860 135.414  0.00  0.00    +0.000 OA
ATOM     14  C   UNL     1     110.548 127.885 135.302  0.00  0.00    +0.000 A 
ATOM     15  C   UNL     1     112.301 125.741 136.208  0.00  0.00    +0.000 C 
ATOM     16  C   UNL     1     111.435 126.786 135.761  0.00  0.00    +0.000 A 
ATOM     17  C   UNL     1     111.288 127.626 135.653  0.00  0.00    +0.000 A 
ATOM     18  C   UNL     1     110.875 126.225 135.533  0.00  0.00    +0.000 A 
ATOM     19  C   UNL     1     111.742 125.180 135.980  0.00  0.00    +0.000 C 
ATOM     20  C   UNL     1     109.964 127.300 135.065  0.00  0.00    +0.000 A 
ATOM     21  C   UNL     1     111.029 125.422 135.643  0.00  0.00    +0.000 C 
ATOM     22  C   UNL     1     110.129 126.465 135.181  0.00  0.00    +0.000 A 
BRANCH  15  24
ATOM     23  O   UNL     1     115.154 124.774 137.557  0.00  0.00    +0.000 OA
ATOM     24  C   UNL     1     113.015 125.499 136.545  0.00  0.00    +0.000 A 
ATOM     25  C   UNL     1     113.714 125.896 136.361  0.00  0.00    +0.000 A 
ATOM     26  C   UNL     1     113.028 124.860 137.066  0.00  0.00    +0.000 A 
ATOM     27  C   UNL     1     114.426 125.655 136.698  0.00  0.00    +0.000 A 
ATOM     28  C   UNL     1     113.741 124.618 137.403  0.00  0.00    +0.000 A 
ATOM     29  C   UNL     1     114.441 125.015 137.220  0.00  0.00    +0.000 A 
ENDBRANCH  15  24
ENDBRANCH  10  14
ENDBRANCH   9  10
BRANCH   7  30
ATOM     30  C   UNL     1     109.618 129.329 137.869  0.00  0.00    +0.000 C 
BRANCH  30  31
ATOM     31  O   UNL     1     110.027 128.678 138.170  0.00  0.00    +0.000 OA
BRANCH  31  33
ATOM     32  O   UNL     1     109.621 128.786 139.535  0.00  0.00    +0.000 OA
ATOM     33  C   UNL     1     110.207 128.640 138.973  0.00  0.00    +0.000 C 
BRANCH  33  34
ATOM     34  C   UNL     1     110.974 128.455 139.216  0.00  0.00    +0.000 C 
ATOM     35  C   UNL     1     111.193 127.669 139.330  0.00  0.00    +0.000 C 
BRANCH  35  37
ATOM     36  O   UNL     1     114.261 126.933 140.300  0.00  0.00    +0.000 OA
ATOM     37  C   UNL     1     111.960 127.484 139.573  0.00  0.00    +0.000 A 
ATOM     38  C   UNL     1     112.594 127.950 139.325  0.00  0.00    +0.000 A 
ATOM     39  C   UNL     1     112.093 126.835 140.063  0.00  0.00    +0.000 A 
ATOM     40  C   UNL     1     113.361 127.767 139.567  0.00  0.00    +0.000 A 
ATOM     41  C   UNL     1     112.859 126.651 140.306  0.00  0.00    +0.000 A 
ATOM     42  C   UNL     1     113.493 127.117 140.058  0.00  0.00    +0.000 A 
ENDBRANCH  35  37
ENDBRANCH  33  34
ENDBRANCH  31  33
ENDBRANCH  30  31
ENDBRANCH   7  30
TORSDOF 8
ENDMDL
MODEL 4
REMARK VINA RESULT:      -9.8      1.987      5.746
REMARK  Name = 6290103
REMARK  8 active torsions:
REMARK  status: ('A' for Active; 'I' for Inactive)
REMARK    1  A    between atoms: O_2  and  C_17
REMARK    2  A    between atoms: O_2  and  C_19
REMARK    3  A    between atoms: O_6  and  C_18
REMARK    4  A    between atoms: O_6  and  C_29
REMARK    5  A    between atoms: C_15  and  C_18
REMARK    6  A    between atoms: C_20  and  C_28
REMARK    7  A    between atoms: C_29  and  C_32
REMARK    8  A    between atoms: C_36  and  C_37
REMARK                            x       y       z     vdW  Elec       q    Type
REMARK                         _______ _______ _______ _____ _____    ______ ____
ROOT
ATOM      1  O   UNL     1     112.817 128.889 140.911  0.00  0.00    +0.000 OA
ATOM      2  O   UNL     1     112.480 130.913 141.655  0.00  0.00    +0.000 OA
ATOM      3  O   UNL     1     111.984 130.018 142.950  0.00  0.00    +0.000 OA
ATOM      4  O   UNL     1     112.045 128.370 142.886  0.00  0.00    +0.000 OA
ATOM      5  C   UNL     1     112.510 130.089 141.623  0.00  0.00    +0.000 C 
ATOM      6  C   UNL     1     112.262 129.642 142.271  0.00  0.00    +0.000 C 
ATOM      7  C   UNL     1     112.788 129.713 140.943  0.00  0.00    +0.000 C 
ATOM      8  C   UNL     1     112.292 128.818 142.238  0.00  0.00    +0.000 C 
ATOM      9  C   UNL     1     112.570 128.442 141.558  0.00  0.00    +0.000 C 
ENDROOT
BRANCH   9  10
ATOM     10  O   UNL     1     112.600 127.618 141.527  0.00  0.00    +0.000 OA
BRANCH  10  14
ATOM     11  O   UNL     1     113.077 126.253 138.998  0.00  0.00    +0.000 OA
ATOM     12  O   UNL     1     110.373 126.541 139.973  0.00  0.00    +0.000 OA
ATOM     13  O   UNL     1     110.647 125.871 138.725  0.00  0.00    +0.000 OA
ATOM     14  C   UNL     1     112.314 127.220 140.863  0.00  0.00    +0.000 A 
ATOM     15  C   UNL     1     112.794 125.855 138.333  0.00  0.00    +0.000 C 
ATOM     16  C   UNL     1     112.550 126.523 139.573  0.00  0.00    +0.000 A 
ATOM     17  C   UNL     1     112.857 126.936 140.261  0.00  0.00    +0.000 A 
ATOM     18  C   UNL     1     111.740 126.396 139.482  0.00  0.00    +0.000 A 
ATOM     19  C   UNL     1     111.985 125.728 138.242  0.00  0.00    +0.000 C 
ATOM     20  C   UNL     1     111.470 127.087 140.768  0.00  0.00    +0.000 A 
ATOM     21  C   UNL     1     111.458 125.998 138.817  0.00  0.00    +0.000 C 
ATOM     22  C   UNL     1     111.181 126.673 140.073  0.00  0.00    +0.000 A 
BRANCH  15  24
ATOM     23  O   UNL     1     114.904 124.773 136.037  0.00  0.00    +0.000 OA
ATOM     24  C   UNL     1     113.322 125.584 137.759  0.00  0.00    +0.000 A 
ATOM     25  C   UNL     1     114.129 125.547 137.925  0.00  0.00    +0.000 A 
ATOM     26  C   UNL     1     113.041 125.352 137.019  0.00  0.00    +0.000 A 
ATOM     27  C   UNL     1     114.656 125.276 137.351  0.00  0.00    +0.000 A 
ATOM     28  C   UNL     1     113.569 125.082 136.445  0.00  0.00    +0.000 A 
ATOM     29  C   UNL     1     114.376 125.044 136.611  0.00  0.00    +0.000 A 
ENDBRANCH  15  24
ENDBRANCH  10  14
ENDBRANCH   9  10
BRANCH   7  30
ATOM     30  C   UNL     1     113.035 130.160 140.296  0.00  0.00    +0.000 C 
BRANCH  30  31
ATOM     31  O   UNL     1     113.413 129.794 139.661  0.00  0.00    +0.000 OA
BRANCH  31  33
ATOM     32  O   UNL     1     113.946 130.890 138.915  0.00  0.00    +0.000 OA
ATOM     33  C   UNL     1     113.502 130.195 138.946  0.00  0.00    +0.000 C 
BRANCH  33  34
ATOM     34  C   UNL     1     113.147 129.903 138.261  0.00  0.00    +0.000 C 
ATOM     35  C   UNL     1     113.608 129.555 137.673  0.00  0.00    +0.000 C 
BRANCH  35  37
ATOM     36  O   UNL     1     112.190 128.385 134.932  0.00  0.00    +0.000 OA
ATOM     37  C   UNL     1     113.253 129.262 136.988  0.00  0.00    +0.000 A 
ATOM     38  C   UNL     1     113.720 129.031 136.348  0.00  0.00    +0.000 A 
ATOM     39  C   UNL     1     112.432 129.201 136.942  0.00  0.00    +0.000 A 
ATOM     40  C   UNL     1     113.366 128.738 135.663  0.00  0.00    +0.000 A 
ATOM     41  C   UNL     1     112.077 128.909 136.258  0.00  0.00    +0.000 A 
ATOM     42  C   UNL     1     112.544 128.677 135.618  0.00  0.00    +0.000 A 
ENDBRANCH  35  37
ENDBRANCH  33  34
ENDBRANCH  31  33
ENDBRANCH  30  31
ENDBRANCH   7  30
TORSDOF 8
ENDMDL
MODEL 5
REMARK VINA RESULT:      -9.7      1.901      3.334
REMARK  Name = 6290103
REMARK  8 active torsions:
REMARK  status: ('A' for Active; 'I' for Inactive)
REMARK    1  A    between atoms: O_2  and  C_17
REMARK    2  A    between atoms: O_2  and  C_19
REMARK    3  A    between atoms: O_6  and  C_18
REMARK    4  A    between atoms: O_6  and  C_29
REMARK    5  A    between atoms: C_15  and  C_18
REMARK    6  A    between atoms: C_20  and  C_28
REMARK    7  A    between atoms: C_29  and  C_32
REMARK    8  A    between atoms: C_36  and  C_37
REMARK                            x       y       z     vdW  Elec       q    Type
REMARK                         _______ _______ _______ _____ _____    ______ ____
ROOT
ATOM      1  O   UNL     1     110.115 130.782 136.765  0.00  0.00    +0.000 OA
ATOM      2  O   UNL     1     108.179 131.490 137.483  0.00  0.00    +0.000 OA
ATOM      3  O   UNL     1     109.187 132.626 138.130  0.00  0.00    +0.000 OA
ATOM      4  O   UNL     1     110.813 132.532 137.866  0.00  0.00    +0.000 OA
ATOM      5  C   UNL     1     108.992 131.443 137.351  0.00  0.00    +0.000 C 
ATOM      6  C   UNL     1     109.496 132.011 137.675  0.00  0.00    +0.000 C 
ATOM      7  C   UNL     1     109.302 130.828 136.897  0.00  0.00    +0.000 C 
ATOM      8  C   UNL     1     110.309 131.964 137.543  0.00  0.00    +0.000 C 
ATOM      9  C   UNL     1     110.618 131.349 137.088  0.00  0.00    +0.000 C 
ENDROOT
BRANCH   9  10
ATOM     10  O   UNL     1     111.432 131.303 136.957  0.00  0.00    +0.000 OA
BRANCH  10  14
ATOM     11  O   UNL     1     112.241 128.837 138.280  0.00  0.00    +0.000 OA
ATOM     12  O   UNL     1     112.907 129.246 135.498  0.00  0.00    +0.000 OA
ATOM     13  O   UNL     1     113.292 128.038 136.187  0.00  0.00    +0.000 OA
ATOM     14  C   UNL     1     111.804 130.567 136.934  0.00  0.00    +0.000 A 
ATOM     15  C   UNL     1     112.612 128.101 138.259  0.00  0.00    +0.000 C 
ATOM     16  C   UNL     1     112.220 129.307 137.602  0.00  0.00    +0.000 A 
ATOM     17  C   UNL     1     111.830 130.072 137.636  0.00  0.00    +0.000 A 
ATOM     18  C   UNL     1     112.570 129.041 136.904  0.00  0.00    +0.000 A 
ATOM     19  C   UNL     1     112.962 127.835 137.562  0.00  0.00    +0.000 C 
ATOM     20  C   UNL     1     112.169 130.289 136.206  0.00  0.00    +0.000 A 
ATOM     21  C   UNL     1     112.941 128.305 136.885  0.00  0.00    +0.000 C 
ATOM     22  C   UNL     1     112.554 129.521 136.192  0.00  0.00    +0.000 A 
BRANCH  15  24
ATOM     23  O   UNL     1     112.696 126.221 140.971  0.00  0.00    +0.000 OA
ATOM     24  C   UNL     1     112.634 127.631 138.938  0.00  0.00    +0.000 A 
ATOM     25  C   UNL     1     112.031 127.086 139.081  0.00  0.00    +0.000 A 
ATOM     26  C   UNL     1     113.257 127.706 139.472  0.00  0.00    +0.000 A 
ATOM     27  C   UNL     1     112.052 126.617 139.759  0.00  0.00    +0.000 A 
ATOM     28  C   UNL     1     113.278 127.236 140.150  0.00  0.00    +0.000 A 
ATOM     29  C   UNL     1     112.676 126.691 140.293  0.00  0.00    +0.000 A 
ENDBRANCH  15  24
ENDBRANCH  10  14
ENDBRANCH   9  10
BRANCH   7  30
ATOM     30  C   UNL     1     108.798 130.261 136.574  0.00  0.00    +0.000 C 
BRANCH  30  31
ATOM     31  O   UNL     1     109.088 129.712 136.029  0.00  0.00    +0.000 OA
BRANCH  31  33
ATOM     32  O   UNL     1     107.886 129.018 135.695  0.00  0.00    +0.000 OA
ATOM     33  C   UNL     1     108.685 129.005 135.900  0.00  0.00    +0.000 C 
BRANCH  33  34
ATOM     34  C   UNL     1     109.079 128.284 135.977  0.00  0.00    +0.000 C 
ATOM     35  C   UNL     1     109.328 127.877 135.306  0.00  0.00    +0.000 C 
BRANCH  35  37
ATOM     36  O   UNL     1     110.906 124.994 135.610  0.00  0.00    +0.000 OA
ATOM     37  C   UNL     1     109.723 127.156 135.382  0.00  0.00    +0.000 A 
ATOM     38  C   UNL     1     110.173 126.864 134.756  0.00  0.00    +0.000 A 
ATOM     39  C   UNL     1     109.667 126.727 136.084  0.00  0.00    +0.000 A 
ATOM     40  C   UNL     1     110.568 126.144 134.831  0.00  0.00    +0.000 A 
ATOM     41  C   UNL     1     110.061 126.007 136.160  0.00  0.00    +0.000 A 
ATOM     42  C   UNL     1     110.511 125.715 135.534  0.00  0.00    +0.000 A 
ENDBRANCH  35  37
ENDBRANCH  33  34
ENDBRANCH  31  33
ENDBRANCH  30  31
ENDBRANCH   7  30
TORSDOF 8
ENDMDL
MODEL 6
REMARK VINA RESULT:      -9.7      1.731      3.272
REMARK  Name = 6290103
REMARK  8 active torsions:
REMARK  status: ('A' for Active; 'I' for Inactive)
REMARK    1  A    between atoms: O_2  and  C_17
REMARK    2  A    between atoms: O_2  and  C_19
REMARK    3  A    between atoms: O_6  and  C_18
REMARK    4  A    between atoms: O_6  and  C_29
REMARK    5  A    between atoms: C_15  and  C_18
REMARK    6  A    between atoms: C_20  and  C_28
REMARK    7  A    between atoms: C_29  and  C_32
REMARK    8  A    between atoms: C_36  and  C_37
REMARK                            x       y       z     vdW  Elec       q    Type
REMARK                         _______ _______ _______ _____ _____    ______ ____
ROOT
ATOM      1  O   UNL     1     109.943 129.145 136.512  0.00  0.00    +0.000 OA
ATOM      2  O   UNL     1     108.398 130.479 137.288  0.00  0.00    +0.000 OA
ATOM      3  O   UNL     1     108.291 130.785 135.670  0.00  0.00    +0.000 OA
ATOM      4  O   UNL     1     109.285 129.997 134.613  0.00  0.00    +0.000 OA
ATOM      5  C   UNL     1     108.895 130.085 136.760  0.00  0.00    +0.000 C 
ATOM      6  C   UNL     1     108.842 130.238 135.951  0.00  0.00    +0.000 C 
ATOM      7  C   UNL     1     109.446 129.538 137.041  0.00  0.00    +0.000 C 
ATOM      8  C   UNL     1     109.339 129.844 135.423  0.00  0.00    +0.000 C 
ATOM      9  C   UNL     1     109.889 129.298 135.704  0.00  0.00    +0.000 C 
ENDROOT
BRANCH   9  10
ATOM     10  O   UNL     1     110.386 128.904 135.175  0.00  0.00    +0.000 OA
BRANCH  10  14
ATOM     11  O   UNL     1     112.467 127.106 136.133  0.00  0.00    +0.000 OA
ATOM     12  O   UNL     1     113.141 129.833 135.456  0.00  0.00    +0.000 OA
ATOM     13  O   UNL     1     114.146 128.914 135.934  0.00  0.00    +0.000 OA
ATOM     14  C   UNL     1     111.173 128.764 135.377  0.00  0.00    +0.000 A 
ATOM     15  C   UNL     1     113.254 126.963 136.335  0.00  0.00    +0.000 C 
ATOM     16  C   UNL     1     112.239 127.852 135.864  0.00  0.00    +0.000 A 
ATOM     17  C   UNL     1     111.417 127.989 135.657  0.00  0.00    +0.000 A 
ATOM     18  C   UNL     1     112.799 128.455 135.798  0.00  0.00    +0.000 A 
ATOM     19  C   UNL     1     113.813 127.565 136.269  0.00  0.00    +0.000 C 
ATOM     20  C   UNL     1     111.757 129.392 135.307  0.00  0.00    +0.000 A 
ATOM     21  C   UNL     1     113.585 128.311 136.000  0.00  0.00    +0.000 C 
ATOM     22  C   UNL     1     112.574 129.236 135.519  0.00  0.00    +0.000 A 
BRANCH  15  24
ATOM     23  O   UNL     1     114.164 123.978 137.410  0.00  0.00    +0.000 OA
ATOM     24  C   UNL     1     113.481 126.216 136.604  0.00  0.00    +0.000 A 
ATOM     25  C   UNL     1     114.260 126.083 136.842  0.00  0.00    +0.000 A 
ATOM     26  C   UNL     1     112.930 125.604 136.635  0.00  0.00    +0.000 A 
ATOM     27  C   UNL     1     114.487 125.337 137.110  0.00  0.00    +0.000 A 
ATOM     28  C   UNL     1     113.157 124.858 136.904  0.00  0.00    +0.000 A 
ATOM     29  C   UNL     1     113.936 124.724 137.141  0.00  0.00    +0.000 A 
ENDBRANCH  15  24
ENDBRANCH  10  14
ENDBRANCH   9  10
BRANCH   7  30
ATOM     30  C   UNL     1     109.499 129.386 137.849  0.00  0.00    +0.000 C 
BRANCH  30  31
ATOM     31  O   UNL     1     109.850 128.688 138.116  0.00  0.00    +0.000 OA
BRANCH  31  33
ATOM     32  O   UNL     1     109.398 128.615 139.469  0.00  0.00    +0.000 OA
ATOM     33  C   UNL     1     110.012 128.587 138.918  0.00  0.00    +0.000 C 
BRANCH  33  34
ATOM     34  C   UNL     1     110.787 128.458 139.170  0.00  0.00    +0.000 C 
ATOM     35  C   UNL     1     111.018 127.710 139.428  0.00  0.00    +0.000 C 
BRANCH  35  37
ATOM     36  O   UNL     1     114.118 127.196 140.437  0.00  0.00    +0.000 OA
ATOM     37  C   UNL     1     111.793 127.581 139.680  0.00  0.00    +0.000 A 
ATOM     38  C   UNL     1     112.346 128.192 139.641  0.00  0.00    +0.000 A 
ATOM     39  C   UNL     1     112.015 126.842 139.971  0.00  0.00    +0.000 A 
ATOM     40  C   UNL     1     113.121 128.064 139.893  0.00  0.00    +0.000 A 
ATOM     41  C   UNL     1     112.789 126.714 140.223  0.00  0.00    +0.000 A 
ATOM     42  C   UNL     1     113.342 127.325 140.184  0.00  0.00    +0.000 A 
ENDBRANCH  35  37
ENDBRANCH  33  34
ENDBRANCH  31  33
ENDBRANCH  30  31
ENDBRANCH   7  30
TORSDOF 8
ENDMDL
MODEL 7
REMARK VINA RESULT:      -9.7      1.108      4.701
REMARK  Name = 6290103
REMARK  8 active torsions:
REMARK  status: ('A' for Active; 'I' for Inactive)
REMARK    1  A    between atoms: O_2  and  C_17
REMARK    2  A    between atoms: O_2  and  C_19
REMARK    3  A    between atoms: O_6  and  C_18
REMARK    4  A    between atoms: O_6  and  C_29
REMARK    5  A    between atoms: C_15  and  C_18
REMARK    6  A    between atoms: C_20  and  C_28
REMARK    7  A    between atoms: C_29  and  C_32
REMARK    8  A    between atoms: C_36  and  C_37
REMARK                            x       y       z     vdW  Elec       q    Type
REMARK                         _______ _______ _______ _____ _____    ______ ____
ROOT
ATOM      1  O   UNL     1     113.437 129.329 139.267  0.00  0.00    +0.000 OA
ATOM      2  O   UNL     1     114.508 128.785 141.090  0.00  0.00    +0.000 OA
ATOM      3  O   UNL     1     115.097 130.304 140.823  0.00  0.00    +0.000 OA
ATOM      4  O   UNL     1     114.579 131.172 139.519  0.00  0.00    +0.000 OA
ATOM      5  C   UNL     1     114.249 129.219 140.438  0.00  0.00    +0.000 C 
ATOM      6  C   UNL     1     114.544 129.979 140.305  0.00  0.00    +0.000 C 
ATOM      7  C   UNL     1     113.696 128.894 139.919  0.00  0.00    +0.000 C 
ATOM      8  C   UNL     1     114.284 130.412 139.653  0.00  0.00    +0.000 C 
ATOM      9  C   UNL     1     113.731 130.088 139.134  0.00  0.00    +0.000 C 
ENDROOT
BRANCH   9  10
ATOM     10  O   UNL     1     113.472 130.523 138.482  0.00  0.00    +0.000 OA
BRANCH  10  14
ATOM     11  O   UNL     1     111.347 129.411 136.829  0.00  0.00    +0.000 OA
ATOM     12  O   UNL     1     114.088 129.238 135.932  0.00  0.00    +0.000 OA
ATOM     13  O   UNL     1     113.009 128.699 135.140  0.00  0.00    +0.000 OA
ATOM     14  C   UNL     1     113.228 130.133 137.798  0.00  0.00    +0.000 A 
ATOM     15  C   UNL     1     111.100 129.022 136.145  0.00  0.00    +0.000 C 
ATOM     16  C   UNL     1     112.149 129.564 136.950  0.00  0.00    +0.000 A 
ATOM     17  C   UNL     1     112.394 129.971 137.666  0.00  0.00    +0.000 A 
ATOM     18  C   UNL     1     112.704 129.327 136.387  0.00  0.00    +0.000 A 
ATOM     19  C   UNL     1     111.654 128.784 135.583  0.00  0.00    +0.000 C 
ATOM     20  C   UNL     1     113.805 129.885 137.211  0.00  0.00    +0.000 A 
ATOM     21  C   UNL     1     112.455 128.937 135.703  0.00  0.00    +0.000 C 
ATOM     22  C   UNL     1     113.541 129.480 136.501  0.00  0.00    +0.000 A 
BRANCH  15  24
ATOM     23  O   UNL     1     107.892 128.413 135.664  0.00  0.00    +0.000 OA
ATOM     24  C   UNL     1     110.297 128.869 136.025  0.00  0.00    +0.000 A 
ATOM     25  C   UNL     1     109.817 129.441 135.674  0.00  0.00    +0.000 A 
ATOM     26  C   UNL     1     109.977 128.145 136.256  0.00  0.00    +0.000 A 
ATOM     27  C   UNL     1     109.016 129.288 135.554  0.00  0.00    +0.000 A 
ATOM     28  C   UNL     1     109.175 127.993 136.135  0.00  0.00    +0.000 A 
ATOM     29  C   UNL     1     108.694 128.565 135.784  0.00  0.00    +0.000 A 
ENDBRANCH  15  24
ENDBRANCH  10  14
ENDBRANCH   9  10
BRANCH   7  30
ATOM     30  C   UNL     1     113.402 128.136 140.052  0.00  0.00    +0.000 C 
BRANCH  30  31
ATOM     31  O   UNL     1     113.416 127.575 139.447  0.00  0.00    +0.000 OA
BRANCH  31  33
ATOM     32  O   UNL     1     113.003 126.475 140.259  0.00  0.00    +0.000 OA
ATOM     33  C   UNL     1     113.005 126.865 139.533  0.00  0.00    +0.000 C 
BRANCH  33  34
ATOM     34  C   UNL     1     112.596 126.545 138.892  0.00  0.00    +0.000 C 
ATOM     35  C   UNL     1     112.958 125.981 138.411  0.00  0.00    +0.000 C 
BRANCH  35  37
ATOM     36  O   UNL     1     111.324 124.700 135.845  0.00  0.00    +0.000 OA
ATOM     37  C   UNL     1     112.549 125.661 137.770  0.00  0.00    +0.000 A 
ATOM     38  C   UNL     1     112.914 125.611 137.032  0.00  0.00    +0.000 A 
ATOM     39  C   UNL     1     111.776 125.390 137.866  0.00  0.00    +0.000 A 
ATOM     40  C   UNL     1     112.506 125.291 136.390  0.00  0.00    +0.000 A 
ATOM     41  C   UNL     1     111.368 125.070 137.226  0.00  0.00    +0.000 A 
ATOM     42  C   UNL     1     111.733 125.021 136.487  0.00  0.00    +0.000 A 
ENDBRANCH  35  37
ENDBRANCH  33  34
ENDBRANCH  31  33
ENDBRANCH  30  31
ENDBRANCH   7  30
TORSDOF 8
ENDMDL
MODEL 8
REMARK VINA RESULT:      -9.6      1.827      4.228
REMARK  Name = 6290103
REMARK  8 active torsions:
REMARK  status: ('A' for Active; 'I' for Inactive)
REMARK    1  A    between atoms: O_2  and  C_17
REMARK    2  A    between atoms: O_2  and  C_19
REMARK    3  A    between atoms: O_6  and  C_18
REMARK    4  A    between atoms: O_6  and  C_29
REMARK    5  A    between atoms: C_15  and  C_18
REMARK    6  A    between atoms: C_20  and  C_28
REMARK    7  A    between atoms: C_29  and  C_32
REMARK    8  A    between atoms: C_36  and  C_37
REMARK                            x       y       z     vdW  Elec       q    Type
REMARK                         _______ _______ _______ _____ _____    ______ ____
ROOT
ATOM      1  O   UNL     1     109.978 128.777 136.683  0.00  0.00    +0.000 OA
ATOM      2  O   UNL     1     109.133 130.789 136.711  0.00  0.00    +0.000 OA
ATOM      3  O   UNL     1     107.932 129.956 135.945  0.00  0.00    +0.000 OA
ATOM      4  O   UNL     1     108.095 128.337 135.671  0.00  0.00    +0.000 OA
ATOM      5  C   UNL     1     109.215 129.980 136.574  0.00  0.00    +0.000 C 
ATOM      6  C   UNL     1     108.614 129.563 136.191  0.00  0.00    +0.000 C 
ATOM      7  C   UNL     1     109.897 129.586 136.820  0.00  0.00    +0.000 C 
ATOM      8  C   UNL     1     108.696 128.754 136.054  0.00  0.00    +0.000 C 
ATOM      9  C   UNL     1     109.378 128.361 136.300  0.00  0.00    +0.000 C 
ENDROOT
BRANCH   9  10
ATOM     10  O   UNL     1     109.460 127.551 136.163  0.00  0.00    +0.000 OA
BRANCH  10  14
ATOM     11  O   UNL     1     111.787 126.069 137.096  0.00  0.00    +0.000 OA
ATOM     12  O   UNL     1     109.378 126.091 138.692  0.00  0.00    +0.000 OA
ATOM     13  O   UNL     1     110.550 125.368 139.122  0.00  0.00    +0.000 OA
ATOM     14  C   UNL     1     109.824 127.072 136.727  0.00  0.00    +0.000 A 
ATOM     15  C   UNL     1     112.154 125.590 137.659  0.00  0.00    +0.000 C 
ATOM     16  C   UNL     1     111.007 126.314 137.209  0.00  0.00    +0.000 A 
ATOM     17  C   UNL     1     110.636 126.813 136.616  0.00  0.00    +0.000 A 
ATOM     18  C   UNL     1     110.595 126.081 137.884  0.00  0.00    +0.000 A 
ATOM     19  C   UNL     1     111.742 125.356 138.333  0.00  0.00    +0.000 C 
ATOM     20  C   UNL     1     109.395 126.828 137.431  0.00  0.00    +0.000 A 
ATOM     21  C   UNL     1     110.963 125.602 138.446  0.00  0.00    +0.000 C 
ATOM     22  C   UNL     1     109.783 126.329 138.013  0.00  0.00    +0.000 A 
BRANCH  15  24
ATOM     23  O   UNL     1     115.273 124.610 137.207  0.00  0.00    +0.000 OA
ATOM     24  C   UNL     1     112.934 125.345 137.545  0.00  0.00    +0.000 A 
ATOM     25  C   UNL     1     113.554 125.773 137.882  0.00  0.00    +0.000 A 
ATOM     26  C   UNL     1     113.093 124.672 137.096  0.00  0.00    +0.000 A 
ATOM     27  C   UNL     1     114.333 125.528 137.769  0.00  0.00    +0.000 A 
ATOM     28  C   UNL     1     113.873 124.427 136.983  0.00  0.00    +0.000 A 
ATOM     29  C   UNL     1     114.493 124.855 137.319  0.00  0.00    +0.000 A 
ENDBRANCH  15  24
ENDBRANCH  10  14
ENDBRANCH   9  10
BRANCH   7  30
ATOM     30  C   UNL     1     110.497 130.002 137.203  0.00  0.00    +0.000 C 
BRANCH  30  31
ATOM     31  O   UNL     1     110.727 129.788 137.966  0.00  0.00    +0.000 OA
BRANCH  31  33
ATOM     32  O   UNL     1     111.708 130.809 138.154  0.00  0.00    +0.000 OA
ATOM     33  C   UNL     1     111.458 130.030 138.260  0.00  0.00    +0.000 C 
BRANCH  33  34
ATOM     34  C   UNL     1     111.940 129.494 138.662  0.00  0.00    +0.000 C 
ATOM     35  C   UNL     1     111.953 129.487 139.486  0.00  0.00    +0.000 C 
BRANCH  35  37
ATOM     36  O   UNL     1     113.878 127.342 141.093  0.00  0.00    +0.000 OA
ATOM     37  C   UNL     1     112.435 128.951 139.887  0.00  0.00    +0.000 A 
ATOM     38  C   UNL     1     112.102 128.419 140.424  0.00  0.00    +0.000 A 
ATOM     39  C   UNL     1     113.248 128.946 139.753  0.00  0.00    +0.000 A 
ATOM     40  C   UNL     1     112.583 127.883 140.826  0.00  0.00    +0.000 A 
ATOM     41  C   UNL     1     113.729 128.410 140.154  0.00  0.00    +0.000 A 
ATOM     42  C   UNL     1     113.397 127.879 140.691  0.00  0.00    +0.000 A 
ENDBRANCH  35  37
ENDBRANCH  33  34
ENDBRANCH  31  33
ENDBRANCH  30  31
ENDBRANCH   7  30
TORSDOF 8
ENDMDL
MODEL 9
REMARK VINA RESULT:      -9.6      1.942      3.833
REMARK  Name = 6290103
REMARK  8 active torsions:
REMARK  status: ('A' for Active; 'I' for Inactive)
REMARK    1  A    between atoms: O_2  and  C_17
REMARK    2  A    between atoms: O_2  and  C_19
REMARK    3  A    between atoms: O_6  and  C_18
REMARK    4  A    between atoms: O_6  and  C_29
REMARK    5  A    between atoms: C_15  and  C_18
REMARK    6  A    between atoms: C_20  and  C_28
REMARK    7  A    between atoms: C_29  and  C_32
REMARK    8  A    between atoms: C_36  and  C_37
REMARK                            x       y       z     vdW  Elec       q    Type
REMARK                         _______ _______ _______ _____ _____    ______ ____
ROOT
ATOM      1  O   UNL     1     111.458 126.513 137.383  0.00  0.00    +0.000 OA
ATOM      2  O   UNL     1     111.493 124.445 138.080  0.00  0.00    +0.000 OA
ATOM      3  O   UNL     1     111.393 124.222 136.448  0.00  0.00    +0.000 OA
ATOM      4  O   UNL     1     111.336 125.527 135.439  0.00  0.00    +0.000 OA
ATOM      5  C   UNL     1     111.465 125.097 137.576  0.00  0.00    +0.000 C 
ATOM      6  C   UNL     1     111.415 124.986 136.759  0.00  0.00    +0.000 C 
ATOM      7  C   UNL     1     111.486 125.861 137.888  0.00  0.00    +0.000 C 
ATOM      8  C   UNL     1     111.386 125.639 136.256  0.00  0.00    +0.000 C 
ATOM      9  C   UNL     1     111.408 126.402 136.567  0.00  0.00    +0.000 C 
ENDROOT
BRANCH   9  10
ATOM     10  O   UNL     1     111.380 127.054 136.062  0.00  0.00    +0.000 OA
BRANCH  10  14
ATOM     11  O   UNL     1     111.327 129.784 137.076  0.00  0.00    +0.000 OA
ATOM     12  O   UNL     1     113.846 128.602 136.300  0.00  0.00    +0.000 OA
ATOM     13  O   UNL     1     113.781 129.951 136.806  0.00  0.00    +0.000 OA
ATOM     14  C   UNL     1     111.774 127.750 136.266  0.00  0.00    +0.000 A 
ATOM     15  C   UNL     1     111.718 130.481 137.280  0.00  0.00    +0.000 C 
ATOM     16  C   UNL     1     111.754 129.142 136.782  0.00  0.00    +0.000 A 
ATOM     17  C   UNL     1     111.335 128.422 136.573  0.00  0.00    +0.000 A 
ATOM     18  C   UNL     1     112.572 129.198 136.691  0.00  0.00    +0.000 A 
ATOM     19  C   UNL     1     112.535 130.537 137.190  0.00  0.00    +0.000 C 
ATOM     20  C   UNL     1     112.626 127.808 136.172  0.00  0.00    +0.000 A 
ATOM     21  C   UNL     1     112.962 129.895 136.896  0.00  0.00    +0.000 C 
ATOM     22  C   UNL     1     113.028 128.537 136.386  0.00  0.00    +0.000 A 
BRANCH  15  24
ATOM     23  O   UNL     1     110.008 133.047 138.457  0.00  0.00    +0.000 OA
ATOM     24  C   UNL     1     111.290 131.123 137.574  0.00  0.00    +0.000 A 
ATOM     25  C   UNL     1     110.939 131.078 138.319  0.00  0.00    +0.000 A 
ATOM     26  C   UNL     1     111.214 131.809 137.123  0.00  0.00    +0.000 A 
ATOM     27  C   UNL     1     110.512 131.719 138.613  0.00  0.00    +0.000 A 
ATOM     28  C   UNL     1     110.787 132.451 137.417  0.00  0.00    +0.000 A 
ATOM     29  C   UNL     1     110.436 132.406 138.162  0.00  0.00    +0.000 A 
ENDBRANCH  15  24
ENDBRANCH  10  14
ENDBRANCH   9  10
BRANCH   7  30
ATOM     30  C   UNL     1     111.536 125.972 138.703  0.00  0.00    +0.000 C 
BRANCH  30  31
ATOM     31  O   UNL     1     112.180 126.374 139.027  0.00  0.00    +0.000 OA
BRANCH  31  33
ATOM     32  O   UNL     1     111.903 126.203 140.418  0.00  0.00    +0.000 OA
ATOM     33  C   UNL     1     112.132 126.685 139.788  0.00  0.00    +0.000 C 
BRANCH  33  34
ATOM     34  C   UNL     1     112.313 127.479 139.922  0.00  0.00    +0.000 C 
ATOM     35  C   UNL     1     112.995 127.683 140.337  0.00  0.00    +0.000 C 
BRANCH  35  37
ATOM     36  O   UNL     1     113.720 130.858 140.871  0.00  0.00    +0.000 OA
ATOM     37  C   UNL     1     113.176 128.477 140.471  0.00  0.00    +0.000 A 
ATOM     38  C   UNL     1     113.908 128.778 140.238  0.00  0.00    +0.000 A 
ATOM     39  C   UNL     1     112.626 128.970 140.837  0.00  0.00    +0.000 A 
ATOM     40  C   UNL     1     114.090 129.572 140.371  0.00  0.00    +0.000 A 
ATOM     41  C   UNL     1     112.807 129.763 140.971  0.00  0.00    +0.000 A 
ATOM     42  C   UNL     1     113.539 130.064 140.738  0.00  0.00    +0.000 A 
ENDBRANCH  35  37
ENDBRANCH  33  34
ENDBRANCH  31  33
ENDBRANCH  30  31
ENDBRANCH   7  30
TORSDOF 8
ENDMDL
MODEL 10
REMARK VINA RESULT:      -9.5      1.774      4.712
REMARK  Name = 6290103
REMARK  8 active torsions:
REMARK  status: ('A' for Active; 'I' for Inactive)
REMARK    1  A    between atoms: O_2  and  C_17
REMARK    2  A    between atoms: O_2  and  C_19
REMARK    3  A    between atoms: O_6  and  C_18
REMARK    4  A    between atoms: O_6  and  C_29
REMARK    5  A    between atoms: C_15  and  C_18
REMARK    6  A    between atoms: C_20  and  C_28
REMARK    7  A    between atoms: C_29  and  C_32
REMARK    8  A    between atoms: C_36  and  C_37
REMARK                            x       y       z     vdW  Elec       q    Type
REMARK                         _______ _______ _______ _____ _____    ______ ____
ROOT
ATOM      1  O   UNL     1     112.850 125.623 137.648  0.00  0.00    +0.000 OA
ATOM      2  O   UNL     1     113.708 124.294 136.144  0.00  0.00    +0.000 OA
ATOM      3  O   UNL     1     115.026 124.582 137.094  0.00  0.00    +0.000 OA
ATOM      4  O   UNL     1     114.893 125.563 138.414  0.00  0.00    +0.000 OA
ATOM      5  C   UNL     1     113.641 124.785 136.803  0.00  0.00    +0.000 C 
ATOM      6  C   UNL     1     114.301 124.929 137.279  0.00  0.00    +0.000 C 
ATOM      7  C   UNL     1     112.916 125.132 136.988  0.00  0.00    +0.000 C 
ATOM      8  C   UNL     1     114.234 125.420 137.938  0.00  0.00    +0.000 C 
ATOM      9  C   UNL     1     113.508 125.767 138.123  0.00  0.00    +0.000 C 
ENDROOT
BRANCH   9  10
ATOM     10  O   UNL     1     113.443 126.258 138.783  0.00  0.00    +0.000 OA
BRANCH  10  14
ATOM     11  O   UNL     1     112.090 128.777 138.228  0.00  0.00    +0.000 OA
ATOM     12  O   UNL     1     110.769 126.776 139.840  0.00  0.00    +0.000 OA
ATOM     13  O   UNL     1     110.130 128.035 139.545  0.00  0.00    +0.000 OA
ATOM     14  C   UNL     1     112.787 126.752 138.865  0.00  0.00    +0.000 A 
ATOM     15  C   UNL     1     111.435 129.273 138.309  0.00  0.00    +0.000 C 
ATOM     16  C   UNL     1     112.091 128.034 138.587  0.00  0.00    +0.000 A 
ATOM     17  C   UNL     1     112.779 127.527 138.495  0.00  0.00    +0.000 A 
ATOM     18  C   UNL     1     111.438 127.786 139.026  0.00  0.00    +0.000 A 
ATOM     19  C   UNL     1     110.783 129.026 138.748  0.00  0.00    +0.000 C 
ATOM     20  C   UNL     1     112.106 126.494 139.323  0.00  0.00    +0.000 A 
ATOM     21  C   UNL     1     110.784 128.282 139.106  0.00  0.00    +0.000 C 
ATOM     22  C   UNL     1     111.427 127.015 139.403  0.00  0.00    +0.000 A 
BRANCH  15  24
ATOM     23  O   UNL     1     111.432 132.246 136.875  0.00  0.00    +0.000 OA
ATOM     24  C   UNL     1     111.434 130.017 137.951  0.00  0.00    +0.000 A 
ATOM     25  C   UNL     1     111.942 130.170 137.318  0.00  0.00    +0.000 A 
ATOM     26  C   UNL     1     110.926 130.605 138.225  0.00  0.00    +0.000 A 
ATOM     27  C   UNL     1     111.940 130.913 136.960  0.00  0.00    +0.000 A 
ATOM     28  C   UNL     1     110.926 131.348 137.867  0.00  0.00    +0.000 A 
ATOM     29  C   UNL     1     111.433 131.503 137.234  0.00  0.00    +0.000 A 
ENDBRANCH  15  24
ENDBRANCH  10  14
ENDBRANCH   9  10
BRANCH   7  30
ATOM     30  C   UNL     1     112.257 124.989 136.513  0.00  0.00    +0.000 C 
BRANCH  30  31
ATOM     31  O   UNL     1     111.951 125.590 136.039  0.00  0.00    +0.000 OA
BRANCH  31  33
ATOM     32  O   UNL     1     110.851 124.885 135.462  0.00  0.00    +0.000 OA
ATOM     33  C   UNL     1     111.161 125.569 135.804  0.00  0.00    +0.000 C 
BRANCH  33  34
ATOM     34  C   UNL     1     110.680 126.231 135.911  0.00  0.00    +0.000 C 
ATOM     35  C   UNL     1     110.362 126.621 135.258  0.00  0.00    +0.000 C 
BRANCH  35  37
ATOM     36  O   UNL     1     108.437 129.266 135.688  0.00  0.00    +0.000 OA
ATOM     37  C   UNL     1     109.881 127.283 135.365  0.00  0.00    +0.000 A 
ATOM     38  C   UNL     1     109.215 127.234 135.849  0.00  0.00    +0.000 A 
ATOM     39  C   UNL     1     110.066 127.993 134.989  0.00  0.00    +0.000 A 
ATOM     40  C   UNL     1     108.733 127.894 135.956  0.00  0.00    +0.000 A 
ATOM     41  C   UNL     1     109.585 128.654 135.096  0.00  0.00    +0.000 A 
ATOM     42  C   UNL     1     108.919 128.604 135.580  0.00  0.00    +0.000 A 
ENDBRANCH  35  37
ENDBRANCH  33  34
ENDBRANCH  31  33
ENDBRANCH  30  31
ENDBRANCH   7  30
TORSDOF 8
ENDMDL
