MODEL 1
REMARK VINA RESULT:      -9.6      0.000      0.000
REMARK  Name = 44258420
REMARK  3 active torsions:
REMARK  status: ('A' for Active; 'I' for Inactive)
REMARK    1  A    between atoms: O_2  and  C_14
REMARK    2  A    between atoms: O_2  and  C_16
REMARK    3  A    between atoms: C_23  and  C_25
REMARK                            x       y       z     vdW  Elec       q    Type
REMARK                         _______ _______ _______ _____ _____    ______ ____
ROOT
ATOM      1  O   UNL     1     113.181 127.217 138.163  0.00  0.00    +0.000 OA
ATOM      2  O   UNL     1     113.441 128.164 140.885  0.00  0.00    +0.000 OA
ATOM      3  O   UNL     1     112.692 129.982 138.810  0.00  0.00    +0.000 OA
ATOM      4  O   UNL     1     113.694 126.773 140.602  0.00  0.00    +0.000 OA
ATOM      5  C   UNL     1     113.066 129.073 139.848  0.00  0.00    +0.000 A 
ATOM      6  C   UNL     1     113.273 128.312 140.091  0.00  0.00    +0.000 A 
ATOM      7  C   UNL     1     113.312 127.699 139.541  0.00  0.00    +0.000 A 
ATOM      8  C   UNL     1     112.898 129.221 139.054  0.00  0.00    +0.000 A 
ATOM      9  C   UNL     1     113.144 127.847 138.746  0.00  0.00    +0.000 A 
ATOM     10  C   UNL     1     112.937 128.608 138.503  0.00  0.00    +0.000 A 
ATOM     11  C   UNL     1     113.528 126.911 139.806  0.00  0.00    +0.000 A 
ATOM     12  C   UNL     1     113.395 126.423 138.410  0.00  0.00    +0.000 A 
ATOM     13  C   UNL     1     113.570 126.269 139.237  0.00  0.00    +0.000 A 
ENDROOT
BRANCH  12  15
ATOM     14  O   UNL     1     113.548 123.979 136.198  0.00  0.00    +0.000 OA
ATOM     15  C   UNL     1     113.433 125.812 137.857  0.00  0.00    +0.000 A 
ATOM     16  C   UNL     1     112.749 125.404 137.644  0.00  0.00    +0.000 A 
ATOM     17  C   UNL     1     114.157 125.608 137.517  0.00  0.00    +0.000 A 
ATOM     18  C   UNL     1     112.787 124.793 137.091  0.00  0.00    +0.000 A 
ATOM     19  C   UNL     1     114.196 124.997 136.963  0.00  0.00    +0.000 A 
ATOM     20  C   UNL     1     113.510 124.590 136.751  0.00  0.00    +0.000 A 
ENDBRANCH  12  15
BRANCH   5  21
ATOM     21  O   UNL     1     113.027 129.686 140.399  0.00  0.00    +0.000 OA
BRANCH  21  29
ATOM     22  O   UNL     1     114.388 130.024 140.124  0.00  0.00    +0.000 OA
ATOM     23  O   UNL     1     114.329 131.725 141.919  0.00  0.00    +0.000 OA
ATOM     24  O   UNL     1     112.988 130.820 141.596  0.00  0.00    +0.000 OA
ATOM     25  O   UNL     1     115.710 131.496 141.045  0.00  0.00    +0.000 OA
ATOM     26  C   UNL     1     114.348 131.158 141.321  0.00  0.00    +0.000 C 
ATOM     27  C   UNL     1     113.678 130.706 141.159  0.00  0.00    +0.000 C 
ATOM     28  C   UNL     1     115.038 131.043 140.884  0.00  0.00    +0.000 C 
ATOM     29  C   UNL     1     113.698 130.139 140.561  0.00  0.00    +0.000 C 
ATOM     30  C   UNL     1     115.059 130.476 140.285  0.00  0.00    +0.000 C 
ENDBRANCH  21  29
ENDBRANCH   5  21
TORSDOF 3
ENDMDL
MODEL 2
REMARK VINA RESULT:      -9.6      4.844      5.719
REMARK  Name = 44258420
REMARK  3 active torsions:
REMARK  status: ('A' for Active; 'I' for Inactive)
REMARK    1  A    between atoms: O_2  and  C_14
REMARK    2  A    between atoms: O_2  and  C_16
REMARK    3  A    between atoms: C_23  and  C_25
REMARK                            x       y       z     vdW  Elec       q    Type
REMARK                         _______ _______ _______ _____ _____    ______ ____
ROOT
ATOM      1  O   UNL     1     110.718 127.053 135.977  0.00  0.00    +0.000 OA
ATOM      2  O   UNL     1     108.141 128.357 135.786  0.00  0.00    +0.000 OA
ATOM      3  O   UNL     1     110.519 129.795 135.117  0.00  0.00    +0.000 OA
ATOM      4  O   UNL     1     108.198 126.983 136.220  0.00  0.00    +0.000 OA
ATOM      5  C   UNL     1     109.329 129.076 135.451  0.00  0.00    +0.000 A 
ATOM      6  C   UNL     1     108.962 128.383 135.706  0.00  0.00    +0.000 A 
ATOM      7  C   UNL     1     109.414 127.716 135.879  0.00  0.00    +0.000 A 
ATOM      8  C   UNL     1     110.150 129.102 135.371  0.00  0.00    +0.000 A 
ATOM      9  C   UNL     1     110.235 127.742 135.799  0.00  0.00    +0.000 A 
ATOM     10  C   UNL     1     110.603 128.435 135.545  0.00  0.00    +0.000 A 
ATOM     11  C   UNL     1     109.020 126.999 136.143  0.00  0.00    +0.000 A 
ATOM     12  C   UNL     1     110.340 126.328 136.242  0.00  0.00    +0.000 A 
ATOM     13  C   UNL     1     109.486 126.301 136.326  0.00  0.00    +0.000 A 
ENDROOT
BRANCH  12  15
ATOM     14  O   UNL     1     112.161 123.664 136.935  0.00  0.00    +0.000 OA
ATOM     15  C   UNL     1     110.795 125.662 136.415  0.00  0.00    +0.000 A 
ATOM     16  C   UNL     1     111.015 125.144 135.813  0.00  0.00    +0.000 A 
ATOM     17  C   UNL     1     111.031 125.514 137.192  0.00  0.00    +0.000 A 
ATOM     18  C   UNL     1     111.470 124.478 135.986  0.00  0.00    +0.000 A 
ATOM     19  C   UNL     1     111.487 124.848 137.366  0.00  0.00    +0.000 A 
ATOM     20  C   UNL     1     111.706 124.330 136.762  0.00  0.00    +0.000 A 
ENDBRANCH  12  15
BRANCH   5  21
ATOM     21  O   UNL     1     108.877 129.743 135.278  0.00  0.00    +0.000 OA
BRANCH  21  29
ATOM     22  O   UNL     1     109.009 130.187 136.629  0.00  0.00    +0.000 OA
ATOM     23  O   UNL     1     107.574 132.140 136.130  0.00  0.00    +0.000 OA
ATOM     24  O   UNL     1     107.921 131.046 134.944  0.00  0.00    +0.000 OA
ATOM     25  O   UNL     1     108.184 131.932 137.649  0.00  0.00    +0.000 OA
ATOM     26  C   UNL     1     108.053 131.488 136.296  0.00  0.00    +0.000 C 
ATOM     27  C   UNL     1     108.226 130.942 135.704  0.00  0.00    +0.000 C 
ATOM     28  C   UNL     1     108.358 131.384 137.055  0.00  0.00    +0.000 C 
ATOM     29  C   UNL     1     108.704 130.291 135.870  0.00  0.00    +0.000 C 
ATOM     30  C   UNL     1     108.836 130.733 137.223  0.00  0.00    +0.000 C 
ENDBRANCH  21  29
ENDBRANCH   5  21
TORSDOF 3
ENDMDL
MODEL 3
REMARK VINA RESULT:      -9.5      9.101     10.356
REMARK  Name = 44258420
REMARK  3 active torsions:
REMARK  status: ('A' for Active; 'I' for Inactive)
REMARK    1  A    between atoms: O_2  and  C_14
REMARK    2  A    between atoms: O_2  and  C_16
REMARK    3  A    between atoms: C_23  and  C_25
REMARK                            x       y       z     vdW  Elec       q    Type
REMARK                         _______ _______ _______ _____ _____    ______ ____
ROOT
ATOM      1  O   UNL     1     106.576 125.316 146.313  0.00  0.00    +0.000 OA
ATOM      2  O   UNL     1     105.655 127.779 145.105  0.00  0.00    +0.000 OA
ATOM      3  O   UNL     1     105.568 125.342 143.614  0.00  0.00    +0.000 OA
ATOM      4  O   UNL     1     106.152 127.808 146.458  0.00  0.00    +0.000 OA
ATOM      5  C   UNL     1     105.611 126.561 144.359  0.00  0.00    +0.000 A 
ATOM      6  C   UNL     1     105.792 126.967 145.055  0.00  0.00    +0.000 A 
ATOM      7  C   UNL     1     106.109 126.562 145.699  0.00  0.00    +0.000 A 
ATOM      8  C   UNL     1     105.748 125.749 144.309  0.00  0.00    +0.000 A 
ATOM      9  C   UNL     1     106.246 125.750 145.648  0.00  0.00    +0.000 A 
ATOM     10  C   UNL     1     106.066 125.343 144.954  0.00  0.00    +0.000 A 
ATOM     11  C   UNL     1     106.293 126.996 146.417  0.00  0.00    +0.000 A 
ATOM     12  C   UNL     1     106.766 125.734 147.039  0.00  0.00    +0.000 A 
ATOM     13  C   UNL     1     106.623 126.579 147.092  0.00  0.00    +0.000 A 
ENDROOT
BRANCH  12  15
ATOM     14  O   UNL     1     108.034 124.101 149.612  0.00  0.00    +0.000 OA
ATOM     15  C   UNL     1     107.083 125.326 147.682  0.00  0.00    +0.000 A 
ATOM     16  C   UNL     1     107.899 125.225 147.746  0.00  0.00    +0.000 A 
ATOM     17  C   UNL     1     106.584 125.018 148.262  0.00  0.00    +0.000 A 
ATOM     18  C   UNL     1     108.216 124.817 148.389  0.00  0.00    +0.000 A 
ATOM     19  C   UNL     1     106.901 124.609 148.906  0.00  0.00    +0.000 A 
ATOM     20  C   UNL     1     107.717 124.509 148.969  0.00  0.00    +0.000 A 
ENDBRANCH  12  15
BRANCH   5  21
ATOM     21  O   UNL     1     105.294 126.966 143.715  0.00  0.00    +0.000 OA
BRANCH  21  29
ATOM     22  O   UNL     1     106.607 127.163 143.188  0.00  0.00    +0.000 OA
ATOM     23  O   UNL     1     105.668 128.532 141.354  0.00  0.00    +0.000 OA
ATOM     24  O   UNL     1     104.667 127.878 142.492  0.00  0.00    +0.000 OA
ATOM     25  O   UNL     1     107.295 128.272 141.439  0.00  0.00    +0.000 OA
ATOM     26  C   UNL     1     105.981 128.075 141.966  0.00  0.00    +0.000 C 
ATOM     27  C   UNL     1     105.481 127.749 142.534  0.00  0.00    +0.000 C 
ATOM     28  C   UNL     1     106.794 127.946 142.008  0.00  0.00    +0.000 C 
ATOM     29  C   UNL     1     105.794 127.293 143.146  0.00  0.00    +0.000 C 
ATOM     30  C   UNL     1     107.108 127.489 142.620  0.00  0.00    +0.000 C 
ENDBRANCH  21  29
ENDBRANCH   5  21
TORSDOF 3
ENDMDL
MODEL 4
REMARK VINA RESULT:      -9.4      8.058      9.003
REMARK  Name = 44258420
REMARK  3 active torsions:
REMARK  status: ('A' for Active; 'I' for Inactive)
REMARK    1  A    between atoms: O_2  and  C_14
REMARK    2  A    between atoms: O_2  and  C_16
REMARK    3  A    between atoms: C_23  and  C_25
REMARK                            x       y       z     vdW  Elec       q    Type
REMARK                         _______ _______ _______ _____ _____    ______ ____
ROOT
ATOM      1  O   UNL     1     104.292 124.540 138.812  0.00  0.00    +0.000 OA
ATOM      2  O   UNL     1     106.185 123.847 140.888  0.00  0.00    +0.000 OA
ATOM      3  O   UNL     1     105.179 126.516 140.712  0.00  0.00    +0.000 OA
ATOM      4  O   UNL     1     105.767 122.829 139.957  0.00  0.00    +0.000 OA
ATOM      5  C   UNL     1     105.683 125.182 140.800  0.00  0.00    +0.000 A 
ATOM      6  C   UNL     1     105.706 124.407 140.517  0.00  0.00    +0.000 A 
ATOM      7  C   UNL     1     105.251 124.192 139.865  0.00  0.00    +0.000 A 
ATOM      8  C   UNL     1     105.203 125.741 140.430  0.00  0.00    +0.000 A 
ATOM      9  C   UNL     1     104.771 124.751 139.494  0.00  0.00    +0.000 A 
ATOM     10  C   UNL     1     104.747 125.526 139.776  0.00  0.00    +0.000 A 
ATOM     11  C   UNL     1     105.284 123.381 139.579  0.00  0.00    +0.000 A 
ATOM     12  C   UNL     1     104.313 123.734 138.513  0.00  0.00    +0.000 A 
ATOM     13  C   UNL     1     104.812 123.152 138.900  0.00  0.00    +0.000 A 
ENDROOT
BRANCH  12  15
ATOM     14  O   UNL     1     102.486 122.885 135.900  0.00  0.00    +0.000 OA
ATOM     15  C   UNL     1     103.856 123.522 137.860  0.00  0.00    +0.000 A 
ATOM     16  C   UNL     1     104.222 123.321 137.149  0.00  0.00    +0.000 A 
ATOM     17  C   UNL     1     103.033 123.511 137.918  0.00  0.00    +0.000 A 
ATOM     18  C   UNL     1     103.765 123.108 136.495  0.00  0.00    +0.000 A 
ATOM     19  C   UNL     1     102.576 123.299 137.264  0.00  0.00    +0.000 A 
ATOM     20  C   UNL     1     102.942 123.098 136.553  0.00  0.00    +0.000 A 
ENDBRANCH  12  15
BRANCH   5  21
ATOM     21  O   UNL     1     106.138 125.397 141.453  0.00  0.00    +0.000 OA
BRANCH  21  29
ATOM     22  O   UNL     1     107.253 125.680 140.606  0.00  0.00    +0.000 OA
ATOM     23  O   UNL     1     108.405 126.791 142.494  0.00  0.00    +0.000 OA
ATOM     24  O   UNL     1     106.906 126.137 142.712  0.00  0.00    +0.000 OA
ATOM     25  O   UNL     1     109.136 126.704 141.017  0.00  0.00    +0.000 OA
ATOM     26  C   UNL     1     108.020 126.420 141.865  0.00  0.00    +0.000 C 
ATOM     27  C   UNL     1     107.271 126.094 141.973  0.00  0.00    +0.000 C 
ATOM     28  C   UNL     1     108.386 126.377 141.126  0.00  0.00    +0.000 C 
ATOM     29  C   UNL     1     106.887 125.724 141.345  0.00  0.00    +0.000 C 
ATOM     30  C   UNL     1     108.002 126.007 140.497  0.00  0.00    +0.000 C 
ENDBRANCH  21  29
ENDBRANCH   5  21
TORSDOF 3
ENDMDL
MODEL 5
REMARK VINA RESULT:      -9.2      1.127      5.500
REMARK  Name = 44258420
REMARK  3 active torsions:
REMARK  status: ('A' for Active; 'I' for Inactive)
REMARK    1  A    between atoms: O_2  and  C_14
REMARK    2  A    between atoms: O_2  and  C_16
REMARK    3  A    between atoms: C_23  and  C_25
REMARK                            x       y       z     vdW  Elec       q    Type
REMARK                         _______ _______ _______ _____ _____    ______ ____
ROOT
ATOM      1  O   UNL     1     113.220 128.870 139.515  0.00  0.00    +0.000 OA
ATOM      2  O   UNL     1     112.601 126.067 139.881  0.00  0.00    +0.000 OA
ATOM      3  O   UNL     1     111.654 127.443 137.562  0.00  0.00    +0.000 OA
ATOM      4  O   UNL     1     113.388 126.745 140.882  0.00  0.00    +0.000 OA
ATOM      5  C   UNL     1     112.127 126.754 138.721  0.00  0.00    +0.000 A 
ATOM      6  C   UNL     1     112.544 126.758 139.433  0.00  0.00    +0.000 A 
ATOM      7  C   UNL     1     112.905 127.451 139.698  0.00  0.00    +0.000 A 
ATOM      8  C   UNL     1     112.070 127.445 138.274  0.00  0.00    +0.000 A 
ATOM      9  C   UNL     1     112.848 128.141 139.250  0.00  0.00    +0.000 A 
ATOM     10  C   UNL     1     112.431 128.139 138.538  0.00  0.00    +0.000 A 
ATOM     11  C   UNL     1     113.336 127.441 140.441  0.00  0.00    +0.000 A 
ATOM     12  C   UNL     1     113.655 128.879 140.255  0.00  0.00    +0.000 A 
ATOM     13  C   UNL     1     113.714 128.160 140.721  0.00  0.00    +0.000 A 
ENDROOT
BRANCH  12  15
ATOM     14  O   UNL     1     115.094 131.658 141.302  0.00  0.00    +0.000 OA
ATOM     15  C   UNL     1     114.015 129.574 140.517  0.00  0.00    +0.000 A 
ATOM     16  C   UNL     1     113.620 130.070 141.044  0.00  0.00    +0.000 A 
ATOM     17  C   UNL     1     114.770 129.772 140.252  0.00  0.00    +0.000 A 
ATOM     18  C   UNL     1     113.979 130.765 141.306  0.00  0.00    +0.000 A 
ATOM     19  C   UNL     1     115.131 130.467 140.513  0.00  0.00    +0.000 A 
ATOM     20  C   UNL     1     114.735 130.963 141.040  0.00  0.00    +0.000 A 
ENDBRANCH  12  15
BRANCH   5  21
ATOM     21  O   UNL     1     111.767 126.062 138.457  0.00  0.00    +0.000 OA
BRANCH  21  29
ATOM     22  O   UNL     1     112.910 125.769 137.651  0.00  0.00    +0.000 OA
ATOM     23  O   UNL     1     111.922 123.584 137.041  0.00  0.00    +0.000 OA
ATOM     24  O   UNL     1     111.108 124.605 138.050  0.00  0.00    +0.000 OA
ATOM     25  O   UNL     1     113.394 124.021 136.439  0.00  0.00    +0.000 OA
ATOM     26  C   UNL     1     112.251 124.313 137.245  0.00  0.00    +0.000 C 
ATOM     27  C   UNL     1     111.844 124.823 137.749  0.00  0.00    +0.000 C 
ATOM     28  C   UNL     1     112.987 124.531 136.944  0.00  0.00    +0.000 C 
ATOM     29  C   UNL     1     112.173 125.551 137.953  0.00  0.00    +0.000 C 
ATOM     30  C   UNL     1     113.317 125.259 137.147  0.00  0.00    +0.000 C 
ENDBRANCH  21  29
ENDBRANCH   5  21
TORSDOF 3
ENDMDL
MODEL 6
REMARK VINA RESULT:      -9.2      3.535      5.044
REMARK  Name = 44258420
REMARK  3 active torsions:
REMARK  status: ('A' for Active; 'I' for Inactive)
REMARK    1  A    between atoms: O_2  and  C_14
REMARK    2  A    between atoms: O_2  and  C_16
REMARK    3  A    between atoms: C_23  and  C_25
REMARK                            x       y       z     vdW  Elec       q    Type
REMARK                         _______ _______ _______ _____ _____    ______ ____
ROOT
ATOM      1  O   UNL     1     112.421 126.815 136.121  0.00  0.00    +0.000 OA
ATOM      2  O   UNL     1     111.988 129.668 135.906  0.00  0.00    +0.000 OA
ATOM      3  O   UNL     1     110.073 127.851 134.813  0.00  0.00    +0.000 OA
ATOM      4  O   UNL     1     113.177 129.190 136.569  0.00  0.00    +0.000 OA
ATOM      5  C   UNL     1     111.030 128.760 135.359  0.00  0.00    +0.000 A 
ATOM      6  C   UNL     1     111.739 128.896 135.759  0.00  0.00    +0.000 A 
ATOM      7  C   UNL     1     112.199 128.260 136.011  0.00  0.00    +0.000 A 
ATOM      8  C   UNL     1     110.781 127.987 135.212  0.00  0.00    +0.000 A 
ATOM      9  C   UNL     1     111.951 127.487 135.863  0.00  0.00    +0.000 A 
ATOM     10  C   UNL     1     111.242 127.350 135.464  0.00  0.00    +0.000 A 
ATOM     11  C   UNL     1     112.936 128.414 136.426  0.00  0.00    +0.000 A 
ATOM     12  C   UNL     1     113.160 126.951 136.537  0.00  0.00    +0.000 A 
ATOM     13  C   UNL     1     113.419 127.755 136.691  0.00  0.00    +0.000 A 
ENDROOT
BRANCH  12  15
ATOM     14  O   UNL     1     114.993 124.396 137.542  0.00  0.00    +0.000 OA
ATOM     15  C   UNL     1     113.619 126.312 136.788  0.00  0.00    +0.000 A 
ATOM     16  C   UNL     1     114.154 125.959 136.270  0.00  0.00    +0.000 A 
ATOM     17  C   UNL     1     113.542 126.027 137.559  0.00  0.00    +0.000 A 
ATOM     18  C   UNL     1     114.612 125.320 136.521  0.00  0.00    +0.000 A 
ATOM     19  C   UNL     1     114.000 125.388 137.811  0.00  0.00    +0.000 A 
ATOM     20  C   UNL     1     114.535 125.035 137.291  0.00  0.00    +0.000 A 
ENDBRANCH  12  15
BRANCH   5  21
ATOM     21  O   UNL     1     110.570 129.396 135.107  0.00  0.00    +0.000 OA
BRANCH  21  29
ATOM     22  O   UNL     1     109.832 129.348 136.330  0.00  0.00    +0.000 OA
ATOM     23  O   UNL     1     108.473 131.278 135.587  0.00  0.00    +0.000 OA
ATOM     24  O   UNL     1     109.664 130.683 134.612  0.00  0.00    +0.000 OA
ATOM     25  O   UNL     1     108.188 130.585 137.057  0.00  0.00    +0.000 OA
ATOM     26  C   UNL     1     108.926 130.634 135.834  0.00  0.00    +0.000 C 
ATOM     27  C   UNL     1     109.521 130.337 135.347  0.00  0.00    +0.000 C 
ATOM     28  C   UNL     1     108.784 130.288 136.569  0.00  0.00    +0.000 C 
ATOM     29  C   UNL     1     109.974 129.694 135.595  0.00  0.00    +0.000 C 
ATOM     30  C   UNL     1     109.236 129.644 136.817  0.00  0.00    +0.000 C 
ENDBRANCH  21  29
ENDBRANCH   5  21
TORSDOF 3
ENDMDL
MODEL 7
REMARK VINA RESULT:      -9.2      9.298     10.782
REMARK  Name = 44258420
REMARK  3 active torsions:
REMARK  status: ('A' for Active; 'I' for Inactive)
REMARK    1  A    between atoms: O_2  and  C_14
REMARK    2  A    between atoms: O_2  and  C_16
REMARK    3  A    between atoms: C_23  and  C_25
REMARK                            x       y       z     vdW  Elec       q    Type
REMARK                         _______ _______ _______ _____ _____    ______ ____
ROOT
ATOM      1  O   UNL     1     103.299 130.296 142.486  0.00  0.00    +0.000 OA
ATOM      2  O   UNL     1     104.361 127.949 141.168  0.00  0.00    +0.000 OA
ATOM      3  O   UNL     1     105.089 128.515 143.873  0.00  0.00    +0.000 OA
ATOM      4  O   UNL     1     103.468 128.816 140.439  0.00  0.00    +0.000 OA
ATOM      5  C   UNL     1     104.725 128.231 142.520  0.00  0.00    +0.000 A 
ATOM      6  C   UNL     1     104.308 128.430 141.836  0.00  0.00    +0.000 A 
ATOM      7  C   UNL     1     103.838 129.107 141.821  0.00  0.00    +0.000 A 
ATOM      8  C   UNL     1     104.672 128.712 143.189  0.00  0.00    +0.000 A 
ATOM      9  C   UNL     1     103.785 129.587 142.490  0.00  0.00    +0.000 A 
ATOM     10  C   UNL     1     104.202 129.390 143.174  0.00  0.00    +0.000 A 
ATOM     11  C   UNL     1     103.409 129.302 141.103  0.00  0.00    +0.000 A 
ATOM     12  C   UNL     1     102.862 130.507 141.777  0.00  0.00    +0.000 A 
ATOM     13  C   UNL     1     102.918 130.007 141.081  0.00  0.00    +0.000 A 
ENDROOT
BRANCH  12  15
ATOM     14  O   UNL     1     100.986 133.221 141.727  0.00  0.00    +0.000 OA
ATOM     15  C   UNL     1     102.393 131.185 141.765  0.00  0.00    +0.000 A 
ATOM     16  C   UNL     1     101.592 131.137 141.953  0.00  0.00    +0.000 A 
ATOM     17  C   UNL     1     102.726 131.913 141.564  0.00  0.00    +0.000 A 
ATOM     18  C   UNL     1     101.123 131.815 141.940  0.00  0.00    +0.000 A 
ATOM     19  C   UNL     1     102.257 132.592 141.551  0.00  0.00    +0.000 A 
ATOM     20  C   UNL     1     101.455 132.543 141.739  0.00  0.00    +0.000 A 
ENDBRANCH  12  15
BRANCH   5  21
ATOM     21  O   UNL     1     105.195 127.554 142.536  0.00  0.00    +0.000 OA
BRANCH  21  29
ATOM     22  O   UNL     1     106.325 128.320 142.113  0.00  0.00    +0.000 OA
ATOM     23  O   UNL     1     107.783 126.346 142.428  0.00  0.00    +0.000 OA
ATOM     24  O   UNL     1     106.167 126.238 142.746  0.00  0.00    +0.000 OA
ATOM     25  O   UNL     1     108.426 127.771 141.900  0.00  0.00    +0.000 OA
ATOM     26  C   UNL     1     107.296 127.004 142.323  0.00  0.00    +0.000 C 
ATOM     27  C   UNL     1     106.489 126.950 142.482  0.00  0.00    +0.000 C 
ATOM     28  C   UNL     1     107.618 127.717 142.059  0.00  0.00    +0.000 C 
ATOM     29  C   UNL     1     106.003 127.608 142.377  0.00  0.00    +0.000 C 
ATOM     30  C   UNL     1     107.132 128.375 141.954  0.00  0.00    +0.000 C 
ENDBRANCH  21  29
ENDBRANCH   5  21
TORSDOF 3
ENDMDL
MODEL 8
REMARK VINA RESULT:      -9.0      1.054      1.994
REMARK  Name = 44258420
REMARK  3 active torsions:
REMARK  status: ('A' for Active; 'I' for Inactive)
REMARK    1  A    between atoms: O_2  and  C_14
REMARK    2  A    between atoms: O_2  and  C_16
REMARK    3  A    between atoms: C_23  and  C_25
REMARK                            x       y       z     vdW  Elec       q    Type
REMARK                         _______ _______ _______ _____ _____    ______ ____
ROOT
ATOM      1  O   UNL     1     113.202 126.111 138.885  0.00  0.00    +0.000 OA
ATOM      2  O   UNL     1     113.202 129.004 138.977  0.00  0.00    +0.000 OA
ATOM      3  O   UNL     1     114.422 127.512 141.087  0.00  0.00    +0.000 OA
ATOM      4  O   UNL     1     112.581 128.340 137.857  0.00  0.00    +0.000 OA
ATOM      5  C   UNL     1     113.812 128.259 140.032  0.00  0.00    +0.000 A 
ATOM      6  C   UNL     1     113.406 128.279 139.314  0.00  0.00    +0.000 A 
ATOM      7  C   UNL     1     113.204 127.576 138.934  0.00  0.00    +0.000 A 
ATOM      8  C   UNL     1     114.016 127.534 140.369  0.00  0.00    +0.000 A 
ATOM      9  C   UNL     1     113.408 126.851 139.271  0.00  0.00    +0.000 A 
ATOM     10  C   UNL     1     113.814 126.830 139.989  0.00  0.00    +0.000 A 
ATOM     11  C   UNL     1     112.780 127.611 138.187  0.00  0.00    +0.000 A 
ATOM     12  C   UNL     1     112.779 126.127 138.137  0.00  0.00    +0.000 A 
ATOM     13  C   UNL     1     112.567 126.882 137.786  0.00  0.00    +0.000 A 
ENDROOT
BRANCH  12  15
ATOM     14  O   UNL     1     111.976 123.306 136.624  0.00  0.00    +0.000 OA
ATOM     15  C   UNL     1     112.578 125.422 137.759  0.00  0.00    +0.000 A 
ATOM     16  C   UNL     1     111.811 125.126 137.818  0.00  0.00    +0.000 A 
ATOM     17  C   UNL     1     113.145 125.013 137.321  0.00  0.00    +0.000 A 
ATOM     18  C   UNL     1     111.610 124.421 137.440  0.00  0.00    +0.000 A 
ATOM     19  C   UNL     1     112.945 124.307 136.942  0.00  0.00    +0.000 A 
ATOM     20  C   UNL     1     112.177 124.011 137.002  0.00  0.00    +0.000 A 
ENDBRANCH  12  15
BRANCH   5  21
ATOM     21  O   UNL     1     114.014 128.962 140.412  0.00  0.00    +0.000 OA
BRANCH  21  29
ATOM     22  O   UNL     1     112.839 128.881 141.220  0.00  0.00    +0.000 OA
ATOM     23  O   UNL     1     113.221 131.195 142.010  0.00  0.00    +0.000 OA
ATOM     24  O   UNL     1     114.269 130.504 140.939  0.00  0.00    +0.000 OA
ATOM     25  O   UNL     1     111.918 130.342 142.555  0.00  0.00    +0.000 OA
ATOM     26  C   UNL     1     113.094 130.423 141.746  0.00  0.00    +0.000 C 
ATOM     27  C   UNL     1     113.618 130.078 141.211  0.00  0.00    +0.000 C 
ATOM     28  C   UNL     1     112.443 129.997 142.019  0.00  0.00    +0.000 C 
ATOM     29  C   UNL     1     113.491 129.307 140.948  0.00  0.00    +0.000 C 
ATOM     30  C   UNL     1     112.315 129.225 141.756  0.00  0.00    +0.000 C 
ENDBRANCH  21  29
ENDBRANCH   5  21
TORSDOF 3
ENDMDL
MODEL 9
REMARK VINA RESULT:      -8.8      2.481      3.718
REMARK  Name = 44258420
REMARK  3 active torsions:
REMARK  status: ('A' for Active; 'I' for Inactive)
REMARK    1  A    between atoms: O_2  and  C_14
REMARK    2  A    between atoms: O_2  and  C_16
REMARK    3  A    between atoms: C_23  and  C_25
REMARK                            x       y       z     vdW  Elec       q    Type
REMARK                         _______ _______ _______ _____ _____    ______ ____
ROOT
ATOM      1  O   UNL     1     113.410 128.132 137.420  0.00  0.00    +0.000 OA
ATOM      2  O   UNL     1     111.537 129.874 136.068  0.00  0.00    +0.000 OA
ATOM      3  O   UNL     1     113.186 130.907 138.162  0.00  0.00    +0.000 OA
ATOM      4  O   UNL     1     111.618 128.491 135.667  0.00  0.00    +0.000 OA
ATOM      5  C   UNL     1     112.361 130.391 137.115  0.00  0.00    +0.000 A 
ATOM      6  C   UNL     1     112.120 129.760 136.640  0.00  0.00    +0.000 A 
ATOM      7  C   UNL     1     112.462 129.017 136.737  0.00  0.00    +0.000 A 
ATOM      8  C   UNL     1     112.944 130.277 137.687  0.00  0.00    +0.000 A 
ATOM      9  C   UNL     1     113.046 128.903 137.309  0.00  0.00    +0.000 A 
ATOM     10  C   UNL     1     113.287 129.532 137.784  0.00  0.00    +0.000 A 
ATOM     11  C   UNL     1     112.202 128.368 136.237  0.00  0.00    +0.000 A 
ATOM     12  C   UNL     1     113.163 127.472 136.929  0.00  0.00    +0.000 A 
ATOM     13  C   UNL     1     112.555 127.591 136.334  0.00  0.00    +0.000 A 
ENDROOT
BRANCH  12  15
ATOM     14  O   UNL     1     114.539 124.498 137.326  0.00  0.00    +0.000 OA
ATOM     15  C   UNL     1     113.507 126.728 137.029  0.00  0.00    +0.000 A 
ATOM     16  C   UNL     1     113.246 126.230 137.632  0.00  0.00    +0.000 A 
ATOM     17  C   UNL     1     114.111 126.483 136.524  0.00  0.00    +0.000 A 
ATOM     18  C   UNL     1     113.590 125.487 137.732  0.00  0.00    +0.000 A 
ATOM     19  C   UNL     1     114.456 125.740 136.623  0.00  0.00    +0.000 A 
ATOM     20  C   UNL     1     114.195 125.242 137.227  0.00  0.00    +0.000 A 
ENDBRANCH  12  15
BRANCH   5  21
ATOM     21  O   UNL     1     112.019 131.135 137.018  0.00  0.00    +0.000 OA
BRANCH  21  29
ATOM     22  O   UNL     1     111.064 130.830 138.035  0.00  0.00    +0.000 OA
ATOM     23  O   UNL     1     110.053 133.072 137.760  0.00  0.00    +0.000 OA
ATOM     24  O   UNL     1     111.345 132.630 136.834  0.00  0.00    +0.000 OA
ATOM     25  O   UNL     1     109.434 132.018 138.869  0.00  0.00    +0.000 OA
ATOM     26  C   UNL     1     110.390 132.324 137.851  0.00  0.00    +0.000 C 
ATOM     27  C   UNL     1     111.036 132.103 137.389  0.00  0.00    +0.000 C 
ATOM     28  C   UNL     1     110.081 131.797 138.406  0.00  0.00    +0.000 C 
ATOM     29  C   UNL     1     111.373 131.356 137.480  0.00  0.00    +0.000 C 
ATOM     30  C   UNL     1     110.418 131.050 138.498  0.00  0.00    +0.000 C 
ENDBRANCH  21  29
ENDBRANCH   5  21
TORSDOF 3
ENDMDL
MODEL 10
REMARK VINA RESULT:      -8.7      8.606      9.656
REMARK  Name = 44258420
REMARK  3 active torsions:
REMARK  status: ('A' for Active; 'I' for Inactive)
REMARK    1  A    between atoms: O_2  and  C_14
REMARK    2  A    between atoms: O_2  and  C_16
REMARK    3  A    between atoms: C_23  and  C_25
REMARK                            x       y       z     vdW  Elec       q    Type
REMARK                         _______ _______ _______ _____ _____    ______ ____
ROOT
ATOM      1  O   UNL     1     104.779 123.738 139.228  0.00  0.00    +0.000 OA
ATOM      2  O   UNL     1     105.452 126.077 140.795  0.00  0.00    +0.000 OA
ATOM      3  O   UNL     1     106.818 123.610 141.260  0.00  0.00    +0.000 OA
ATOM      4  O   UNL     1     104.425 126.182 139.787  0.00  0.00    +0.000 OA
ATOM      5  C   UNL     1     106.135 124.844 141.028  0.00  0.00    +0.000 A 
ATOM      6  C   UNL     1     105.569 125.280 140.615  0.00  0.00    +0.000 A 
ATOM      7  C   UNL     1     105.122 124.921 140.023  0.00  0.00    +0.000 A 
ATOM      8  C   UNL     1     106.253 124.047 140.848  0.00  0.00    +0.000 A 
ATOM      9  C   UNL     1     105.240 124.124 139.843  0.00  0.00    +0.000 A 
ATOM     10  C   UNL     1     105.805 123.687 140.255  0.00  0.00    +0.000 A 
ATOM     11  C   UNL     1     104.536 125.386 139.600  0.00  0.00    +0.000 A 
ATOM     12  C   UNL     1     104.189 124.188 138.795  0.00  0.00    +0.000 A 
ATOM     13  C   UNL     1     104.067 125.017 138.983  0.00  0.00    +0.000 A 
ENDROOT
BRANCH  12  15
ATOM     14  O   UNL     1     102.404 122.739 136.427  0.00  0.00    +0.000 OA
ATOM     15  C   UNL     1     103.743 123.826 138.204  0.00  0.00    +0.000 A 
ATOM     16  C   UNL     1     102.928 123.738 138.296  0.00  0.00    +0.000 A 
ATOM     17  C   UNL     1     104.112 123.551 137.519  0.00  0.00    +0.000 A 
ATOM     18  C   UNL     1     102.482 123.376 137.704  0.00  0.00    +0.000 A 
ATOM     19  C   UNL     1     103.666 123.188 136.926  0.00  0.00    +0.000 A 
ATOM     20  C   UNL     1     102.851 123.101 137.019  0.00  0.00    +0.000 A 
ENDBRANCH  12  15
BRANCH   5  21
ATOM     21  O   UNL     1     106.583 125.203 141.620  0.00  0.00    +0.000 OA
BRANCH  21  29
ATOM     22  O   UNL     1     105.674 124.728 142.615  0.00  0.00    +0.000 OA
ATOM     23  O   UNL     1     106.771 126.165 144.304  0.00  0.00    +0.000 OA
ATOM     24  O   UNL     1     107.315 126.161 142.746  0.00  0.00    +0.000 OA
ATOM     25  O   UNL     1     105.496 125.210 144.736  0.00  0.00    +0.000 OA
ATOM     26  C   UNL     1     106.406 125.686 143.740  0.00  0.00    +0.000 C 
ATOM     27  C   UNL     1     106.677 125.684 142.962  0.00  0.00    +0.000 C 
ATOM     28  C   UNL     1     105.768 125.209 143.956  0.00  0.00    +0.000 C 
ATOM     29  C   UNL     1     106.311 125.205 142.399  0.00  0.00    +0.000 C 
ATOM     30  C   UNL     1     105.402 124.730 143.393  0.00  0.00    +0.000 C 
ENDBRANCH  21  29
ENDBRANCH   5  21
TORSDOF 3
ENDMDL
