MODEL 1
REMARK VINA RESULT:     -10.1      0.000      0.000
REMARK  Name = 44257162
REMARK  9 active torsions:
REMARK  status: ('A' for Active; 'I' for Inactive)
REMARK    1  A    between atoms: O_2  and  C_20
REMARK    2  A    between atoms: O_2  and  C_21
REMARK    3  A    between atoms: O_3  and  C_23
REMARK    4  A    between atoms: O_3  and  C_27
REMARK    5  A    between atoms: O_12  and  C_32
REMARK    6  A    between atoms: C_16  and  C_23
REMARK    7  A    between atoms: C_24  and  C_31
REMARK    8  A    between atoms: C_33  and  C_37
REMARK    9  A    between atoms: C_37  and  C_40
REMARK                            x       y       z     vdW  Elec       q    Type
REMARK                         _______ _______ _______ _____ _____    ______ ____
ROOT
ATOM      1  O   UNL     1     112.801 127.375 136.114  0.00  0.00    +0.000 OA
ATOM      2  O   UNL     1     111.608 129.192 135.920  0.00  0.00    +0.000 OA
ATOM      3  O   UNL     1     112.030 124.567 136.182  0.00  0.00    +0.000 OA
ATOM      4  C   UNL     1     111.220 127.817 135.952  0.00  0.00    +0.000 C 
ATOM      5  C   UNL     1     111.809 128.394 135.976  0.00  0.00    +0.000 C 
ATOM      6  C   UNL     1     112.599 128.173 136.057  0.00  0.00    +0.000 C 
ATOM      7  C   UNL     1     111.421 127.019 136.009  0.00  0.00    +0.000 A 
ATOM      8  C   UNL     1     112.212 126.798 136.090  0.00  0.00    +0.000 A 
ATOM      9  C   UNL     1     110.798 126.428 135.982  0.00  0.00    +0.000 A 
ATOM     10  C   UNL     1     112.434 125.971 136.150  0.00  0.00    +0.000 A 
ATOM     11  C   UNL     1     111.826 125.364 136.125  0.00  0.00    +0.000 A 
ATOM     12  C   UNL     1     111.002 125.595 136.041  0.00  0.00    +0.000 A 
ENDROOT
BRANCH   6  14
ATOM     13  O   UNL     1     114.957 130.480 136.154  0.00  0.00    +0.000 OA
ATOM     14  C   UNL     1     113.189 128.750 136.082  0.00  0.00    +0.000 A 
ATOM     15  C   UNL     1     113.567 128.982 135.386  0.00  0.00    +0.000 A 
ATOM     16  C   UNL     1     113.400 129.095 136.801  0.00  0.00    +0.000 A 
ATOM     17  C   UNL     1     114.157 129.559 135.411  0.00  0.00    +0.000 A 
ATOM     18  C   UNL     1     113.989 129.671 136.825  0.00  0.00    +0.000 A 
ATOM     19  C   UNL     1     114.368 129.904 136.130  0.00  0.00    +0.000 A 
ENDBRANCH   6  14
BRANCH   9  20
ATOM     20  O   UNL     1     110.010 126.658 135.901  0.00  0.00    +0.000 OA
ATOM     21  C   UNL     1     109.464 126.144 135.559  0.00  0.00    +0.000 C 
ENDBRANCH   9  20
BRANCH   4  22
ATOM     22  O   UNL     1     110.429 128.038 135.871  0.00  0.00    +0.000 OA
BRANCH  22  31
ATOM     23  O   UNL     1     110.197 128.281 137.260  0.00  0.00    +0.000 OA
ATOM     24  O   UNL     1     108.944 129.762 138.261  0.00  0.00    +0.000 OA
ATOM     25  O   UNL     1     108.667 130.138 136.679  0.00  0.00    +0.000 OA
ATOM     26  O   UNL     1     109.409 129.276 135.484  0.00  0.00    +0.000 OA
ATOM     27  C   UNL     1     109.825 128.713 137.857  0.00  0.00    +0.000 C 
ATOM     28  C   UNL     1     109.315 129.332 137.663  0.00  0.00    +0.000 C 
ATOM     29  C   UNL     1     109.177 129.519 136.872  0.00  0.00    +0.000 C 
ATOM     30  C   UNL     1     109.548 129.088 136.274  0.00  0.00    +0.000 C 
ATOM     31  C   UNL     1     110.058 128.470 136.468  0.00  0.00    +0.000 C 
BRANCH  27  32
ATOM     32  C   UNL     1     109.964 128.525 138.649  0.00  0.00    +0.000 C 
BRANCH  32  33
ATOM     33  O   UNL     1     109.950 127.737 138.893  0.00  0.00    +0.000 OA
BRANCH  33  38
ATOM     34  O   UNL     1     110.464 128.125 140.169  0.00  0.00    +0.000 OA
ATOM     35  O   UNL     1     109.840 126.175 139.412  0.00  0.00    +0.000 OA
ATOM     36  O   UNL     1     110.299 125.781 140.948  0.00  0.00    +0.000 OA
ATOM     37  O   UNL     1     110.867 126.950 141.964  0.00  0.00    +0.000 OA
ATOM     38  C   UNL     1     110.180 127.540 139.662  0.00  0.00    +0.000 C 
ATOM     39  C   UNL     1     110.125 126.759 139.921  0.00  0.00    +0.000 C 
ATOM     40  C   UNL     1     110.354 126.562 140.688  0.00  0.00    +0.000 C 
ATOM     41  C   UNL     1     110.638 127.146 141.196  0.00  0.00    +0.000 C 
ATOM     42  C   UNL     1     110.693 127.927 140.937  0.00  0.00    +0.000 C 
ENDBRANCH  33  38
ENDBRANCH  32  33
ENDBRANCH  27  32
ENDBRANCH  22  31
ENDBRANCH   4  22
BRANCH  10  43
ATOM     43  C   UNL     1     113.228 125.758 136.231  0.00  0.00    +0.000 C 
BRANCH  43  44
ATOM     44  C   UNL     1     113.506 125.467 136.950  0.00  0.00    +0.000 C 
ATOM     45  C   UNL     1     114.303 125.270 137.036  0.00  0.00    +0.000 C 
ATOM     46  C   UNL     1     114.581 124.980 137.755  0.00  0.00    +0.000 C 
ATOM     47  C   UNL     1     114.821 125.364 136.401  0.00  0.00    +0.000 C 
ENDBRANCH  43  44
ENDBRANCH  10  43
TORSDOF 9
ENDMDL
MODEL 2
REMARK VINA RESULT:     -10.0      2.229      4.556
REMARK  Name = 44257162
REMARK  9 active torsions:
REMARK  status: ('A' for Active; 'I' for Inactive)
REMARK    1  A    between atoms: O_2  and  C_20
REMARK    2  A    between atoms: O_2  and  C_21
REMARK    3  A    between atoms: O_3  and  C_23
REMARK    4  A    between atoms: O_3  and  C_27
REMARK    5  A    between atoms: O_12  and  C_32
REMARK    6  A    between atoms: C_16  and  C_23
REMARK    7  A    between atoms: C_24  and  C_31
REMARK    8  A    between atoms: C_33  and  C_37
REMARK    9  A    between atoms: C_37  and  C_40
REMARK                            x       y       z     vdW  Elec       q    Type
REMARK                         _______ _______ _______ _____ _____    ______ ____
ROOT
ATOM      1  O   UNL     1     112.129 125.878 137.471  0.00  0.00    +0.000 OA
ATOM      2  O   UNL     1     113.810 126.230 138.818  0.00  0.00    +0.000 OA
ATOM      3  O   UNL     1     109.261 126.228 137.843  0.00  0.00    +0.000 OA
ATOM      4  C   UNL     1     112.405 126.404 139.010  0.00  0.00    +0.000 C 
ATOM      5  C   UNL     1     113.038 126.186 138.530  0.00  0.00    +0.000 C 
ATOM      6  C   UNL     1     112.900 125.923 137.760  0.00  0.00    +0.000 C 
ATOM      7  C   UNL     1     111.633 126.360 138.722  0.00  0.00    +0.000 A 
ATOM      8  C   UNL     1     111.495 126.097 137.952  0.00  0.00    +0.000 A 
ATOM      9  C   UNL     1     110.982 126.591 139.232  0.00  0.00    +0.000 A 
ATOM     10  C   UNL     1     110.696 126.047 137.640  0.00  0.00    +0.000 A 
ATOM     11  C   UNL     1     110.032 126.273 138.135  0.00  0.00    +0.000 A 
ATOM     12  C   UNL     1     110.175 126.547 138.937  0.00  0.00    +0.000 A 
ENDROOT
BRANCH   6  14
ATOM     13  O   UNL     1     115.434 125.047 135.836  0.00  0.00    +0.000 OA
ATOM     14  C   UNL     1     113.534 125.703 137.279  0.00  0.00    +0.000 A 
ATOM     15  C   UNL     1     113.872 126.255 136.767  0.00  0.00    +0.000 A 
ATOM     16  C   UNL     1     113.829 124.933 137.310  0.00  0.00    +0.000 A 
ATOM     17  C   UNL     1     114.506 126.036 136.286  0.00  0.00    +0.000 A 
ATOM     18  C   UNL     1     114.462 124.715 136.829  0.00  0.00    +0.000 A 
ATOM     19  C   UNL     1     114.801 125.266 136.317  0.00  0.00    +0.000 A 
ENDBRANCH   6  14
BRANCH   9  20
ATOM     20  O   UNL     1     111.129 126.853 140.001  0.00  0.00    +0.000 OA
ATOM     21  C   UNL     1     110.522 126.854 140.559  0.00  0.00    +0.000 C 
ENDBRANCH   9  20
BRANCH   4  22
ATOM     22  O   UNL     1     112.543 126.668 139.780  0.00  0.00    +0.000 OA
BRANCH  22  31
ATOM     23  O   UNL     1     112.817 128.030 139.447  0.00  0.00    +0.000 OA
ATOM     24  O   UNL     1     114.245 129.448 140.293  0.00  0.00    +0.000 OA
ATOM     25  O   UNL     1     114.547 128.113 141.215  0.00  0.00    +0.000 OA
ATOM     26  O   UNL     1     113.696 126.723 140.958  0.00  0.00    +0.000 OA
ATOM     27  C   UNL     1     113.243 128.725 139.576  0.00  0.00    +0.000 C 
ATOM     28  C   UNL     1     113.820 128.752 140.165  0.00  0.00    +0.000 C 
ATOM     29  C   UNL     1     113.971 128.085 140.626  0.00  0.00    +0.000 C 
ATOM     30  C   UNL     1     113.545 127.390 140.498  0.00  0.00    +0.000 C 
ATOM     31  C   UNL     1     112.968 127.362 139.909  0.00  0.00    +0.000 C 
BRANCH  27  32
ATOM     32  C   UNL     1     113.091 129.393 139.115  0.00  0.00    +0.000 C 
BRANCH  32  33
ATOM     33  O   UNL     1     112.315 129.648 139.003  0.00  0.00    +0.000 OA
BRANCH  33  38
ATOM     34  O   UNL     1     112.723 130.481 137.916  0.00  0.00    +0.000 OA
ATOM     35  O   UNL     1     110.861 130.427 139.054  0.00  0.00    +0.000 OA
ATOM     36  O   UNL     1     110.542 131.648 137.992  0.00  0.00    +0.000 OA
ATOM     37  O   UNL     1     111.676 132.092 136.879  0.00  0.00    +0.000 OA
ATOM     38  C   UNL     1     112.155 130.260 138.472  0.00  0.00    +0.000 C 
ATOM     39  C   UNL     1     111.428 130.649 138.497  0.00  0.00    +0.000 C 
ATOM     40  C   UNL     1     111.269 131.259 137.966  0.00  0.00    +0.000 C 
ATOM     41  C   UNL     1     111.836 131.481 137.410  0.00  0.00    +0.000 C 
ATOM     42  C   UNL     1     112.563 131.092 137.385  0.00  0.00    +0.000 C 
ENDBRANCH  33  38
ENDBRANCH  32  33
ENDBRANCH  27  32
ENDBRANCH  22  31
ENDBRANCH   4  22
BRANCH  10  43
ATOM     43  C   UNL     1     110.567 125.782 136.869  0.00  0.00    +0.000 C 
BRANCH  43  44
ATOM     44  C   UNL     1     110.305 126.308 136.290  0.00  0.00    +0.000 C 
ATOM     45  C   UNL     1     110.219 126.055 135.510  0.00  0.00    +0.000 C 
ATOM     46  C   UNL     1     109.956 126.580 134.931  0.00  0.00    +0.000 C 
ATOM     47  C   UNL     1     110.396 125.275 135.308  0.00  0.00    +0.000 C 
ENDBRANCH  43  44
ENDBRANCH  10  43
TORSDOF 9
ENDMDL
MODEL 3
REMARK VINA RESULT:     -10.0      2.289      4.430
REMARK  Name = 44257162
REMARK  9 active torsions:
REMARK  status: ('A' for Active; 'I' for Inactive)
REMARK    1  A    between atoms: O_2  and  C_20
REMARK    2  A    between atoms: O_2  and  C_21
REMARK    3  A    between atoms: O_3  and  C_23
REMARK    4  A    between atoms: O_3  and  C_27
REMARK    5  A    between atoms: O_12  and  C_32
REMARK    6  A    between atoms: C_16  and  C_23
REMARK    7  A    between atoms: C_24  and  C_31
REMARK    8  A    between atoms: C_33  and  C_37
REMARK    9  A    between atoms: C_37  and  C_40
REMARK                            x       y       z     vdW  Elec       q    Type
REMARK                         _______ _______ _______ _____ _____    ______ ____
ROOT
ATOM      1  O   UNL     1     112.931 127.524 137.166  0.00  0.00    +0.000 OA
ATOM      2  O   UNL     1     112.265 126.218 138.783  0.00  0.00    +0.000 OA
ATOM      3  O   UNL     1     111.985 130.137 136.292  0.00  0.00    +0.000 OA
ATOM      4  C   UNL     1     111.794 127.500 138.361  0.00  0.00    +0.000 C 
ATOM      5  C   UNL     1     112.313 126.865 138.273  0.00  0.00    +0.000 C 
ATOM      6  C   UNL     1     112.882 126.877 137.676  0.00  0.00    +0.000 C 
ATOM      7  C   UNL     1     111.843 128.147 137.852  0.00  0.00    +0.000 A 
ATOM      8  C   UNL     1     112.411 128.159 137.254  0.00  0.00    +0.000 A 
ATOM      9  C   UNL     1     111.296 128.801 137.954  0.00  0.00    +0.000 A 
ATOM     10  C   UNL     1     112.472 128.827 136.717  0.00  0.00    +0.000 A 
ATOM     11  C   UNL     1     111.934 129.491 136.803  0.00  0.00    +0.000 A 
ATOM     12  C   UNL     1     111.342 129.478 137.426  0.00  0.00    +0.000 A 
ENDROOT
BRANCH   6  14
ATOM     13  O   UNL     1     114.960 124.338 137.322  0.00  0.00    +0.000 OA
ATOM     14  C   UNL     1     113.402 126.242 137.587  0.00  0.00    +0.000 A 
ATOM     15  C   UNL     1     113.241 125.652 137.034  0.00  0.00    +0.000 A 
ATOM     16  C   UNL     1     114.082 126.198 138.052  0.00  0.00    +0.000 A 
ATOM     17  C   UNL     1     113.761 125.017 136.945  0.00  0.00    +0.000 A 
ATOM     18  C   UNL     1     114.601 125.564 137.964  0.00  0.00    +0.000 A 
ATOM     19  C   UNL     1     114.441 124.973 137.410  0.00  0.00    +0.000 A 
ENDBRANCH   6  14
BRANCH   9  20
ATOM     20  O   UNL     1     110.730 128.781 138.555  0.00  0.00    +0.000 OA
ATOM     21  C   UNL     1     110.068 129.269 138.513  0.00  0.00    +0.000 C 
ENDBRANCH   9  20
BRANCH   4  22
ATOM     22  O   UNL     1     111.226 127.487 138.959  0.00  0.00    +0.000 OA
BRANCH  22  31
ATOM     23  O   UNL     1     112.080 127.989 139.989  0.00  0.00    +0.000 OA
ATOM     24  O   UNL     1     112.158 127.541 142.124  0.00  0.00    +0.000 OA
ATOM     25  O   UNL     1     110.917 126.565 141.647  0.00  0.00    +0.000 OA
ATOM     26  O   UNL     1     110.451 126.538 140.064  0.00  0.00    +0.000 OA
ATOM     27  C   UNL     1     112.312 128.002 140.781  0.00  0.00    +0.000 C 
ATOM     28  C   UNL     1     111.925 127.527 141.333  0.00  0.00    +0.000 C 
ATOM     29  C   UNL     1     111.304 127.040 141.094  0.00  0.00    +0.000 C 
ATOM     30  C   UNL     1     111.071 127.026 140.303  0.00  0.00    +0.000 C 
ATOM     31  C   UNL     1     111.458 127.500 139.750  0.00  0.00    +0.000 C 
BRANCH  27  32
ATOM     32  C   UNL     1     112.934 128.490 141.020  0.00  0.00    +0.000 C 
BRANCH  32  33
ATOM     33  O   UNL     1     112.865 129.309 140.948  0.00  0.00    +0.000 OA
BRANCH  33  38
ATOM     34  O   UNL     1     114.228 129.514 140.572  0.00  0.00    +0.000 OA
ATOM     35  O   UNL     1     112.846 130.786 141.685  0.00  0.00    +0.000 OA
ATOM     36  O   UNL     1     114.200 131.728 141.677  0.00  0.00    +0.000 OA
ATOM     37  O   UNL     1     115.573 131.195 140.933  0.00  0.00    +0.000 OA
ATOM     38  C   UNL     1     113.542 129.781 140.944  0.00  0.00    +0.000 C 
ATOM     39  C   UNL     1     113.533 130.519 141.313  0.00  0.00    +0.000 C 
ATOM     40  C   UNL     1     114.209 130.990 141.309  0.00  0.00    +0.000 C 
ATOM     41  C   UNL     1     114.895 130.724 140.937  0.00  0.00    +0.000 C 
ATOM     42  C   UNL     1     114.905 129.986 140.569  0.00  0.00    +0.000 C 
ENDBRANCH  33  38
ENDBRANCH  32  33
ENDBRANCH  27  32
ENDBRANCH  22  31
ENDBRANCH   4  22
BRANCH  10  43
ATOM     43  C   UNL     1     113.043 128.831 136.122  0.00  0.00    +0.000 C 
BRANCH  43  44
ATOM     44  C   UNL     1     113.654 129.384 136.139  0.00  0.00    +0.000 C 
ATOM     45  C   UNL     1     114.243 129.369 135.561  0.00  0.00    +0.000 C 
ATOM     46  C   UNL     1     114.853 129.923 135.578  0.00  0.00    +0.000 C 
ATOM     47  C   UNL     1     114.220 128.799 134.965  0.00  0.00    +0.000 C 
ENDBRANCH  43  44
ENDBRANCH  10  43
TORSDOF 9
ENDMDL
MODEL 4
REMARK VINA RESULT:      -9.9      1.468      3.767
REMARK  Name = 44257162
REMARK  9 active torsions:
REMARK  status: ('A' for Active; 'I' for Inactive)
REMARK    1  A    between atoms: O_2  and  C_20
REMARK    2  A    between atoms: O_2  and  C_21
REMARK    3  A    between atoms: O_3  and  C_23
REMARK    4  A    between atoms: O_3  and  C_27
REMARK    5  A    between atoms: O_12  and  C_32
REMARK    6  A    between atoms: C_16  and  C_23
REMARK    7  A    between atoms: C_24  and  C_31
REMARK    8  A    between atoms: C_33  and  C_37
REMARK    9  A    between atoms: C_37  and  C_40
REMARK                            x       y       z     vdW  Elec       q    Type
REMARK                         _______ _______ _______ _____ _____    ______ ____
ROOT
ATOM      1  O   UNL     1     112.103 128.744 135.998  0.00  0.00    +0.000 OA
ATOM      2  O   UNL     1     113.935 127.558 136.007  0.00  0.00    +0.000 OA
ATOM      3  O   UNL     1     109.308 127.966 136.260  0.00  0.00    +0.000 OA
ATOM      4  C   UNL     1     112.567 127.167 136.136  0.00  0.00    +0.000 C 
ATOM      5  C   UNL     1     113.134 127.756 136.037  0.00  0.00    +0.000 C 
ATOM      6  C   UNL     1     112.902 128.545 135.968  0.00  0.00    +0.000 C 
ATOM      7  C   UNL     1     111.766 127.365 136.167  0.00  0.00    +0.000 A 
ATOM      8  C   UNL     1     111.534 128.154 136.097  0.00  0.00    +0.000 A 
ATOM      9  C   UNL     1     111.185 126.742 136.270  0.00  0.00    +0.000 A 
ATOM     10  C   UNL     1     110.704 128.374 136.127  0.00  0.00    +0.000 A 
ATOM     11  C   UNL     1     110.107 127.764 136.230  0.00  0.00    +0.000 A 
ATOM     12  C   UNL     1     110.349 126.942 136.303  0.00  0.00    +0.000 A 
ENDROOT
BRANCH   6  14
ATOM     13  O   UNL     1     115.174 130.905 135.569  0.00  0.00    +0.000 OA
ATOM     14  C   UNL     1     113.471 129.136 135.868  0.00  0.00    +0.000 A 
ATOM     15  C   UNL     1     113.787 129.281 135.120  0.00  0.00    +0.000 A 
ATOM     16  C   UNL     1     113.722 129.580 136.516  0.00  0.00    +0.000 A 
ATOM     17  C   UNL     1     114.356 129.871 135.021  0.00  0.00    +0.000 A 
ATOM     18  C   UNL     1     114.289 130.170 136.417  0.00  0.00    +0.000 A 
ATOM     19  C   UNL     1     114.607 130.316 135.669  0.00  0.00    +0.000 A 
ENDBRANCH   6  14
BRANCH   9  20
ATOM     20  O   UNL     1     111.425 125.956 136.339  0.00  0.00    +0.000 OA
ATOM     21  C   UNL     1     110.885 125.346 136.210  0.00  0.00    +0.000 C 
ENDBRANCH   9  20
BRANCH   4  22
ATOM     22  O   UNL     1     112.799 126.378 136.206  0.00  0.00    +0.000 OA
BRANCH  22  31
ATOM     23  O   UNL     1     113.133 126.442 137.594  0.00  0.00    +0.000 OA
ATOM     24  O   UNL     1     114.695 125.432 138.736  0.00  0.00    +0.000 OA
ATOM     25  O   UNL     1     114.975 124.831 137.225  0.00  0.00    +0.000 OA
ATOM     26  O   UNL     1     114.027 125.304 135.960  0.00  0.00    +0.000 OA
ATOM     27  C   UNL     1     113.607 126.205 138.226  0.00  0.00    +0.000 C 
ATOM     28  C   UNL     1     114.221 125.668 138.103  0.00  0.00    +0.000 C 
ATOM     29  C   UNL     1     114.361 125.368 137.348  0.00  0.00    +0.000 C 
ATOM     30  C   UNL     1     113.887 125.604 136.715  0.00  0.00    +0.000 C 
ATOM     31  C   UNL     1     113.273 126.141 136.838  0.00  0.00    +0.000 C 
BRANCH  27  32
ATOM     32  C   UNL     1     113.467 126.506 138.982  0.00  0.00    +0.000 C 
BRANCH  32  33
ATOM     33  O   UNL     1     112.706 126.481 139.300  0.00  0.00    +0.000 OA
BRANCH  33  38
ATOM     34  O   UNL     1     113.072 127.419 140.314  0.00  0.00    +0.000 OA
ATOM     35  O   UNL     1     111.342 126.098 140.147  0.00  0.00    +0.000 OA
ATOM     36  O   UNL     1     111.026 126.845 141.584  0.00  0.00    +0.000 OA
ATOM     37  O   UNL     1     112.074 127.974 142.174  0.00  0.00    +0.000 OA
ATOM     38  C   UNL     1     112.548 126.854 140.019  0.00  0.00    +0.000 C 
ATOM     39  C   UNL     1     111.866 126.663 140.443  0.00  0.00    +0.000 C 
ATOM     40  C   UNL     1     111.708 127.036 141.160  0.00  0.00    +0.000 C 
ATOM     41  C   UNL     1     112.232 127.600 141.456  0.00  0.00    +0.000 C 
ATOM     42  C   UNL     1     112.914 127.792 141.033  0.00  0.00    +0.000 C 
ENDBRANCH  33  38
ENDBRANCH  32  33
ENDBRANCH  27  32
ENDBRANCH  22  31
ENDBRANCH   4  22
BRANCH  10  43
ATOM     43  C   UNL     1     110.481 129.165 136.057  0.00  0.00    +0.000 C 
BRANCH  43  44
ATOM     44  C   UNL     1     110.094 129.426 135.377  0.00  0.00    +0.000 C 
ATOM     45  C   UNL     1     109.893 130.222 135.296  0.00  0.00    +0.000 C 
ATOM     46  C   UNL     1     109.506 130.483 134.617  0.00  0.00    +0.000 C 
ATOM     47  C   UNL     1     110.078 130.757 135.896  0.00  0.00    +0.000 C 
ENDBRANCH  43  44
ENDBRANCH  10  43
TORSDOF 9
ENDMDL
MODEL 5
REMARK VINA RESULT:      -9.7      0.887      1.084
REMARK  Name = 44257162
REMARK  9 active torsions:
REMARK  status: ('A' for Active; 'I' for Inactive)
REMARK    1  A    between atoms: O_2  and  C_20
REMARK    2  A    between atoms: O_2  and  C_21
REMARK    3  A    between atoms: O_3  and  C_23
REMARK    4  A    between atoms: O_3  and  C_27
REMARK    5  A    between atoms: O_12  and  C_32
REMARK    6  A    between atoms: C_16  and  C_23
REMARK    7  A    between atoms: C_24  and  C_31
REMARK    8  A    between atoms: C_33  and  C_37
REMARK    9  A    between atoms: C_37  and  C_40
REMARK                            x       y       z     vdW  Elec       q    Type
REMARK                         _______ _______ _______ _____ _____    ______ ____
ROOT
ATOM      1  O   UNL     1     112.768 127.391 136.351  0.00  0.00    +0.000 OA
ATOM      2  O   UNL     1     111.685 129.085 135.500  0.00  0.00    +0.000 OA
ATOM      3  O   UNL     1     111.939 124.648 136.876  0.00  0.00    +0.000 OA
ATOM      4  C   UNL     1     111.269 127.741 135.754  0.00  0.00    +0.000 C 
ATOM      5  C   UNL     1     111.851 128.325 135.776  0.00  0.00    +0.000 C 
ATOM      6  C   UNL     1     112.600 128.150 136.074  0.00  0.00    +0.000 C 
ATOM      7  C   UNL     1     111.436 126.982 136.030  0.00  0.00    +0.000 A 
ATOM      8  C   UNL     1     112.185 126.806 136.328  0.00  0.00    +0.000 A 
ATOM      9  C   UNL     1     110.821 126.382 136.002  0.00  0.00    +0.000 A 
ATOM     10  C   UNL     1     112.371 126.020 136.619  0.00  0.00    +0.000 A 
ATOM     11  C   UNL     1     111.770 125.406 136.599  0.00  0.00    +0.000 A 
ATOM     12  C   UNL     1     110.989 125.589 136.288  0.00  0.00    +0.000 A 
ENDROOT
BRANCH   6  14
ATOM     13  O   UNL     1     114.929 130.486 136.162  0.00  0.00    +0.000 OA
ATOM     14  C   UNL     1     113.183 128.734 136.096  0.00  0.00    +0.000 A 
ATOM     15  C   UNL     1     113.667 128.858 135.440  0.00  0.00    +0.000 A 
ATOM     16  C   UNL     1     113.281 129.194 136.774  0.00  0.00    +0.000 A 
ATOM     17  C   UNL     1     114.250 129.443 135.462  0.00  0.00    +0.000 A 
ATOM     18  C   UNL     1     113.862 129.778 136.796  0.00  0.00    +0.000 A 
ATOM     19  C   UNL     1     114.348 129.902 136.140  0.00  0.00    +0.000 A 
ENDBRANCH   6  14
BRANCH   9  20
ATOM     20  O   UNL     1     110.075 126.566 135.702  0.00  0.00    +0.000 OA
ATOM     21  C   UNL     1     109.615 125.978 135.352  0.00  0.00    +0.000 C 
ENDBRANCH   9  20
BRANCH   4  22
ATOM     22  O   UNL     1     110.520 127.916 135.456  0.00  0.00    +0.000 OA
BRANCH  22  31
ATOM     23  O   UNL     1     109.974 128.410 136.681  0.00  0.00    +0.000 OA
ATOM     24  O   UNL     1     108.555 130.025 137.064  0.00  0.00    +0.000 OA
ATOM     25  O   UNL     1     108.666 130.091 135.419  0.00  0.00    +0.000 OA
ATOM     26  O   UNL     1     109.648 129.036 134.615  0.00  0.00    +0.000 OA
ATOM     27  C   UNL     1     109.483 128.938 137.082  0.00  0.00    +0.000 C 
ATOM     28  C   UNL     1     109.047 129.498 136.661  0.00  0.00    +0.000 C 
ATOM     29  C   UNL     1     109.102 129.531 135.839  0.00  0.00    +0.000 C 
ATOM     30  C   UNL     1     109.593 129.004 135.437  0.00  0.00    +0.000 C 
ATOM     31  C   UNL     1     110.029 128.444 135.857  0.00  0.00    +0.000 C 
BRANCH  27  32
ATOM     32  C   UNL     1     109.427 128.905 137.905  0.00  0.00    +0.000 C 
BRANCH  32  33
ATOM     33  O   UNL     1     110.109 128.810 138.360  0.00  0.00    +0.000 OA
BRANCH  33  38
ATOM     34  O   UNL     1     109.313 128.483 139.500  0.00  0.00    +0.000 OA
ATOM     35  O   UNL     1     111.452 128.872 139.316  0.00  0.00    +0.000 OA
ATOM     36  O   UNL     1     111.328 128.576 140.934  0.00  0.00    +0.000 OA
ATOM     37  O   UNL     1     109.860 128.218 141.597  0.00  0.00    +0.000 OA
ATOM     38  C   UNL     1     110.047 128.662 139.170  0.00  0.00    +0.000 C 
ATOM     39  C   UNL     1     110.719 128.693 139.648  0.00  0.00    +0.000 C 
ATOM     40  C   UNL     1     110.656 128.545 140.456  0.00  0.00    +0.000 C 
ATOM     41  C   UNL     1     109.923 128.366 140.787  0.00  0.00    +0.000 C 
ATOM     42  C   UNL     1     109.251 128.335 140.309  0.00  0.00    +0.000 C 
ENDBRANCH  33  38
ENDBRANCH  32  33
ENDBRANCH  27  32
ENDBRANCH  22  31
ENDBRANCH   4  22
BRANCH  10  43
ATOM     43  C   UNL     1     113.123 125.853 136.915  0.00  0.00    +0.000 C 
BRANCH  43  44
ATOM     44  C   UNL     1     113.654 125.408 136.469  0.00  0.00    +0.000 C 
ATOM     45  C   UNL     1     114.394 125.215 136.778  0.00  0.00    +0.000 C 
ATOM     46  C   UNL     1     114.925 124.770 136.331  0.00  0.00    +0.000 C 
ATOM     47  C   UNL     1     114.603 125.468 137.534  0.00  0.00    +0.000 C 
ENDBRANCH  43  44
ENDBRANCH  10  43
TORSDOF 9
ENDMDL
MODEL 6
REMARK VINA RESULT:      -9.7      1.437      3.686
REMARK  Name = 44257162
REMARK  9 active torsions:
REMARK  status: ('A' for Active; 'I' for Inactive)
REMARK    1  A    between atoms: O_2  and  C_20
REMARK    2  A    between atoms: O_2  and  C_21
REMARK    3  A    between atoms: O_3  and  C_23
REMARK    4  A    between atoms: O_3  and  C_27
REMARK    5  A    between atoms: O_12  and  C_32
REMARK    6  A    between atoms: C_16  and  C_23
REMARK    7  A    between atoms: C_24  and  C_31
REMARK    8  A    between atoms: C_33  and  C_37
REMARK    9  A    between atoms: C_37  and  C_40
REMARK                            x       y       z     vdW  Elec       q    Type
REMARK                         _______ _______ _______ _____ _____    ______ ____
ROOT
ATOM      1  O   UNL     1     110.896 128.764 135.953  0.00  0.00    +0.000 OA
ATOM      2  O   UNL     1     112.170 126.999 135.784  0.00  0.00    +0.000 OA
ATOM      3  O   UNL     1     107.999 129.058 135.872  0.00  0.00    +0.000 OA
ATOM      4  C   UNL     1     110.748 127.134 135.744  0.00  0.00    +0.000 C 
ATOM      5  C   UNL     1     111.495 127.474 135.816  0.00  0.00    +0.000 C 
ATOM      6  C   UNL     1     111.570 128.289 135.921  0.00  0.00    +0.000 C 
ATOM      7  C   UNL     1     110.073 127.608 135.775  0.00  0.00    +0.000 A 
ATOM      8  C   UNL     1     110.148 128.423 135.880  0.00  0.00    +0.000 A 
ATOM      9  C   UNL     1     109.300 127.242 135.698  0.00  0.00    +0.000 A 
ATOM     10  C   UNL     1     109.454 128.929 135.915  0.00  0.00    +0.000 A 
ATOM     11  C   UNL     1     108.671 128.581 135.840  0.00  0.00    +0.000 A 
ATOM     12  C   UNL     1     108.594 127.732 135.731  0.00  0.00    +0.000 A 
ENDROOT
BRANCH   6  14
ATOM     13  O   UNL     1     114.562 129.650 136.211  0.00  0.00    +0.000 OA
ATOM     14  C   UNL     1     112.318 128.629 135.994  0.00  0.00    +0.000 A 
ATOM     15  C   UNL     1     112.739 128.847 135.318  0.00  0.00    +0.000 A 
ATOM     16  C   UNL     1     112.645 128.752 136.741  0.00  0.00    +0.000 A 
ATOM     17  C   UNL     1     113.488 129.187 135.391  0.00  0.00    +0.000 A 
ATOM     18  C   UNL     1     113.392 129.092 136.814  0.00  0.00    +0.000 A 
ATOM     19  C   UNL     1     113.814 129.310 136.139  0.00  0.00    +0.000 A 
ENDBRANCH   6  14
BRANCH   9  20
ATOM     20  O   UNL     1     109.235 126.427 135.594  0.00  0.00    +0.000 OA
ATOM     21  C   UNL     1     108.567 126.110 135.230  0.00  0.00    +0.000 C 
ENDBRANCH   9  20
BRANCH   4  22
ATOM     22  O   UNL     1     110.673 126.319 135.639  0.00  0.00    +0.000 OA
BRANCH  22  31
ATOM     23  O   UNL     1     110.782 125.992 137.026  0.00  0.00    +0.000 OA
ATOM     24  O   UNL     1     111.649 124.253 138.021  0.00  0.00    +0.000 OA
ATOM     25  O   UNL     1     111.919 123.874 136.438  0.00  0.00    +0.000 OA
ATOM     26  O   UNL     1     111.431 124.907 135.247  0.00  0.00    +0.000 OA
ATOM     27  C   UNL     1     111.026 125.476 137.621  0.00  0.00    +0.000 C 
ATOM     28  C   UNL     1     111.405 124.770 137.425  0.00  0.00    +0.000 C 
ATOM     29  C   UNL     1     111.540 124.580 136.634  0.00  0.00    +0.000 C 
ATOM     30  C   UNL     1     111.297 125.096 136.038  0.00  0.00    +0.000 C 
ATOM     31  C   UNL     1     110.917 125.802 136.234  0.00  0.00    +0.000 C 
BRANCH  27  32
ATOM     32  C   UNL     1     110.891 125.666 138.413  0.00  0.00    +0.000 C 
BRANCH  32  33
ATOM     33  O   UNL     1     110.137 125.891 138.659  0.00  0.00    +0.000 OA
BRANCH  33  38
ATOM     34  O   UNL     1     110.646 126.165 139.966  0.00  0.00    +0.000 OA
ATOM     35  O   UNL     1     108.615 126.273 139.172  0.00  0.00    +0.000 OA
ATOM     36  O   UNL     1     108.364 126.737 140.735  0.00  0.00    +0.000 OA
ATOM     37  O   UNL     1     109.634 126.819 141.786  0.00  0.00    +0.000 OA
ATOM     38  C   UNL     1     110.011 126.124 139.441  0.00  0.00    +0.000 C 
ATOM     39  C   UNL     1     109.250 126.314 139.698  0.00  0.00    +0.000 C 
ATOM     40  C   UNL     1     109.125 126.546 140.479  0.00  0.00    +0.000 C 
ATOM     41  C   UNL     1     109.759 126.587 141.004  0.00  0.00    +0.000 C 
ATOM     42  C   UNL     1     110.520 126.397 140.747  0.00  0.00    +0.000 C 
ENDBRANCH  33  38
ENDBRANCH  32  33
ENDBRANCH  27  32
ENDBRANCH  22  31
ENDBRANCH   4  22
BRANCH  10  43
ATOM     43  C   UNL     1     109.537 129.743 136.020  0.00  0.00    +0.000 C 
BRANCH  43  44
ATOM     44  C   UNL     1     109.308 130.262 135.422  0.00  0.00    +0.000 C 
ATOM     45  C   UNL     1     109.422 131.074 135.513  0.00  0.00    +0.000 C 
ATOM     46  C   UNL     1     109.193 131.593 134.915  0.00  0.00    +0.000 C 
ATOM     47  C   UNL     1     109.764 131.367 136.204  0.00  0.00    +0.000 C 
ENDBRANCH  43  44
ENDBRANCH  10  43
TORSDOF 9
ENDMDL
MODEL 7
REMARK VINA RESULT:      -9.7      1.856      4.013
REMARK  Name = 44257162
REMARK  9 active torsions:
REMARK  status: ('A' for Active; 'I' for Inactive)
REMARK    1  A    between atoms: O_2  and  C_20
REMARK    2  A    between atoms: O_2  and  C_21
REMARK    3  A    between atoms: O_3  and  C_23
REMARK    4  A    between atoms: O_3  and  C_27
REMARK    5  A    between atoms: O_12  and  C_32
REMARK    6  A    between atoms: C_16  and  C_23
REMARK    7  A    between atoms: C_24  and  C_31
REMARK    8  A    between atoms: C_33  and  C_37
REMARK    9  A    between atoms: C_37  and  C_40
REMARK                            x       y       z     vdW  Elec       q    Type
REMARK                         _______ _______ _______ _____ _____    ______ ____
ROOT
ATOM      1  O   UNL     1     112.968 126.123 138.379  0.00  0.00    +0.000 OA
ATOM      2  O   UNL     1     112.163 125.518 136.442  0.00  0.00    +0.000 OA
ATOM      3  O   UNL     1     111.645 126.985 140.826  0.00  0.00    +0.000 OA
ATOM      4  C   UNL     1     111.505 125.940 137.639  0.00  0.00    +0.000 C 
ATOM      5  C   UNL     1     112.199 125.775 137.226  0.00  0.00    +0.000 C 
ATOM      6  C   UNL     1     112.930 125.866 137.596  0.00  0.00    +0.000 C 
ATOM      7  C   UNL     1     111.541 126.197 138.422  0.00  0.00    +0.000 A 
ATOM      8  C   UNL     1     112.273 126.288 138.792  0.00  0.00    +0.000 A 
ATOM      9  C   UNL     1     110.811 126.365 138.841  0.00  0.00    +0.000 A 
ATOM     10  C   UNL     1     112.325 126.555 139.607  0.00  0.00    +0.000 A 
ATOM     11  C   UNL     1     111.605 126.729 140.043  0.00  0.00    +0.000 A 
ATOM     12  C   UNL     1     110.842 126.633 139.658  0.00  0.00    +0.000 A 
ENDROOT
BRANCH   6  14
ATOM     13  O   UNL     1     115.710 125.206 135.943  0.00  0.00    +0.000 OA
ATOM     14  C   UNL     1     113.626 125.701 137.182  0.00  0.00    +0.000 A 
ATOM     15  C   UNL     1     113.959 126.273 136.690  0.00  0.00    +0.000 A 
ATOM     16  C   UNL     1     113.988 124.964 137.261  0.00  0.00    +0.000 A 
ATOM     17  C   UNL     1     114.654 126.108 136.277  0.00  0.00    +0.000 A 
ATOM     18  C   UNL     1     114.682 124.799 136.849  0.00  0.00    +0.000 A 
ATOM     19  C   UNL     1     115.016 125.371 136.356  0.00  0.00    +0.000 A 
ENDBRANCH   6  14
BRANCH   9  20
ATOM     20  O   UNL     1     110.083 126.271 138.464  0.00  0.00    +0.000 OA
ATOM     21  C   UNL     1     109.399 126.156 138.909  0.00  0.00    +0.000 C 
ENDBRANCH   9  20
BRANCH   4  22
ATOM     22  O   UNL     1     110.773 125.848 137.269  0.00  0.00    +0.000 OA
BRANCH  22  31
ATOM     23  O   UNL     1     110.693 127.137 136.657  0.00  0.00    +0.000 OA
ATOM     24  O   UNL     1     109.983 127.740 134.682  0.00  0.00    +0.000 OA
ATOM     25  O   UNL     1     109.749 126.108 134.613  0.00  0.00    +0.000 OA
ATOM     26  O   UNL     1     110.144 125.162 135.906  0.00  0.00    +0.000 OA
ATOM     27  C   UNL     1     110.495 127.609 136.010  0.00  0.00    +0.000 C 
ATOM     28  C   UNL     1     110.181 127.266 135.329  0.00  0.00    +0.000 C 
ATOM     29  C   UNL     1     110.064 126.451 135.294  0.00  0.00    +0.000 C 
ATOM     30  C   UNL     1     110.261 125.977 135.941  0.00  0.00    +0.000 C 
ATOM     31  C   UNL     1     110.575 126.321 136.622  0.00  0.00    +0.000 C 
BRANCH  27  32
ATOM     32  C   UNL     1     110.612 128.426 136.045  0.00  0.00    +0.000 C 
BRANCH  32  33
ATOM     33  O   UNL     1     111.188 128.738 136.546  0.00  0.00    +0.000 OA
BRANCH  33  38
ATOM     34  O   UNL     1     110.582 130.031 136.489  0.00  0.00    +0.000 OA
ATOM     35  O   UNL     1     112.571 129.413 137.142  0.00  0.00    +0.000 OA
ATOM     36  O   UNL     1     112.656 131.043 137.383  0.00  0.00    +0.000 OA
ATOM     37  O   UNL     1     111.359 131.999 137.028  0.00  0.00    +0.000 OA
ATOM     38  C   UNL     1     111.231 129.554 136.667  0.00  0.00    +0.000 C 
ATOM     39  C   UNL     1     111.922 129.891 136.965  0.00  0.00    +0.000 C 
ATOM     40  C   UNL     1     111.965 130.706 137.085  0.00  0.00    +0.000 C 
ATOM     41  C   UNL     1     111.317 131.183 136.908  0.00  0.00    +0.000 C 
ATOM     42  C   UNL     1     110.625 130.846 136.610  0.00  0.00    +0.000 C 
ENDBRANCH  33  38
ENDBRANCH  32  33
ENDBRANCH  27  32
ENDBRANCH  22  31
ENDBRANCH   4  22
BRANCH  10  43
ATOM     43  C   UNL     1     113.060 126.644 139.969  0.00  0.00    +0.000 C 
BRANCH  43  44
ATOM     44  C   UNL     1     113.340 127.396 140.158  0.00  0.00    +0.000 C 
ATOM     45  C   UNL     1     114.083 127.486 140.506  0.00  0.00    +0.000 C 
ATOM     46  C   UNL     1     114.362 128.238 140.695  0.00  0.00    +0.000 C 
ATOM     47  C   UNL     1     114.547 126.823 140.663  0.00  0.00    +0.000 C 
ENDBRANCH  43  44
ENDBRANCH  10  43
TORSDOF 9
ENDMDL
MODEL 8
REMARK VINA RESULT:      -9.6      1.553      3.940
REMARK  Name = 44257162
REMARK  9 active torsions:
REMARK  status: ('A' for Active; 'I' for Inactive)
REMARK    1  A    between atoms: O_2  and  C_20
REMARK    2  A    between atoms: O_2  and  C_21
REMARK    3  A    between atoms: O_3  and  C_23
REMARK    4  A    between atoms: O_3  and  C_27
REMARK    5  A    between atoms: O_12  and  C_32
REMARK    6  A    between atoms: C_16  and  C_23
REMARK    7  A    between atoms: C_24  and  C_31
REMARK    8  A    between atoms: C_33  and  C_37
REMARK    9  A    between atoms: C_37  and  C_40
REMARK                            x       y       z     vdW  Elec       q    Type
REMARK                         _______ _______ _______ _____ _____    ______ ____
ROOT
ATOM      1  O   UNL     1     111.702 126.409 137.822  0.00  0.00    +0.000 OA
ATOM      2  O   UNL     1     110.921 128.104 138.955  0.00  0.00    +0.000 OA
ATOM      3  O   UNL     1     110.965 125.333 135.218  0.00  0.00    +0.000 OA
ATOM      4  C   UNL     1     110.552 127.583 137.676  0.00  0.00    +0.000 C 
ATOM      5  C   UNL     1     111.024 127.550 138.351  0.00  0.00    +0.000 C 
ATOM      6  C   UNL     1     111.599 126.963 138.425  0.00  0.00    +0.000 C 
ATOM      7  C   UNL     1     110.655 127.029 137.073  0.00  0.00    +0.000 A 
ATOM      8  C   UNL     1     111.230 126.443 137.146  0.00  0.00    +0.000 A 
ATOM      9  C   UNL     1     110.157 127.075 136.374  0.00  0.00    +0.000 A 
ATOM     10  C   UNL     1     111.347 125.860 136.526  0.00  0.00    +0.000 A 
ATOM     11  C   UNL     1     110.859 125.888 135.819  0.00  0.00    +0.000 A 
ATOM     12  C   UNL     1     110.260 126.500 135.743  0.00  0.00    +0.000 A 
ENDROOT
BRANCH   6  14
ATOM     13  O   UNL     1     113.486 126.830 141.128  0.00  0.00    +0.000 OA
ATOM     14  C   UNL     1     112.071 126.930 139.101  0.00  0.00    +0.000 A 
ATOM     15  C   UNL     1     111.794 126.549 139.778  0.00  0.00    +0.000 A 
ATOM     16  C   UNL     1     112.819 127.278 139.099  0.00  0.00    +0.000 A 
ATOM     17  C   UNL     1     112.267 126.516 140.455  0.00  0.00    +0.000 A 
ATOM     18  C   UNL     1     113.291 127.245 139.775  0.00  0.00    +0.000 A 
ATOM     19  C   UNL     1     113.015 126.864 140.453  0.00  0.00    +0.000 A 
ENDBRANCH   6  14
BRANCH   9  20
ATOM     20  O   UNL     1     109.584 127.665 136.309  0.00  0.00    +0.000 OA
ATOM     21  C   UNL     1     108.987 127.599 135.745  0.00  0.00    +0.000 C 
ENDBRANCH   9  20
BRANCH   4  22
ATOM     22  O   UNL     1     109.977 128.170 137.603  0.00  0.00    +0.000 OA
BRANCH  22  31
ATOM     23  O   UNL     1     110.916 129.189 137.251  0.00  0.00    +0.000 OA
ATOM     24  O   UNL     1     110.860 131.349 137.555  0.00  0.00    +0.000 OA
ATOM     25  O   UNL     1     109.424 130.902 138.234  0.00  0.00    +0.000 OA
ATOM     26  O   UNL     1     108.983 129.312 138.258  0.00  0.00    +0.000 OA
ATOM     27  C   UNL     1     111.136 129.983 137.240  0.00  0.00    +0.000 C 
ATOM     28  C   UNL     1     110.639 130.555 137.567  0.00  0.00    +0.000 C 
ATOM     29  C   UNL     1     109.921 130.331 137.906  0.00  0.00    +0.000 C 
ATOM     30  C   UNL     1     109.700 129.536 137.919  0.00  0.00    +0.000 C 
ATOM     31  C   UNL     1     110.197 128.965 137.591  0.00  0.00    +0.000 C 
BRANCH  27  32
ATOM     32  C   UNL     1     111.854 130.207 136.900  0.00  0.00    +0.000 C 
BRANCH  32  33
ATOM     33  O   UNL     1     112.185 129.751 136.298  0.00  0.00    +0.000 OA
BRANCH  33  38
ATOM     34  O   UNL     1     113.433 130.424 136.474  0.00  0.00    +0.000 OA
ATOM     35  O   UNL     1     112.832 128.877 135.057  0.00  0.00    +0.000 OA
ATOM     36  O   UNL     1     114.403 129.113 134.613  0.00  0.00    +0.000 OA
ATOM     37  O   UNL     1     115.328 130.223 135.410  0.00  0.00    +0.000 OA
ATOM     38  C   UNL     1     112.971 129.869 136.076  0.00  0.00    +0.000 C 
ATOM     39  C   UNL     1     113.295 129.432 135.455  0.00  0.00    +0.000 C 
ATOM     40  C   UNL     1     114.080 129.550 135.233  0.00  0.00    +0.000 C 
ATOM     41  C   UNL     1     114.542 130.104 135.631  0.00  0.00    +0.000 C 
ATOM     42  C   UNL     1     114.218 130.541 136.252  0.00  0.00    +0.000 C 
ENDBRANCH  33  38
ENDBRANCH  32  33
ENDBRANCH  27  32
ENDBRANCH  22  31
ENDBRANCH   4  22
BRANCH  10  43
ATOM     43  C   UNL     1     111.925 125.277 136.607  0.00  0.00    +0.000 C 
BRANCH  43  44
ATOM     44  C   UNL     1     111.705 124.493 136.739  0.00  0.00    +0.000 C 
ATOM     45  C   UNL     1     112.282 123.916 136.862  0.00  0.00    +0.000 C 
ATOM     46  C   UNL     1     112.062 123.133 136.994  0.00  0.00    +0.000 C 
ATOM     47  C   UNL     1     113.080 124.124 136.853  0.00  0.00    +0.000 C 
ENDBRANCH  43  44
ENDBRANCH  10  43
TORSDOF 9
ENDMDL
MODEL 9
REMARK VINA RESULT:      -9.6      1.784      4.069
REMARK  Name = 44257162
REMARK  9 active torsions:
REMARK  status: ('A' for Active; 'I' for Inactive)
REMARK    1  A    between atoms: O_2  and  C_20
REMARK    2  A    between atoms: O_2  and  C_21
REMARK    3  A    between atoms: O_3  and  C_23
REMARK    4  A    between atoms: O_3  and  C_27
REMARK    5  A    between atoms: O_12  and  C_32
REMARK    6  A    between atoms: C_16  and  C_23
REMARK    7  A    between atoms: C_24  and  C_31
REMARK    8  A    between atoms: C_33  and  C_37
REMARK    9  A    between atoms: C_37  and  C_40
REMARK                            x       y       z     vdW  Elec       q    Type
REMARK                         _______ _______ _______ _____ _____    ______ ____
ROOT
ATOM      1  O   UNL     1     112.207 126.302 137.661  0.00  0.00    +0.000 OA
ATOM      2  O   UNL     1     110.127 126.806 138.091  0.00  0.00    +0.000 OA
ATOM      3  O   UNL     1     114.577 126.312 139.356  0.00  0.00    +0.000 OA
ATOM      4  C   UNL     1     111.284 126.813 138.930  0.00  0.00    +0.000 C 
ATOM      5  C   UNL     1     110.937 126.682 138.194  0.00  0.00    +0.000 C 
ATOM      6  C   UNL     1     111.398 126.426 137.560  0.00  0.00    +0.000 C 
ATOM      7  C   UNL     1     112.094 126.690 139.033  0.00  0.00    +0.000 A 
ATOM      8  C   UNL     1     112.555 126.434 138.398  0.00  0.00    +0.000 A 
ATOM      9  C   UNL     1     112.444 126.830 139.804  0.00  0.00    +0.000 A 
ATOM     10  C   UNL     1     113.399 126.301 138.492  0.00  0.00    +0.000 A 
ATOM     11  C   UNL     1     113.768 126.436 139.256  0.00  0.00    +0.000 A 
ATOM     12  C   UNL     1     113.286 126.703 139.917  0.00  0.00    +0.000 A 
ENDROOT
BRANCH   6  14
ATOM     13  O   UNL     1     110.008 125.900 134.613  0.00  0.00    +0.000 OA
ATOM     14  C   UNL     1     111.051 126.294 136.822  0.00  0.00    +0.000 A 
ATOM     15  C   UNL     1     110.985 126.913 136.281  0.00  0.00    +0.000 A 
ATOM     16  C   UNL     1     110.769 125.544 136.627  0.00  0.00    +0.000 A 
ATOM     17  C   UNL     1     110.638 126.782 135.544  0.00  0.00    +0.000 A 
ATOM     18  C   UNL     1     110.421 125.413 135.891  0.00  0.00    +0.000 A 
ATOM     19  C   UNL     1     110.356 126.031 135.349  0.00  0.00    +0.000 A 
ENDBRANCH   6  14
BRANCH   9  20
ATOM     20  O   UNL     1     111.975 127.086 140.433  0.00  0.00    +0.000 OA
ATOM     21  C   UNL     1     112.247 127.011 141.207  0.00  0.00    +0.000 C 
ENDBRANCH   9  20
BRANCH   4  22
ATOM     22  O   UNL     1     110.823 127.069 139.564  0.00  0.00    +0.000 OA
BRANCH  22  31
ATOM     23  O   UNL     1     110.876 128.447 139.189  0.00  0.00    +0.000 OA
ATOM     24  O   UNL     1     109.451 130.070 139.503  0.00  0.00    +0.000 OA
ATOM     25  O   UNL     1     108.658 128.814 140.223  0.00  0.00    +0.000 OA
ATOM     26  O   UNL     1     109.344 127.314 140.253  0.00  0.00    +0.000 OA
ATOM     27  C   UNL     1     110.533 129.197 139.174  0.00  0.00    +0.000 C 
ATOM     28  C   UNL     1     109.793 129.319 139.518  0.00  0.00    +0.000 C 
ATOM     29  C   UNL     1     109.397 128.692 139.878  0.00  0.00    +0.000 C 
ATOM     30  C   UNL     1     109.740 127.941 139.894  0.00  0.00    +0.000 C 
ATOM     31  C   UNL     1     110.479 127.819 139.549  0.00  0.00    +0.000 C 
BRANCH  27  32
ATOM     32  C   UNL     1     110.930 129.825 138.813  0.00  0.00    +0.000 C 
BRANCH  32  33
ATOM     33  O   UNL     1     111.734 129.940 138.957  0.00  0.00    +0.000 OA
BRANCH  33  38
ATOM     34  O   UNL     1     111.860 130.607 137.699  0.00  0.00    +0.000 OA
ATOM     35  O   UNL     1     113.349 130.140 139.226  0.00  0.00    +0.000 OA
ATOM     36  O   UNL     1     114.284 130.907 138.103  0.00  0.00    +0.000 OA
ATOM     37  O   UNL     1     113.603 131.474 136.711  0.00  0.00    +0.000 OA
ATOM     38  C   UNL     1     112.201 130.324 138.395  0.00  0.00    +0.000 C 
ATOM     39  C   UNL     1     113.009 130.424 138.529  0.00  0.00    +0.000 C 
ATOM     40  C   UNL     1     113.476 130.807 137.968  0.00  0.00    +0.000 C 
ATOM     41  C   UNL     1     113.136 131.090 137.273  0.00  0.00    +0.000 C 
ATOM     42  C   UNL     1     112.328 130.990 137.138  0.00  0.00    +0.000 C 
ENDBRANCH  33  38
ENDBRANCH  32  33
ENDBRANCH  27  32
ENDBRANCH  22  31
ENDBRANCH   4  22
BRANCH  10  43
ATOM     43  C   UNL     1     113.853 126.046 137.852  0.00  0.00    +0.000 C 
BRANCH  43  44
ATOM     44  C   UNL     1     114.170 125.285 137.849  0.00  0.00    +0.000 C 
ATOM     45  C   UNL     1     114.559 125.002 137.178  0.00  0.00    +0.000 C 
ATOM     46  C   UNL     1     114.876 124.241 137.175  0.00  0.00    +0.000 C 
ATOM     47  C   UNL     1     114.630 125.481 136.511  0.00  0.00    +0.000 C 
ENDBRANCH  43  44
ENDBRANCH  10  43
TORSDOF 9
ENDMDL
MODEL 10
REMARK VINA RESULT:      -9.6      1.912      4.448
REMARK  Name = 44257162
REMARK  9 active torsions:
REMARK  status: ('A' for Active; 'I' for Inactive)
REMARK    1  A    between atoms: O_2  and  C_20
REMARK    2  A    between atoms: O_2  and  C_21
REMARK    3  A    between atoms: O_3  and  C_23
REMARK    4  A    between atoms: O_3  and  C_27
REMARK    5  A    between atoms: O_12  and  C_32
REMARK    6  A    between atoms: C_16  and  C_23
REMARK    7  A    between atoms: C_24  and  C_31
REMARK    8  A    between atoms: C_33  and  C_37
REMARK    9  A    between atoms: C_37  and  C_40
REMARK                            x       y       z     vdW  Elec       q    Type
REMARK                         _______ _______ _______ _____ _____    ______ ____
ROOT
ATOM      1  O   UNL     1     111.894 129.551 136.922  0.00  0.00    +0.000 OA
ATOM      2  O   UNL     1     113.495 129.633 138.403  0.00  0.00    +0.000 OA
ATOM      3  O   UNL     1     109.105 128.742 137.150  0.00  0.00    +0.000 OA
ATOM      4  C   UNL     1     112.128 129.235 138.524  0.00  0.00    +0.000 C 
ATOM      5  C   UNL     1     112.753 129.513 138.064  0.00  0.00    +0.000 C 
ATOM      6  C   UNL     1     112.636 129.671 137.263  0.00  0.00    +0.000 C 
ATOM      7  C   UNL     1     111.386 129.114 138.185  0.00  0.00    +0.000 A 
ATOM      8  C   UNL     1     111.269 129.272 137.384  0.00  0.00    +0.000 A 
ATOM      9  C   UNL     1     110.743 128.824 138.676  0.00  0.00    +0.000 A 
ATOM     10  C   UNL     1     110.501 129.151 137.018  0.00  0.00    +0.000 A 
ATOM     11  C   UNL     1     109.846 128.862 137.492  0.00  0.00    +0.000 A 
ATOM     12  C   UNL     1     109.968 128.697 138.327  0.00  0.00    +0.000 A 
ENDROOT
BRANCH   6  14
ATOM     13  O   UNL     1     115.135 130.783 135.417  0.00  0.00    +0.000 OA
ATOM     14  C   UNL     1     113.261 129.949 136.801  0.00  0.00    +0.000 A 
ATOM     15  C   UNL     1     113.693 129.425 136.333  0.00  0.00    +0.000 A 
ATOM     16  C   UNL     1     113.454 130.751 136.808  0.00  0.00    +0.000 A 
ATOM     17  C   UNL     1     114.318 129.703 135.871  0.00  0.00    +0.000 A 
ATOM     18  C   UNL     1     114.078 131.029 136.347  0.00  0.00    +0.000 A 
ATOM     19  C   UNL     1     114.511 130.505 135.878  0.00  0.00    +0.000 A 
ENDBRANCH   6  14
BRANCH   9  20
ATOM     20  O   UNL     1     110.869 128.669 139.476  0.00  0.00    +0.000 OA
ATOM     21  C   UNL     1     110.227 128.590 139.987  0.00  0.00    +0.000 C 
ENDBRANCH   9  20
BRANCH   4  22
ATOM     22  O   UNL     1     112.245 129.077 139.326  0.00  0.00    +0.000 OA
BRANCH  22  31
ATOM     23  O   UNL     1     112.817 127.783 139.125  0.00  0.00    +0.000 OA
ATOM     24  O   UNL     1     114.347 126.706 140.251  0.00  0.00    +0.000 OA
ATOM     25  O   UNL     1     114.253 128.109 141.115  0.00  0.00    +0.000 OA
ATOM     26  O   UNL     1     113.202 129.295 140.652  0.00  0.00    +0.000 OA
ATOM     27  C   UNL     1     113.343 127.191 139.357  0.00  0.00    +0.000 C 
ATOM     28  C   UNL     1     113.821 127.300 140.020  0.00  0.00    +0.000 C 
ATOM     29  C   UNL     1     113.775 128.001 140.451  0.00  0.00    +0.000 C 
ATOM     30  C   UNL     1     113.249 128.594 140.221  0.00  0.00    +0.000 C 
ATOM     31  C   UNL     1     112.771 128.485 139.557  0.00  0.00    +0.000 C 
BRANCH  27  32
ATOM     32  C   UNL     1     113.390 126.489 138.925  0.00  0.00    +0.000 C 
BRANCH  32  33
ATOM     33  O   UNL     1     112.709 126.166 138.589  0.00  0.00    +0.000 OA
BRANCH  33  38
ATOM     34  O   UNL     1     113.512 125.339 137.744  0.00  0.00    +0.000 OA
ATOM     35  O   UNL     1     111.354 125.384 138.066  0.00  0.00    +0.000 OA
ATOM     36  O   UNL     1     111.479 124.165 136.960  0.00  0.00    +0.000 OA
ATOM     37  O   UNL     1     112.960 123.730 136.377  0.00  0.00    +0.000 OA
ATOM     38  C   UNL     1     112.772 125.557 138.035  0.00  0.00    +0.000 C 
ATOM     39  C   UNL     1     112.094 125.165 137.774  0.00  0.00    +0.000 C 
ATOM     40  C   UNL     1     112.157 124.557 137.221  0.00  0.00    +0.000 C 
ATOM     41  C   UNL     1     112.897 124.339 136.930  0.00  0.00    +0.000 C 
ATOM     42  C   UNL     1     113.574 124.730 137.191  0.00  0.00    +0.000 C 
ENDBRANCH  33  38
ENDBRANCH  32  33
ENDBRANCH  27  32
ENDBRANCH  22  31
ENDBRANCH   4  22
BRANCH  10  43
ATOM     43  C   UNL     1     110.393 129.312 136.216  0.00  0.00    +0.000 C 
BRANCH  43  44
ATOM     44  C   UNL     1     109.935 129.956 135.982  0.00  0.00    +0.000 C 
ATOM     45  C   UNL     1     109.838 130.125 135.180  0.00  0.00    +0.000 C 
ATOM     46  C   UNL     1     109.380 130.769 134.946  0.00  0.00    +0.000 C 
ATOM     47  C   UNL     1     110.200 129.649 134.612  0.00  0.00    +0.000 C 
ENDBRANCH  43  44
ENDBRANCH  10  43
TORSDOF 9
ENDMDL
