MODEL 1
REMARK VINA RESULT:      -8.6      0.000      0.000
REMARK  Name = 42607524
REMARK  6 active torsions:
REMARK  status: ('A' for Active; 'I' for Inactive)
REMARK    1  A    between atoms: O_4  and  C_15
REMARK    2  A    between atoms: O_4  and  C_17
REMARK    3  A    between atoms: C_13  and  C_16
REMARK    4  A    between atoms: C_20  and  C_23
REMARK    5  A    between atoms: C_24  and  C_25
REMARK    6  A    between atoms: C_25  and  C_26
REMARK                            x       y       z     vdW  Elec       q    Type
REMARK                         _______ _______ _______ _____ _____    ______ ____
ROOT
ATOM      1  O   UNL     1     111.365 124.585 135.628  0.00  0.00    +0.000 OA
ATOM      2  C   UNL     1     110.612 125.510 136.415  0.00  0.00    +0.000 A 
ATOM      3  C   UNL     1     110.063 126.123 136.466  0.00  0.00    +0.000 A 
ATOM      4  C   UNL     1     110.816 125.198 135.678  0.00  0.00    +0.000 A 
ATOM      5  C   UNL     1     109.717 126.425 135.780  0.00  0.00    +0.000 A 
ATOM      6  C   UNL     1     110.470 125.501 134.993  0.00  0.00    +0.000 A 
ATOM      7  C   UNL     1     109.921 126.114 135.044  0.00  0.00    +0.000 A 
ENDROOT
BRANCH   5   8
ATOM      8  C   UNL     1     109.168 127.038 135.831  0.00  0.00    +0.000 C 
ATOM      9  C   UNL     1     109.412 127.820 135.728  0.00  0.00    +0.000 C 
BRANCH   9  11
ATOM     10  O   UNL     1     108.061 128.263 135.868  0.00  0.00    +0.000 OA
ATOM     11  C   UNL     1     108.863 128.434 135.779  0.00  0.00    +0.000 C 
BRANCH  11  14
ATOM     12  O   UNL     1     108.789 129.390 137.122  0.00  0.00    +0.000 OA
ATOM     13  O   UNL     1     109.875 131.571 135.628  0.00  0.00    +0.000 OA
ATOM     14  C   UNL     1     109.116 129.218 135.742  0.00  0.00    +0.000 A 
ATOM     15  C   UNL     1     109.079 129.696 136.413  0.00  0.00    +0.000 A 
ATOM     16  C   UNL     1     109.406 129.524 135.032  0.00  0.00    +0.000 A 
ATOM     17  C   UNL     1     109.332 130.480 136.375  0.00  0.00    +0.000 A 
ATOM     18  C   UNL     1     109.659 130.308 134.994  0.00  0.00    +0.000 A 
ATOM     19  C   UNL     1     109.622 130.787 135.666  0.00  0.00    +0.000 A 
ENDBRANCH  11  14
ENDBRANCH   9  11
ENDBRANCH   5   8
BRANCH   2  20
ATOM     20  O   UNL     1     110.957 125.207 137.101  0.00  0.00    +0.000 OA
BRANCH  20  29
ATOM     21  O   UNL     1     111.941 126.227 137.272  0.00  0.00    +0.000 OA
ATOM     22  O   UNL     1     112.707 127.186 139.078  0.00  0.00    +0.000 OA
ATOM     23  O   UNL     1     111.613 126.133 139.723  0.00  0.00    +0.000 OA
ATOM     24  O   UNL     1     110.738 125.144 138.735  0.00  0.00    +0.000 OA
ATOM     25  C   UNL     1     112.270 126.691 138.583  0.00  0.00    +0.000 C 
ATOM     26  C   UNL     1     111.722 126.165 138.906  0.00  0.00    +0.000 C 
ATOM     27  C   UNL     1     112.379 126.723 137.766  0.00  0.00    +0.000 C 
ATOM     28  C   UNL     1     111.285 125.670 138.412  0.00  0.00    +0.000 C 
ATOM     29  C   UNL     1     111.395 125.702 137.595  0.00  0.00    +0.000 C 
BRANCH  27  31
ATOM     30  O   UNL     1     113.478 126.984 136.890  0.00  0.00    +0.000 OA
ATOM     31  C   UNL     1     112.926 127.248 137.443  0.00  0.00    +0.000 C 
ENDBRANCH  27  31
ENDBRANCH  20  29
ENDBRANCH   2  20
TORSDOF 6
ENDMDL
MODEL 2
REMARK VINA RESULT:      -8.6      3.104      5.662
REMARK  Name = 42607524
REMARK  6 active torsions:
REMARK  status: ('A' for Active; 'I' for Inactive)
REMARK    1  A    between atoms: O_4  and  C_15
REMARK    2  A    between atoms: O_4  and  C_17
REMARK    3  A    between atoms: C_13  and  C_16
REMARK    4  A    between atoms: C_20  and  C_23
REMARK    5  A    between atoms: C_24  and  C_25
REMARK    6  A    between atoms: C_25  and  C_26
REMARK                            x       y       z     vdW  Elec       q    Type
REMARK                         _______ _______ _______ _____ _____    ______ ____
ROOT
ATOM      1  O   UNL     1     114.738 131.106 135.685  0.00  0.00    +0.000 OA
ATOM      2  C   UNL     1     113.689 130.253 136.148  0.00  0.00    +0.000 A 
ATOM      3  C   UNL     1     113.343 129.505 136.190  0.00  0.00    +0.000 A 
ATOM      4  C   UNL     1     114.392 130.358 135.727  0.00  0.00    +0.000 A 
ATOM      5  C   UNL     1     113.697 128.864 135.812  0.00  0.00    +0.000 A 
ATOM      6  C   UNL     1     114.746 129.717 135.349  0.00  0.00    +0.000 A 
ATOM      7  C   UNL     1     114.399 128.970 135.392  0.00  0.00    +0.000 A 
ENDROOT
BRANCH   5   8
ATOM      8  C   UNL     1     113.351 128.117 135.854  0.00  0.00    +0.000 C 
ATOM      9  C   UNL     1     113.641 127.557 136.386  0.00  0.00    +0.000 C 
BRANCH   9  11
ATOM     10  O   UNL     1     112.524 126.697 136.156  0.00  0.00    +0.000 OA
ATOM     11  C   UNL     1     113.294 126.809 136.429  0.00  0.00    +0.000 C 
BRANCH  11  14
ATOM     12  O   UNL     1     113.132 126.420 138.024  0.00  0.00    +0.000 OA
ATOM     13  O   UNL     1     114.987 124.273 137.689  0.00  0.00    +0.000 OA
ATOM     14  C   UNL     1     113.717 126.175 136.744  0.00  0.00    +0.000 A 
ATOM     15  C   UNL     1     113.636 125.981 137.541  0.00  0.00    +0.000 A 
ATOM     16  C   UNL     1     114.222 125.736 136.261  0.00  0.00    +0.000 A 
ATOM     17  C   UNL     1     114.059 125.347 137.856  0.00  0.00    +0.000 A 
ATOM     18  C   UNL     1     114.645 125.102 136.576  0.00  0.00    +0.000 A 
ATOM     19  C   UNL     1     114.564 124.907 137.374  0.00  0.00    +0.000 A 
ENDBRANCH  11  14
ENDBRANCH   9  11
ENDBRANCH   5   8
BRANCH   2  20
ATOM     20  O   UNL     1     113.334 130.894 136.527  0.00  0.00    +0.000 OA
BRANCH  20  29
ATOM     21  O   UNL     1     113.661 130.585 137.882  0.00  0.00    +0.000 OA
ATOM     22  O   UNL     1     112.449 130.657 139.696  0.00  0.00    +0.000 OA
ATOM     23  O   UNL     1     111.353 131.159 138.569  0.00  0.00    +0.000 OA
ATOM     24  O   UNL     1     111.796 131.277 136.985  0.00  0.00    +0.000 OA
ATOM     25  C   UNL     1     112.671 130.716 138.904  0.00  0.00    +0.000 C 
ATOM     26  C   UNL     1     112.122 130.967 138.340  0.00  0.00    +0.000 C 
ATOM     27  C   UNL     1     113.440 130.525 138.675  0.00  0.00    +0.000 C 
ATOM     28  C   UNL     1     112.344 131.026 137.548  0.00  0.00    +0.000 C 
ATOM     29  C   UNL     1     113.113 130.835 137.319  0.00  0.00    +0.000 C 
BRANCH  27  31
ATOM     30  O   UNL     1     114.732 130.627 139.276  0.00  0.00    +0.000 OA
ATOM     31  C   UNL     1     113.987 130.275 139.238  0.00  0.00    +0.000 C 
ENDBRANCH  27  31
ENDBRANCH  20  29
ENDBRANCH   2  20
TORSDOF 6
ENDMDL
MODEL 3
REMARK VINA RESULT:      -8.5     10.587     12.559
REMARK  Name = 42607524
REMARK  6 active torsions:
REMARK  status: ('A' for Active; 'I' for Inactive)
REMARK    1  A    between atoms: O_4  and  C_15
REMARK    2  A    between atoms: O_4  and  C_17
REMARK    3  A    between atoms: C_13  and  C_16
REMARK    4  A    between atoms: C_20  and  C_23
REMARK    5  A    between atoms: C_24  and  C_25
REMARK    6  A    between atoms: C_25  and  C_26
REMARK                            x       y       z     vdW  Elec       q    Type
REMARK                         _______ _______ _______ _____ _____    ______ ____
ROOT
ATOM      1  O   UNL     1     108.460 125.197 147.422  0.00  0.00    +0.000 OA
ATOM      2  C   UNL     1     107.183 125.836 147.469  0.00  0.00    +0.000 A 
ATOM      3  C   UNL     1     106.438 125.919 147.813  0.00  0.00    +0.000 A 
ATOM      4  C   UNL     1     107.715 125.279 147.767  0.00  0.00    +0.000 A 
ATOM      5  C   UNL     1     106.225 125.446 148.455  0.00  0.00    +0.000 A 
ATOM      6  C   UNL     1     107.502 124.807 148.409  0.00  0.00    +0.000 A 
ATOM      7  C   UNL     1     106.757 124.890 148.752  0.00  0.00    +0.000 A 
ENDROOT
BRANCH   5   8
ATOM      8  C   UNL     1     105.481 125.529 148.799  0.00  0.00    +0.000 C 
ATOM      9  C   UNL     1     104.851 125.065 148.537  0.00  0.00    +0.000 C 
BRANCH   9  11
ATOM     10  O   UNL     1     104.021 125.573 149.583  0.00  0.00    +0.000 OA
ATOM     11  C   UNL     1     104.105 125.148 148.881  0.00  0.00    +0.000 C 
BRANCH  11  14
ATOM     12  O   UNL     1     103.328 123.890 149.612  0.00  0.00    +0.000 OA
ATOM     13  O   UNL     1     101.465 123.783 147.448  0.00  0.00    +0.000 OA
ATOM     14  C   UNL     1     103.445 124.807 148.523  0.00  0.00    +0.000 A 
ATOM     15  C   UNL     1     103.057 124.178 148.888  0.00  0.00    +0.000 A 
ATOM     16  C   UNL     1     103.174 125.095 147.799  0.00  0.00    +0.000 A 
ATOM     17  C   UNL     1     102.397 123.837 148.530  0.00  0.00    +0.000 A 
ATOM     18  C   UNL     1     102.514 124.754 147.440  0.00  0.00    +0.000 A 
ATOM     19  C   UNL     1     102.125 124.124 147.806  0.00  0.00    +0.000 A 
ENDBRANCH  11  14
ENDBRANCH   9  11
ENDBRANCH   5   8
BRANCH   2  20
ATOM     20  O   UNL     1     107.396 126.308 146.827  0.00  0.00    +0.000 OA
BRANCH  20  29
ATOM     21  O   UNL     1     106.671 125.675 145.772  0.00  0.00    +0.000 OA
ATOM     22  O   UNL     1     105.412 126.513 144.199  0.00  0.00    +0.000 OA
ATOM     23  O   UNL     1     105.870 127.884 144.996  0.00  0.00    +0.000 OA
ATOM     24  O   UNL     1     106.862 127.781 146.309  0.00  0.00    +0.000 OA
ATOM     25  C   UNL     1     105.908 126.462 144.856  0.00  0.00    +0.000 C 
ATOM     26  C   UNL     1     106.137 127.148 145.254  0.00  0.00    +0.000 C 
ATOM     27  C   UNL     1     106.175 125.725 145.115  0.00  0.00    +0.000 C 
ATOM     28  C   UNL     1     106.633 127.096 145.911  0.00  0.00    +0.000 C 
ATOM     29  C   UNL     1     106.900 126.359 146.170  0.00  0.00    +0.000 C 
BRANCH  27  31
ATOM     30  O   UNL     1     106.219 124.304 144.970  0.00  0.00    +0.000 OA
ATOM     31  C   UNL     1     105.946 125.041 144.717  0.00  0.00    +0.000 C 
ENDBRANCH  27  31
ENDBRANCH  20  29
ENDBRANCH   2  20
TORSDOF 6
ENDMDL
MODEL 4
REMARK VINA RESULT:      -8.5      3.288      3.897
REMARK  Name = 42607524
REMARK  6 active torsions:
REMARK  status: ('A' for Active; 'I' for Inactive)
REMARK    1  A    between atoms: O_4  and  C_15
REMARK    2  A    between atoms: O_4  and  C_17
REMARK    3  A    between atoms: C_13  and  C_16
REMARK    4  A    between atoms: C_20  and  C_23
REMARK    5  A    between atoms: C_24  and  C_25
REMARK    6  A    between atoms: C_25  and  C_26
REMARK                            x       y       z     vdW  Elec       q    Type
REMARK                         _______ _______ _______ _____ _____    ______ ____
ROOT
ATOM      1  O   UNL     1     114.454 124.693 137.617  0.00  0.00    +0.000 OA
ATOM      2  C   UNL     1     113.523 125.774 137.539  0.00  0.00    +0.000 A 
ATOM      3  C   UNL     1     113.256 126.461 137.169  0.00  0.00    +0.000 A 
ATOM      4  C   UNL     1     114.187 125.380 137.247  0.00  0.00    +0.000 A 
ATOM      5  C   UNL     1     113.652 126.755 136.508  0.00  0.00    +0.000 A 
ATOM      6  C   UNL     1     114.583 125.674 136.585  0.00  0.00    +0.000 A 
ATOM      7  C   UNL     1     114.315 126.361 136.216  0.00  0.00    +0.000 A 
ENDROOT
BRANCH   5   8
ATOM      8  C   UNL     1     113.385 127.442 136.139  0.00  0.00    +0.000 C 
ATOM      9  C   UNL     1     113.856 128.119 136.137  0.00  0.00    +0.000 C 
BRANCH   9  11
ATOM     10  O   UNL     1     112.791 128.886 135.571  0.00  0.00    +0.000 OA
ATOM     11  C   UNL     1     113.589 128.808 135.768  0.00  0.00    +0.000 C 
BRANCH  11  14
ATOM     12  O   UNL     1     113.742 130.086 136.799  0.00  0.00    +0.000 OA
ATOM     13  O   UNL     1     115.708 131.240 135.076  0.00  0.00    +0.000 OA
ATOM     14  C   UNL     1     114.118 129.416 135.595  0.00  0.00    +0.000 A 
ATOM     15  C   UNL     1     114.195 130.054 136.110  0.00  0.00    +0.000 A 
ATOM     16  C   UNL     1     114.571 129.384 134.906  0.00  0.00    +0.000 A 
ATOM     17  C   UNL     1     114.725 130.663 135.937  0.00  0.00    +0.000 A 
ATOM     18  C   UNL     1     115.101 129.992 134.733  0.00  0.00    +0.000 A 
ATOM     19  C   UNL     1     115.178 130.632 135.249  0.00  0.00    +0.000 A 
ENDBRANCH  11  14
ENDBRANCH   9  11
ENDBRANCH   5   8
BRANCH   2  20
ATOM     20  O   UNL     1     113.126 125.480 138.200  0.00  0.00    +0.000 OA
BRANCH  20  29
ATOM     21  O   UNL     1     113.585 126.376 139.214  0.00  0.00    +0.000 OA
ATOM     22  O   UNL     1     112.495 127.464 140.760  0.00  0.00    +0.000 OA
ATOM     23  O   UNL     1     111.261 126.663 140.013  0.00  0.00    +0.000 OA
ATOM     24  O   UNL     1     111.577 125.672 138.733  0.00  0.00    +0.000 OA
ATOM     25  C   UNL     1     112.653 126.968 140.120  0.00  0.00    +0.000 C 
ATOM     26  C   UNL     1     112.036 126.567 139.747  0.00  0.00    +0.000 C 
ATOM     27  C   UNL     1     113.428 126.872 139.854  0.00  0.00    +0.000 C 
ATOM     28  C   UNL     1     112.194 126.072 139.107  0.00  0.00    +0.000 C 
ATOM     29  C   UNL     1     112.969 125.976 138.840  0.00  0.00    +0.000 C 
BRANCH  27  31
ATOM     30  O   UNL     1     114.700 126.855 140.506  0.00  0.00    +0.000 OA
ATOM     31  C   UNL     1     114.045 127.272 140.227  0.00  0.00    +0.000 C 
ENDBRANCH  27  31
ENDBRANCH  20  29
ENDBRANCH   2  20
TORSDOF 6
ENDMDL
MODEL 5
REMARK VINA RESULT:      -8.4      1.877      4.539
REMARK  Name = 42607524
REMARK  6 active torsions:
REMARK  status: ('A' for Active; 'I' for Inactive)
REMARK    1  A    between atoms: O_4  and  C_15
REMARK    2  A    between atoms: O_4  and  C_17
REMARK    3  A    between atoms: C_13  and  C_16
REMARK    4  A    between atoms: C_20  and  C_23
REMARK    5  A    between atoms: C_24  and  C_25
REMARK    6  A    between atoms: C_25  and  C_26
REMARK                            x       y       z     vdW  Elec       q    Type
REMARK                         _______ _______ _______ _____ _____    ______ ____
ROOT
ATOM      1  O   UNL     1     109.212 127.794 134.911  0.00  0.00    +0.000 OA
ATOM      2  C   UNL     1     109.726 127.337 136.164  0.00  0.00    +0.000 A 
ATOM      3  C   UNL     1     110.107 126.757 136.610  0.00  0.00    +0.000 A 
ATOM      4  C   UNL     1     109.593 127.215 135.358  0.00  0.00    +0.000 A 
ATOM      5  C   UNL     1     110.355 126.056 136.252  0.00  0.00    +0.000 A 
ATOM      6  C   UNL     1     109.842 126.514 135.000  0.00  0.00    +0.000 A 
ATOM      7  C   UNL     1     110.223 125.935 135.448  0.00  0.00    +0.000 A 
ENDROOT
BRANCH   5   8
ATOM      8  C   UNL     1     110.736 125.478 136.699  0.00  0.00    +0.000 C 
ATOM      9  C   UNL     1     111.559 125.423 136.688  0.00  0.00    +0.000 C 
BRANCH   9  11
ATOM     10  O   UNL     1     111.504 124.235 137.479  0.00  0.00    +0.000 OA
ATOM     11  C   UNL     1     111.941 124.844 137.135  0.00  0.00    +0.000 C 
BRANCH  11  14
ATOM     12  O   UNL     1     112.909 123.744 136.377  0.00  0.00    +0.000 OA
ATOM     13  O   UNL     1     115.213 124.964 137.547  0.00  0.00    +0.000 OA
ATOM     14  C   UNL     1     112.759 124.874 137.238  0.00  0.00    +0.000 A 
ATOM     15  C   UNL     1     113.242 124.324 136.859  0.00  0.00    +0.000 A 
ATOM     16  C   UNL     1     113.092 125.454 137.721  0.00  0.00    +0.000 A 
ATOM     17  C   UNL     1     114.060 124.354 136.962  0.00  0.00    +0.000 A 
ATOM     18  C   UNL     1     113.910 125.484 137.824  0.00  0.00    +0.000 A 
ATOM     19  C   UNL     1     114.395 124.934 137.444  0.00  0.00    +0.000 A 
ENDBRANCH  11  14
ENDBRANCH   9  11
ENDBRANCH   5   8
BRANCH   2  20
ATOM     20  O   UNL     1     109.478 128.037 136.522  0.00  0.00    +0.000 OA
BRANCH  20  29
ATOM     21  O   UNL     1     110.726 128.731 136.562  0.00  0.00    +0.000 OA
ATOM     22  O   UNL     1     111.649 129.921 138.142  0.00  0.00    +0.000 OA
ATOM     23  O   UNL     1     110.238 129.475 138.871  0.00  0.00    +0.000 OA
ATOM     24  O   UNL     1     109.153 128.533 138.061  0.00  0.00    +0.000 OA
ATOM     25  C   UNL     1     111.107 129.450 137.736  0.00  0.00    +0.000 C 
ATOM     26  C   UNL     1     110.400 129.227 138.101  0.00  0.00    +0.000 C 
ATOM     27  C   UNL     1     111.269 129.202 136.967  0.00  0.00    +0.000 C 
ATOM     28  C   UNL     1     109.858 128.756 137.696  0.00  0.00    +0.000 C 
ATOM     29  C   UNL     1     110.021 128.508 136.926  0.00  0.00    +0.000 C 
BRANCH  27  31
ATOM     30  O   UNL     1     111.965 129.729 135.835  0.00  0.00    +0.000 OA
ATOM     31  C   UNL     1     111.974 129.424 136.602  0.00  0.00    +0.000 C 
ENDBRANCH  27  31
ENDBRANCH  20  29
ENDBRANCH   2  20
TORSDOF 6
ENDMDL
MODEL 6
REMARK VINA RESULT:      -8.4      3.107      5.410
REMARK  Name = 42607524
REMARK  6 active torsions:
REMARK  status: ('A' for Active; 'I' for Inactive)
REMARK    1  A    between atoms: O_4  and  C_15
REMARK    2  A    between atoms: O_4  and  C_17
REMARK    3  A    between atoms: C_13  and  C_16
REMARK    4  A    between atoms: C_20  and  C_23
REMARK    5  A    between atoms: C_24  and  C_25
REMARK    6  A    between atoms: C_25  and  C_26
REMARK                            x       y       z     vdW  Elec       q    Type
REMARK                         _______ _______ _______ _____ _____    ______ ____
ROOT
ATOM      1  O   UNL     1     108.585 130.838 134.883  0.00  0.00    +0.000 OA
ATOM      2  C   UNL     1     109.466 130.484 135.951  0.00  0.00    +0.000 A 
ATOM      3  C   UNL     1     110.154 130.116 136.217  0.00  0.00    +0.000 A 
ATOM      4  C   UNL     1     109.274 130.469 135.148  0.00  0.00    +0.000 A 
ATOM      5  C   UNL     1     110.651 129.733 135.681  0.00  0.00    +0.000 A 
ATOM      6  C   UNL     1     109.771 130.086 134.613  0.00  0.00    +0.000 A 
ATOM      7  C   UNL     1     110.459 129.718 134.880  0.00  0.00    +0.000 A 
ENDROOT
BRANCH   5   8
ATOM      8  C   UNL     1     111.339 129.365 135.947  0.00  0.00    +0.000 C 
ATOM      9  C   UNL     1     112.068 129.743 135.864  0.00  0.00    +0.000 C 
BRANCH   9  11
ATOM     10  O   UNL     1     112.709 128.676 136.566  0.00  0.00    +0.000 OA
ATOM     11  C   UNL     1     112.757 129.375 136.131  0.00  0.00    +0.000 C 
BRANCH  11  14
ATOM     12  O   UNL     1     113.544 130.265 137.276  0.00  0.00    +0.000 OA
ATOM     13  O   UNL     1     115.703 130.699 135.454  0.00  0.00    +0.000 OA
ATOM     14  C   UNL     1     113.494 129.706 135.962  0.00  0.00    +0.000 A 
ATOM     15  C   UNL     1     113.887 130.151 136.534  0.00  0.00    +0.000 A 
ATOM     16  C   UNL     1     113.836 129.592 135.219  0.00  0.00    +0.000 A 
ATOM     17  C   UNL     1     114.623 130.482 136.365  0.00  0.00    +0.000 A 
ATOM     18  C   UNL     1     114.572 129.923 135.050  0.00  0.00    +0.000 A 
ATOM     19  C   UNL     1     114.967 130.368 135.623  0.00  0.00    +0.000 A 
ENDBRANCH  11  14
ENDBRANCH   9  11
ENDBRANCH   5   8
BRANCH   2  20
ATOM     20  O   UNL     1     108.969 130.867 136.487  0.00  0.00    +0.000 OA
BRANCH  20  29
ATOM     21  O   UNL     1     109.744 132.041 136.734  0.00  0.00    +0.000 OA
ATOM     22  O   UNL     1     110.210 133.081 138.595  0.00  0.00    +0.000 OA
ATOM     23  O   UNL     1     109.280 131.839 139.156  0.00  0.00    +0.000 OA
ATOM     24  O   UNL     1     108.660 130.732 138.103  0.00  0.00    +0.000 OA
ATOM     25  C   UNL     1     109.900 132.528 138.068  0.00  0.00    +0.000 C 
ATOM     26  C   UNL     1     109.435 131.906 138.349  0.00  0.00    +0.000 C 
ATOM     27  C   UNL     1     110.055 132.595 137.260  0.00  0.00    +0.000 C 
ATOM     28  C   UNL     1     109.125 131.353 137.821  0.00  0.00    +0.000 C 
ATOM     29  C   UNL     1     109.279 131.420 137.014  0.00  0.00    +0.000 C 
BRANCH  27  31
ATOM     30  O   UNL     1     110.338 133.575 136.259  0.00  0.00    +0.000 OA
ATOM     31  C   UNL     1     110.519 133.216 136.980  0.00  0.00    +0.000 C 
ENDBRANCH  27  31
ENDBRANCH  20  29
ENDBRANCH   2  20
TORSDOF 6
ENDMDL
MODEL 7
REMARK VINA RESULT:      -8.4      2.821      4.115
REMARK  Name = 42607524
REMARK  6 active torsions:
REMARK  status: ('A' for Active; 'I' for Inactive)
REMARK    1  A    between atoms: O_4  and  C_15
REMARK    2  A    between atoms: O_4  and  C_17
REMARK    3  A    between atoms: C_13  and  C_16
REMARK    4  A    between atoms: C_20  and  C_23
REMARK    5  A    between atoms: C_24  and  C_25
REMARK    6  A    between atoms: C_25  and  C_26
REMARK                            x       y       z     vdW  Elec       q    Type
REMARK                         _______ _______ _______ _____ _____    ______ ____
ROOT
ATOM      1  O   UNL     1     113.040 126.460 140.057  0.00  0.00    +0.000 OA
ATOM      2  C   UNL     1     112.571 126.728 138.734  0.00  0.00    +0.000 A 
ATOM      3  C   UNL     1     112.459 127.255 138.109  0.00  0.00    +0.000 A 
ATOM      4  C   UNL     1     112.928 126.987 139.432  0.00  0.00    +0.000 A 
ATOM      5  C   UNL     1     112.704 128.039 138.181  0.00  0.00    +0.000 A 
ATOM      6  C   UNL     1     113.172 127.771 139.504  0.00  0.00    +0.000 A 
ATOM      7  C   UNL     1     113.059 128.297 138.879  0.00  0.00    +0.000 A 
ENDROOT
BRANCH   5   8
ATOM      8  C   UNL     1     112.591 128.565 137.556  0.00  0.00    +0.000 C 
ATOM      9  C   UNL     1     113.242 128.865 137.148  0.00  0.00    +0.000 C 
BRANCH   9  11
ATOM     10  O   UNL     1     112.381 129.703 136.375  0.00  0.00    +0.000 OA
ATOM     11  C   UNL     1     113.130 129.392 136.522  0.00  0.00    +0.000 C 
BRANCH  11  14
ATOM     12  O   UNL     1     113.800 130.893 136.667  0.00  0.00    +0.000 OA
ATOM     13  O   UNL     1     115.680 130.252 134.612  0.00  0.00    +0.000 OA
ATOM     14  C   UNL     1     113.768 129.607 136.045  0.00  0.00    +0.000 A 
ATOM     15  C   UNL     1     114.102 130.357 136.117  0.00  0.00    +0.000 A 
ATOM     16  C   UNL     1     114.070 129.071 135.495  0.00  0.00    +0.000 A 
ATOM     17  C   UNL     1     114.740 130.572 135.640  0.00  0.00    +0.000 A 
ATOM     18  C   UNL     1     114.707 129.286 135.017  0.00  0.00    +0.000 A 
ATOM     19  C   UNL     1     115.043 130.037 135.090  0.00  0.00    +0.000 A 
ENDBRANCH  11  14
ENDBRANCH   9  11
ENDBRANCH   5   8
BRANCH   2  20
ATOM     20  O   UNL     1     112.327 125.943 138.661  0.00  0.00    +0.000 OA
BRANCH  20  29
ATOM     21  O   UNL     1     113.419 125.456 137.881  0.00  0.00    +0.000 OA
ATOM     22  O   UNL     1     113.463 124.085 136.183  0.00  0.00    +0.000 OA
ATOM     23  O   UNL     1     111.845 124.131 136.505  0.00  0.00    +0.000 OA
ATOM     24  O   UNL     1     111.278 125.060 137.744  0.00  0.00    +0.000 OA
ATOM     25  C   UNL     1     113.179 124.550 136.802  0.00  0.00    +0.000 C 
ATOM     26  C   UNL     1     112.370 124.573 136.964  0.00  0.00    +0.000 C 
ATOM     27  C   UNL     1     113.704 124.991 137.261  0.00  0.00    +0.000 C 
ATOM     28  C   UNL     1     112.087 125.037 137.583  0.00  0.00    +0.000 C 
ATOM     29  C   UNL     1     112.611 125.479 138.042  0.00  0.00    +0.000 C 
BRANCH  27  31
ATOM     30  O   UNL     1     115.055 124.895 137.717  0.00  0.00    +0.000 OA
ATOM     31  C   UNL     1     114.512 124.968 137.100  0.00  0.00    +0.000 C 
ENDBRANCH  27  31
ENDBRANCH  20  29
ENDBRANCH   2  20
TORSDOF 6
ENDMDL
MODEL 8
REMARK VINA RESULT:      -8.3      2.225      4.745
REMARK  Name = 42607524
REMARK  6 active torsions:
REMARK  status: ('A' for Active; 'I' for Inactive)
REMARK    1  A    between atoms: O_4  and  C_15
REMARK    2  A    between atoms: O_4  and  C_17
REMARK    3  A    between atoms: C_13  and  C_16
REMARK    4  A    between atoms: C_20  and  C_23
REMARK    5  A    between atoms: C_24  and  C_25
REMARK    6  A    between atoms: C_25  and  C_26
REMARK                            x       y       z     vdW  Elec       q    Type
REMARK                         _______ _______ _______ _____ _____    ______ ____
ROOT
ATOM      1  O   UNL     1     114.208 124.788 135.966  0.00  0.00    +0.000 OA
ATOM      2  C   UNL     1     113.190 125.256 136.853  0.00  0.00    +0.000 A 
ATOM      3  C   UNL     1     112.966 125.555 137.589  0.00  0.00    +0.000 A 
ATOM      4  C   UNL     1     113.984 125.087 136.701  0.00  0.00    +0.000 A 
ATOM      5  C   UNL     1     113.535 125.686 138.172  0.00  0.00    +0.000 A 
ATOM      6  C   UNL     1     114.553 125.218 137.284  0.00  0.00    +0.000 A 
ATOM      7  C   UNL     1     114.328 125.518 138.019  0.00  0.00    +0.000 A 
ENDROOT
BRANCH   5   8
ATOM      8  C   UNL     1     113.311 125.986 138.906  0.00  0.00    +0.000 C 
ATOM      9  C   UNL     1     113.603 126.713 139.162  0.00  0.00    +0.000 C 
BRANCH   9  11
ATOM     10  O   UNL     1     112.971 126.534 140.431  0.00  0.00    +0.000 OA
ATOM     11  C   UNL     1     113.379 127.013 139.898  0.00  0.00    +0.000 C 
BRANCH  11  14
ATOM     12  O   UNL     1     114.612 127.326 140.949  0.00  0.00    +0.000 OA
ATOM     13  O   UNL     1     114.111 130.129 140.703  0.00  0.00    +0.000 OA
ATOM     14  C   UNL     1     113.562 127.792 140.099  0.00  0.00    +0.000 A 
ATOM     15  C   UNL     1     114.178 127.948 140.624  0.00  0.00    +0.000 A 
ATOM     16  C   UNL     1     113.128 128.415 139.774  0.00  0.00    +0.000 A 
ATOM     17  C   UNL     1     114.361 128.727 140.826  0.00  0.00    +0.000 A 
ATOM     18  C   UNL     1     113.311 129.193 139.976  0.00  0.00    +0.000 A 
ATOM     19  C   UNL     1     113.928 129.350 140.502  0.00  0.00    +0.000 A 
ENDBRANCH  11  14
ENDBRANCH   9  11
ENDBRANCH   5   8
BRANCH   2  20
ATOM     20  O   UNL     1     112.621 125.125 136.270  0.00  0.00    +0.000 OA
BRANCH  20  29
ATOM     21  O   UNL     1     112.289 126.492 136.023  0.00  0.00    +0.000 OA
ATOM     22  O   UNL     1     110.368 127.444 135.613  0.00  0.00    +0.000 OA
ATOM     23  O   UNL     1     109.907 125.868 135.778  0.00  0.00    +0.000 OA
ATOM     24  O   UNL     1     111.033 124.709 136.106  0.00  0.00    +0.000 OA
ATOM     25  C   UNL     1     110.932 126.864 135.777  0.00  0.00    +0.000 C 
ATOM     26  C   UNL     1     110.701 126.076 135.860  0.00  0.00    +0.000 C 
ATOM     27  C   UNL     1     111.726 127.072 135.859  0.00  0.00    +0.000 C 
ATOM     28  C   UNL     1     111.264 125.497 136.024  0.00  0.00    +0.000 C 
ATOM     29  C   UNL     1     112.059 125.704 136.106  0.00  0.00    +0.000 C 
BRANCH  27  31
ATOM     30  O   UNL     1     112.649 128.047 135.369  0.00  0.00    +0.000 OA
ATOM     31  C   UNL     1     111.957 127.859 135.776  0.00  0.00    +0.000 C 
ENDBRANCH  27  31
ENDBRANCH  20  29
ENDBRANCH   2  20
TORSDOF 6
ENDMDL
MODEL 9
REMARK VINA RESULT:      -8.3      2.120      5.421
REMARK  Name = 42607524
REMARK  6 active torsions:
REMARK  status: ('A' for Active; 'I' for Inactive)
REMARK    1  A    between atoms: O_4  and  C_15
REMARK    2  A    between atoms: O_4  and  C_17
REMARK    3  A    between atoms: C_13  and  C_16
REMARK    4  A    between atoms: C_20  and  C_23
REMARK    5  A    between atoms: C_24  and  C_25
REMARK    6  A    between atoms: C_25  and  C_26
REMARK                            x       y       z     vdW  Elec       q    Type
REMARK                         _______ _______ _______ _____ _____    ______ ____
ROOT
ATOM      1  O   UNL     1     113.756 129.709 134.612  0.00  0.00    +0.000 OA
ATOM      2  C   UNL     1     112.885 128.932 135.437  0.00  0.00    +0.000 A 
ATOM      3  C   UNL     1     112.777 128.357 136.018  0.00  0.00    +0.000 A 
ATOM      4  C   UNL     1     113.648 129.133 135.193  0.00  0.00    +0.000 A 
ATOM      5  C   UNL     1     113.430 127.982 136.355  0.00  0.00    +0.000 A 
ATOM      6  C   UNL     1     114.301 128.759 135.530  0.00  0.00    +0.000 A 
ATOM      7  C   UNL     1     114.192 128.183 136.111  0.00  0.00    +0.000 A 
ENDROOT
BRANCH   5   8
ATOM      8  C   UNL     1     113.321 127.407 136.935  0.00  0.00    +0.000 C 
ATOM      9  C   UNL     1     113.286 126.610 136.725  0.00  0.00    +0.000 C 
BRANCH   9  11
ATOM     10  O   UNL     1     113.372 126.198 138.090  0.00  0.00    +0.000 OA
ATOM     11  C   UNL     1     113.177 126.034 137.306  0.00  0.00    +0.000 C 
BRANCH  11  14
ATOM     12  O   UNL     1     114.188 124.739 137.157  0.00  0.00    +0.000 OA
ATOM     13  O   UNL     1     111.960 123.077 136.491  0.00  0.00    +0.000 OA
ATOM     14  C   UNL     1     112.873 125.295 137.102  0.00  0.00    +0.000 A 
ATOM     15  C   UNL     1     113.378 124.648 137.028  0.00  0.00    +0.000 A 
ATOM     16  C   UNL     1     112.063 125.204 136.973  0.00  0.00    +0.000 A 
ATOM     17  C   UNL     1     113.074 123.908 136.824  0.00  0.00    +0.000 A 
ATOM     18  C   UNL     1     111.759 124.464 136.769  0.00  0.00    +0.000 A 
ATOM     19  C   UNL     1     112.264 123.816 136.694  0.00  0.00    +0.000 A 
ENDBRANCH  11  14
ENDBRANCH   9  11
ENDBRANCH   5   8
BRANCH   2  20
ATOM     20  O   UNL     1     112.232 129.307 135.100  0.00  0.00    +0.000 OA
BRANCH  20  29
ATOM     21  O   UNL     1     111.887 130.187 136.171  0.00  0.00    +0.000 OA
ATOM     22  O   UNL     1     109.948 130.696 137.034  0.00  0.00    +0.000 OA
ATOM     23  O   UNL     1     109.496 129.630 135.859  0.00  0.00    +0.000 OA
ATOM     24  O   UNL     1     110.638 128.936 134.892  0.00  0.00    +0.000 OA
ATOM     25  C   UNL     1     110.519 130.349 136.551  0.00  0.00    +0.000 C 
ATOM     26  C   UNL     1     110.293 129.816 135.963  0.00  0.00    +0.000 C 
ATOM     27  C   UNL     1     111.316 130.535 136.655  0.00  0.00    +0.000 C 
ATOM     28  C   UNL     1     110.864 129.469 135.479  0.00  0.00    +0.000 C 
ATOM     29  C   UNL     1     111.661 129.654 135.583  0.00  0.00    +0.000 C 
BRANCH  27  31
ATOM     30  O   UNL     1     112.099 131.654 137.076  0.00  0.00    +0.000 OA
ATOM     31  C   UNL     1     111.542 131.068 137.242  0.00  0.00    +0.000 C 
ENDBRANCH  27  31
ENDBRANCH  20  29
ENDBRANCH   2  20
TORSDOF 6
ENDMDL
MODEL 10
REMARK VINA RESULT:      -8.2      2.126      3.700
REMARK  Name = 42607524
REMARK  6 active torsions:
REMARK  status: ('A' for Active; 'I' for Inactive)
REMARK    1  A    between atoms: O_4  and  C_15
REMARK    2  A    between atoms: O_4  and  C_17
REMARK    3  A    between atoms: C_13  and  C_16
REMARK    4  A    between atoms: C_20  and  C_23
REMARK    5  A    between atoms: C_24  and  C_25
REMARK    6  A    between atoms: C_25  and  C_26
REMARK                            x       y       z     vdW  Elec       q    Type
REMARK                         _______ _______ _______ _____ _____    ______ ____
ROOT
ATOM      1  O   UNL     1     113.108 123.639 137.196  0.00  0.00    +0.000 OA
ATOM      2  C   UNL     1     112.825 124.882 136.550  0.00  0.00    +0.000 A 
ATOM      3  C   UNL     1     113.070 125.630 136.302  0.00  0.00    +0.000 A 
ATOM      4  C   UNL     1     113.352 124.387 136.949  0.00  0.00    +0.000 A 
ATOM      5  C   UNL     1     113.840 125.884 136.453  0.00  0.00    +0.000 A 
ATOM      6  C   UNL     1     114.123 124.641 137.100  0.00  0.00    +0.000 A 
ATOM      7  C   UNL     1     114.366 125.390 136.852  0.00  0.00    +0.000 A 
ENDROOT
BRANCH   5   8
ATOM      8  C   UNL     1     114.084 126.631 136.206  0.00  0.00    +0.000 C 
ATOM      9  C   UNL     1     113.640 127.297 136.407  0.00  0.00    +0.000 C 
BRANCH   9  11
ATOM     10  O   UNL     1     114.561 128.126 135.696  0.00  0.00    +0.000 OA
ATOM     11  C   UNL     1     113.883 128.046 136.159  0.00  0.00    +0.000 C 
BRANCH  11  14
ATOM     12  O   UNL     1     113.095 128.924 135.005  0.00  0.00    +0.000 OA
ATOM     13  O   UNL     1     112.144 130.716 137.019  0.00  0.00    +0.000 OA
ATOM     14  C   UNL     1     113.448 128.713 136.374  0.00  0.00    +0.000 A 
ATOM     15  C   UNL     1     113.055 129.152 135.797  0.00  0.00    +0.000 A 
ATOM     16  C   UNL     1     113.408 128.941 137.166  0.00  0.00    +0.000 A 
ATOM     17  C   UNL     1     112.620 129.819 136.013  0.00  0.00    +0.000 A 
ATOM     18  C   UNL     1     112.974 129.609 137.381  0.00  0.00    +0.000 A 
ATOM     19  C   UNL     1     112.579 130.048 136.804  0.00  0.00    +0.000 A 
ENDBRANCH  11  14
ENDBRANCH   9  11
ENDBRANCH   5   8
BRANCH   2  20
ATOM     20  O   UNL     1     112.055 124.628 136.399  0.00  0.00    +0.000 OA
BRANCH  20  29
ATOM     21  O   UNL     1     111.338 125.269 137.454  0.00  0.00    +0.000 OA
ATOM     22  O   UNL     1     109.492 126.433 137.427  0.00  0.00    +0.000 OA
ATOM     23  O   UNL     1     109.645 126.053 135.829  0.00  0.00    +0.000 OA
ATOM     24  O   UNL     1     110.926 125.150 135.315  0.00  0.00    +0.000 OA
ATOM     25  C   UNL     1     110.133 125.982 137.170  0.00  0.00    +0.000 C 
ATOM     26  C   UNL     1     110.209 125.792 136.370  0.00  0.00    +0.000 C 
ATOM     27  C   UNL     1     110.698 125.721 137.712  0.00  0.00    +0.000 C 
ATOM     28  C   UNL     1     110.850 125.340 136.114  0.00  0.00    +0.000 C 
ATOM     29  C   UNL     1     111.415 125.079 136.656  0.00  0.00    +0.000 C 
BRANCH  27  31
ATOM     30  O   UNL     1     110.847 125.367 139.089  0.00  0.00    +0.000 OA
ATOM     31  C   UNL     1     110.621 125.911 138.511  0.00  0.00    +0.000 C 
ENDBRANCH  27  31
ENDBRANCH  20  29
ENDBRANCH   2  20
TORSDOF 6
ENDMDL
