MODEL 1
REMARK VINA RESULT:      -9.1      0.000      0.000
REMARK  Name = 5320435
REMARK  5 active torsions:
REMARK  status: ('A' for Active; 'I' for Inactive)
REMARK    1  A    between atoms: O_2  and  C_18
REMARK    2  A    between atoms: O_2  and  C_20
REMARK    3  A    between atoms: O_8  and  C_21
REMARK    4  A    between atoms: C_17  and  C_19
REMARK    5  A    between atoms: C_27  and  C_29
REMARK                            x       y       z     vdW  Elec       q    Type
REMARK                         _______ _______ _______ _____ _____    ______ ____
ROOT
ATOM      1  O   UNL     1     110.714 127.224 136.461  0.00  0.00    +0.000 OA
ATOM      2  O   UNL     1     111.152 124.416 135.944  0.00  0.00    +0.000 OA
ATOM      3  O   UNL     1     109.688 126.666 134.618  0.00  0.00    +0.000 OA
ATOM      4  O   UNL     1     110.359 125.222 135.049  0.00  0.00    +0.000 OA
ATOM      5  C   UNL     1     111.874 125.709 137.626  0.00  0.00    +0.000 A 
ATOM      6  C   UNL     1     111.750 125.014 137.135  0.00  0.00    +0.000 A 
ATOM      7  C   UNL     1     111.521 126.458 137.395  0.00  0.00    +0.000 A 
ATOM      8  C   UNL     1     111.050 126.502 136.678  0.00  0.00    +0.000 A 
ATOM      9  C   UNL     1     110.932 125.835 136.207  0.00  0.00    +0.000 A 
ATOM     10  C   UNL     1     111.276 125.078 136.422  0.00  0.00    +0.000 A 
ATOM     11  C   UNL     1     110.478 125.890 135.521  0.00  0.00    +0.000 A 
ATOM     12  C   UNL     1     110.260 127.279 135.775  0.00  0.00    +0.000 A 
ATOM     13  C   UNL     1     110.142 126.611 135.304  0.00  0.00    +0.000 A 
ENDROOT
BRANCH  12  16
ATOM     14  O   UNL     1     108.102 129.146 135.920  0.00  0.00    +0.000 OA
ATOM     15  O   UNL     1     108.916 130.166 134.910  0.00  0.00    +0.000 OA
ATOM     16  C   UNL     1     109.924 128.001 135.559  0.00  0.00    +0.000 A 
ATOM     17  C   UNL     1     109.181 128.212 135.848  0.00  0.00    +0.000 A 
ATOM     18  C   UNL     1     110.331 128.510 135.054  0.00  0.00    +0.000 A 
ATOM     19  C   UNL     1     108.845 128.934 135.632  0.00  0.00    +0.000 A 
ATOM     20  C   UNL     1     109.995 129.232 134.838  0.00  0.00    +0.000 A 
ATOM     21  C   UNL     1     109.252 129.444 135.127  0.00  0.00    +0.000 A 
ENDBRANCH  12  16
BRANCH   6  22
ATOM     22  O   UNL     1     112.085 124.291 137.349  0.00  0.00    +0.000 OA
ATOM     23  C   UNL     1     112.712 123.982 136.912  0.00  0.00    +0.000 C 
ENDBRANCH   6  22
BRANCH   5  24
ATOM     24  O   UNL     1     112.327 125.657 138.313  0.00  0.00    +0.000 OA
BRANCH  24  33
ATOM     25  O   UNL     1     111.295 125.875 139.276  0.00  0.00    +0.000 OA
ATOM     26  O   UNL     1     112.807 127.352 140.563  0.00  0.00    +0.000 OA
ATOM     27  O   UNL     1     111.271 127.077 141.097  0.00  0.00    +0.000 OA
ATOM     28  O   UNL     1     113.335 126.642 139.171  0.00  0.00    +0.000 OA
ATOM     29  C   UNL     1     112.303 126.860 140.134  0.00  0.00    +0.000 C 
ATOM     30  C   UNL     1     111.534 126.722 140.401  0.00  0.00    +0.000 C 
ATOM     31  C   UNL     1     112.567 126.504 139.437  0.00  0.00    +0.000 C 
ATOM     32  C   UNL     1     111.030 126.230 139.972  0.00  0.00    +0.000 C 
ATOM     33  C   UNL     1     112.063 126.012 139.009  0.00  0.00    +0.000 C 
BRANCH  32  35
ATOM     34  O   UNL     1     109.962 125.324 140.255  0.00  0.00    +0.000 OA
ATOM     35  C   UNL     1     110.263 126.092 140.239  0.00  0.00    +0.000 C 
ENDBRANCH  32  35
ENDBRANCH  24  33
ENDBRANCH   5  24
TORSDOF 5
ENDMDL
MODEL 2
REMARK VINA RESULT:      -9.1      7.525     10.188
REMARK  Name = 5320435
REMARK  5 active torsions:
REMARK  status: ('A' for Active; 'I' for Inactive)
REMARK    1  A    between atoms: O_2  and  C_18
REMARK    2  A    between atoms: O_2  and  C_20
REMARK    3  A    between atoms: O_8  and  C_21
REMARK    4  A    between atoms: C_17  and  C_19
REMARK    5  A    between atoms: C_27  and  C_29
REMARK                            x       y       z     vdW  Elec       q    Type
REMARK                         _______ _______ _______ _____ _____    ______ ____
ROOT
ATOM      1  O   UNL     1     105.461 126.454 144.313  0.00  0.00    +0.000 OA
ATOM      2  O   UNL     1     107.278 126.650 146.551  0.00  0.00    +0.000 OA
ATOM      3  O   UNL     1     106.696 128.238 144.080  0.00  0.00    +0.000 OA
ATOM      4  O   UNL     1     107.280 127.639 145.502  0.00  0.00    +0.000 OA
ATOM      5  C   UNL     1     105.716 125.113 146.083  0.00  0.00    +0.000 A 
ATOM      6  C   UNL     1     106.348 125.525 146.495  0.00  0.00    +0.000 A 
ATOM      7  C   UNL     1     105.417 125.430 145.342  0.00  0.00    +0.000 A 
ATOM      8  C   UNL     1     105.752 126.154 145.024  0.00  0.00    +0.000 A 
ATOM      9  C   UNL     1     106.359 126.549 145.421  0.00  0.00    +0.000 A 
ATOM     10  C   UNL     1     106.671 126.247 146.162  0.00  0.00    +0.000 A 
ATOM     11  C   UNL     1     106.673 127.244 145.106  0.00  0.00    +0.000 A 
ATOM     12  C   UNL     1     105.775 127.149 143.998  0.00  0.00    +0.000 A 
ATOM     13  C   UNL     1     106.382 127.544 144.395  0.00  0.00    +0.000 A 
ENDROOT
BRANCH  12  16
ATOM     14  O   UNL     1     105.590 127.021 141.149  0.00  0.00    +0.000 OA
ATOM     15  O   UNL     1     104.609 128.347 141.154  0.00  0.00    +0.000 OA
ATOM     16  C   UNL     1     105.484 127.449 143.287  0.00  0.00    +0.000 A 
ATOM     17  C   UNL     1     105.683 127.084 142.574  0.00  0.00    +0.000 A 
ATOM     18  C   UNL     1     104.993 128.112 143.289  0.00  0.00    +0.000 A 
ATOM     19  C   UNL     1     105.391 127.384 141.863  0.00  0.00    +0.000 A 
ATOM     20  C   UNL     1     104.702 128.411 142.578  0.00  0.00    +0.000 A 
ATOM     21  C   UNL     1     104.901 128.047 141.865  0.00  0.00    +0.000 A 
ENDBRANCH  12  16
BRANCH   6  22
ATOM     22  O   UNL     1     106.642 125.228 147.206  0.00  0.00    +0.000 OA
ATOM     23  C   UNL     1     107.445 125.055 147.281  0.00  0.00    +0.000 C 
ENDBRANCH   6  22
BRANCH   5  24
ATOM     24  O   UNL     1     105.400 124.418 146.395  0.00  0.00    +0.000 OA
BRANCH  24  33
ATOM     25  O   UNL     1     104.172 124.903 146.943  0.00  0.00    +0.000 OA
ATOM     26  O   UNL     1     102.962 123.011 145.904  0.00  0.00    +0.000 OA
ATOM     27  O   UNL     1     102.138 124.126 146.797  0.00  0.00    +0.000 OA
ATOM     28  O   UNL     1     104.593 123.157 145.703  0.00  0.00    +0.000 OA
ATOM     29  C   UNL     1     103.365 123.642 146.250  0.00  0.00    +0.000 C 
ATOM     30  C   UNL     1     102.954 124.200 146.697  0.00  0.00    +0.000 C 
ATOM     31  C   UNL     1     104.181 123.715 146.150  0.00  0.00    +0.000 C 
ATOM     32  C   UNL     1     103.357 124.830 147.044  0.00  0.00    +0.000 C 
ATOM     33  C   UNL     1     104.585 124.345 146.496  0.00  0.00    +0.000 C 
BRANCH  32  35
ATOM     34  O   UNL     1     103.288 125.708 148.169  0.00  0.00    +0.000 OA
ATOM     35  C   UNL     1     102.945 125.387 147.490  0.00  0.00    +0.000 C 
ENDBRANCH  32  35
ENDBRANCH  24  33
ENDBRANCH   5  24
TORSDOF 5
ENDMDL
MODEL 3
REMARK VINA RESULT:      -9.0      7.427     10.801
REMARK  Name = 5320435
REMARK  5 active torsions:
REMARK  status: ('A' for Active; 'I' for Inactive)
REMARK    1  A    between atoms: O_2  and  C_18
REMARK    2  A    between atoms: O_2  and  C_20
REMARK    3  A    between atoms: O_8  and  C_21
REMARK    4  A    between atoms: C_17  and  C_19
REMARK    5  A    between atoms: C_27  and  C_29
REMARK                            x       y       z     vdW  Elec       q    Type
REMARK                         _______ _______ _______ _____ _____    ______ ____
ROOT
ATOM      1  O   UNL     1     104.680 125.399 145.690  0.00  0.00    +0.000 OA
ATOM      2  O   UNL     1     107.259 126.268 146.659  0.00  0.00    +0.000 OA
ATOM      3  O   UNL     1     105.291 124.119 147.349  0.00  0.00    +0.000 OA
ATOM      4  O   UNL     1     106.577 125.147 147.260  0.00  0.00    +0.000 OA
ATOM      5  C   UNL     1     105.990 127.072 144.998  0.00  0.00    +0.000 A 
ATOM      6  C   UNL     1     106.649 126.984 145.543  0.00  0.00    +0.000 A 
ATOM      7  C   UNL     1     105.323 126.533 145.050  0.00  0.00    +0.000 A 
ATOM      8  C   UNL     1     105.323 125.914 145.645  0.00  0.00    +0.000 A 
ATOM      9  C   UNL     1     105.956 125.830 146.168  0.00  0.00    +0.000 A 
ATOM     10  C   UNL     1     106.631 126.359 146.132  0.00  0.00    +0.000 A 
ATOM     11  C   UNL     1     105.945 125.232 146.736  0.00  0.00    +0.000 A 
ATOM     12  C   UNL     1     104.669 124.801 146.258  0.00  0.00    +0.000 A 
ATOM     13  C   UNL     1     105.302 124.717 146.781  0.00  0.00    +0.000 A 
ENDROOT
BRANCH  12  16
ATOM     14  O   UNL     1     102.048 124.194 147.222  0.00  0.00    +0.000 OA
ATOM     15  O   UNL     1     102.096 122.743 146.439  0.00  0.00    +0.000 OA
ATOM     16  C   UNL     1     104.026 124.286 146.303  0.00  0.00    +0.000 A 
ATOM     17  C   UNL     1     103.358 124.498 146.740  0.00  0.00    +0.000 A 
ATOM     18  C   UNL     1     104.050 123.560 145.911  0.00  0.00    +0.000 A 
ATOM     19  C   UNL     1     102.715 123.983 146.785  0.00  0.00    +0.000 A 
ATOM     20  C   UNL     1     103.406 123.047 145.957  0.00  0.00    +0.000 A 
ATOM     21  C   UNL     1     102.739 123.258 146.394  0.00  0.00    +0.000 A 
ENDBRANCH  12  16
BRANCH   6  22
ATOM     22  O   UNL     1     107.294 127.497 145.500  0.00  0.00    +0.000 OA
ATOM     23  C   UNL     1     107.380 128.098 146.059  0.00  0.00    +0.000 C 
ENDBRANCH   6  22
BRANCH   5  24
ATOM     24  O   UNL     1     105.998 127.670 144.429  0.00  0.00    +0.000 OA
BRANCH  24  33
ATOM     25  O   UNL     1     106.277 126.899 143.258  0.00  0.00    +0.000 OA
ATOM     26  O   UNL     1     104.513 128.127 142.030  0.00  0.00    +0.000 OA
ATOM     27  O   UNL     1     105.379 126.947 141.270  0.00  0.00    +0.000 OA
ATOM     28  O   UNL     1     104.823 128.488 143.610  0.00  0.00    +0.000 OA
ATOM     29  C   UNL     1     105.101 127.718 142.440  0.00  0.00    +0.000 C 
ATOM     30  C   UNL     1     105.534 127.128 142.060  0.00  0.00    +0.000 C 
ATOM     31  C   UNL     1     105.256 127.898 143.230  0.00  0.00    +0.000 C 
ATOM     32  C   UNL     1     106.122 126.718 142.469  0.00  0.00    +0.000 C 
ATOM     33  C   UNL     1     105.844 127.489 143.639  0.00  0.00    +0.000 C 
BRANCH  32  35
ATOM     34  O   UNL     1     107.354 126.023 142.265  0.00  0.00    +0.000 OA
ATOM     35  C   UNL     1     106.555 126.129 142.088  0.00  0.00    +0.000 C 
ENDBRANCH  32  35
ENDBRANCH  24  33
ENDBRANCH   5  24
TORSDOF 5
ENDMDL
MODEL 4
REMARK VINA RESULT:      -9.0      2.722      4.607
REMARK  Name = 5320435
REMARK  5 active torsions:
REMARK  status: ('A' for Active; 'I' for Inactive)
REMARK    1  A    between atoms: O_2  and  C_18
REMARK    2  A    between atoms: O_2  and  C_20
REMARK    3  A    between atoms: O_8  and  C_21
REMARK    4  A    between atoms: C_17  and  C_19
REMARK    5  A    between atoms: C_27  and  C_29
REMARK                            x       y       z     vdW  Elec       q    Type
REMARK                         _______ _______ _______ _____ _____    ______ ____
ROOT
ATOM      1  O   UNL     1     110.086 130.845 136.015  0.00  0.00    +0.000 OA
ATOM      2  O   UNL     1     112.204 131.738 137.765  0.00  0.00    +0.000 OA
ATOM      3  O   UNL     1     109.631 132.860 136.722  0.00  0.00    +0.000 OA
ATOM      4  O   UNL     1     111.071 132.583 137.478  0.00  0.00    +0.000 OA
ATOM      5  C   UNL     1     111.956 129.805 136.662  0.00  0.00    +0.000 A 
ATOM      6  C   UNL     1     112.297 130.408 137.169  0.00  0.00    +0.000 A 
ATOM      7  C   UNL     1     111.205 129.955 136.271  0.00  0.00    +0.000 A 
ATOM      8  C   UNL     1     110.807 130.707 136.393  0.00  0.00    +0.000 A 
ATOM      9  C   UNL     1     111.135 131.285 136.881  0.00  0.00    +0.000 A 
ATOM     10  C   UNL     1     111.884 131.153 137.279  0.00  0.00    +0.000 A 
ATOM     11  C   UNL     1     110.743 132.003 136.990  0.00  0.00    +0.000 A 
ATOM     12  C   UNL     1     109.694 131.563 136.125  0.00  0.00    +0.000 A 
ATOM     13  C   UNL     1     110.023 132.142 136.612  0.00  0.00    +0.000 A 
ENDROOT
BRANCH  12  16
ATOM     14  O   UNL     1     106.843 131.372 136.086  0.00  0.00    +0.000 OA
ATOM     15  O   UNL     1     106.814 132.118 134.614  0.00  0.00    +0.000 OA
ATOM     16  C   UNL     1     108.974 131.702 135.747  0.00  0.00    +0.000 A 
ATOM     17  C   UNL     1     108.269 131.467 136.106  0.00  0.00    +0.000 A 
ATOM     18  C   UNL     1     108.959 132.075 135.011  0.00  0.00    +0.000 A 
ATOM     19  C   UNL     1     107.549 131.606 135.728  0.00  0.00    +0.000 A 
ATOM     20  C   UNL     1     108.239 132.213 134.634  0.00  0.00    +0.000 A 
ATOM     21  C   UNL     1     107.534 131.979 134.992  0.00  0.00    +0.000 A 
ENDBRANCH  12  16
BRANCH   6  22
ATOM     22  O   UNL     1     113.017 130.272 137.549  0.00  0.00    +0.000 OA
ATOM     23  C   UNL     1     113.695 130.673 137.303  0.00  0.00    +0.000 C 
ENDBRANCH   6  22
BRANCH   5  24
ATOM     24  O   UNL     1     112.345 129.086 136.550  0.00  0.00    +0.000 OA
BRANCH  24  33
ATOM     25  O   UNL     1     111.527 128.240 137.360  0.00  0.00    +0.000 OA
ATOM     26  O   UNL     1     111.550 126.517 135.584  0.00  0.00    +0.000 OA
ATOM     27  O   UNL     1     110.724 126.246 136.985  0.00  0.00    +0.000 OA
ATOM     28  O   UNL     1     112.361 127.937 135.366  0.00  0.00    +0.000 OA
ATOM     29  C   UNL     1     111.542 127.091 136.176  0.00  0.00    +0.000 C 
ATOM     30  C   UNL     1     111.130 126.956 136.877  0.00  0.00    +0.000 C 
ATOM     31  C   UNL     1     111.948 127.802 136.067  0.00  0.00    +0.000 C 
ATOM     32  C   UNL     1     111.122 127.530 137.469  0.00  0.00    +0.000 C 
ATOM     33  C   UNL     1     111.940 128.376 136.659  0.00  0.00    +0.000 C 
BRANCH  32  35
ATOM     34  O   UNL     1     111.059 127.570 138.896  0.00  0.00    +0.000 OA
ATOM     35  C   UNL     1     110.709 127.394 138.170  0.00  0.00    +0.000 C 
ENDBRANCH  32  35
ENDBRANCH  24  33
ENDBRANCH   5  24
TORSDOF 5
ENDMDL
MODEL 5
REMARK VINA RESULT:      -9.0      6.198      8.196
REMARK  Name = 5320435
REMARK  5 active torsions:
REMARK  status: ('A' for Active; 'I' for Inactive)
REMARK    1  A    between atoms: O_2  and  C_18
REMARK    2  A    between atoms: O_2  and  C_20
REMARK    3  A    between atoms: O_8  and  C_21
REMARK    4  A    between atoms: C_17  and  C_19
REMARK    5  A    between atoms: C_27  and  C_29
REMARK                            x       y       z     vdW  Elec       q    Type
REMARK                         _______ _______ _______ _____ _____    ______ ____
ROOT
ATOM      1  O   UNL     1     105.024 127.995 142.512  0.00  0.00    +0.000 OA
ATOM      2  O   UNL     1     107.710 127.627 141.514  0.00  0.00    +0.000 OA
ATOM      3  O   UNL     1     105.676 129.825 141.518  0.00  0.00    +0.000 OA
ATOM      4  O   UNL     1     107.009 128.874 141.324  0.00  0.00    +0.000 OA
ATOM      5  C   UNL     1     106.375 126.218 142.633  0.00  0.00    +0.000 A 
ATOM      6  C   UNL     1     107.064 126.524 142.220  0.00  0.00    +0.000 A 
ATOM      7  C   UNL     1     105.683 126.720 142.731  0.00  0.00    +0.000 A 
ATOM      8  C   UNL     1     105.691 127.518 142.415  0.00  0.00    +0.000 A 
ATOM      9  C   UNL     1     106.352 127.811 142.019  0.00  0.00    +0.000 A 
ATOM     10  C   UNL     1     107.053 127.326 141.912  0.00  0.00    +0.000 A 
ATOM     11  C   UNL     1     106.347 128.580 141.720  0.00  0.00    +0.000 A 
ATOM     12  C   UNL     1     105.019 128.763 142.213  0.00  0.00    +0.000 A 
ATOM     13  C   UNL     1     105.681 129.056 141.817  0.00  0.00    +0.000 A 
ENDROOT
BRANCH  12  16
ATOM     14  O   UNL     1     103.447 130.521 143.828  0.00  0.00    +0.000 OA
ATOM     15  O   UNL     1     102.352 130.668 142.603  0.00  0.00    +0.000 OA
ATOM     16  C   UNL     1     104.352 129.240 142.311  0.00  0.00    +0.000 A 
ATOM     17  C   UNL     1     104.233 129.642 143.021  0.00  0.00    +0.000 A 
ATOM     18  C   UNL     1     103.805 129.313 141.698  0.00  0.00    +0.000 A 
ATOM     19  C   UNL     1     103.567 130.119 143.118  0.00  0.00    +0.000 A 
ATOM     20  C   UNL     1     103.139 129.789 141.796  0.00  0.00    +0.000 A 
ATOM     21  C   UNL     1     103.019 130.192 142.506  0.00  0.00    +0.000 A 
ENDBRANCH  12  16
BRANCH   6  22
ATOM     22  O   UNL     1     107.733 126.050 142.122  0.00  0.00    +0.000 OA
ATOM     23  C   UNL     1     107.926 125.761 141.374  0.00  0.00    +0.000 C 
ENDBRANCH   6  22
BRANCH   5  24
ATOM     24  O   UNL     1     106.378 125.450 142.933  0.00  0.00    +0.000 OA
BRANCH  24  33
ATOM     25  O   UNL     1     106.417 125.773 144.325  0.00  0.00    +0.000 OA
ATOM     26  O   UNL     1     104.803 123.955 144.792  0.00  0.00    +0.000 OA
ATOM     27  O   UNL     1     105.380 124.884 146.027  0.00  0.00    +0.000 OA
ATOM     28  O   UNL     1     105.302 124.238 143.245  0.00  0.00    +0.000 OA
ATOM     29  C   UNL     1     105.341 124.561 144.636  0.00  0.00    +0.000 C 
ATOM     30  C   UNL     1     105.630 125.026 145.253  0.00  0.00    +0.000 C 
ATOM     31  C   UNL     1     105.591 124.703 143.862  0.00  0.00    +0.000 C 
ATOM     32  C   UNL     1     106.168 125.631 145.098  0.00  0.00    +0.000 C 
ATOM     33  C   UNL     1     106.129 125.309 143.706  0.00  0.00    +0.000 C 
BRANCH  32  35
ATOM     34  O   UNL     1     107.266 126.244 145.778  0.00  0.00    +0.000 OA
ATOM     35  C   UNL     1     106.456 126.095 145.715  0.00  0.00    +0.000 C 
ENDBRANCH  32  35
ENDBRANCH  24  33
ENDBRANCH   5  24
TORSDOF 5
ENDMDL
MODEL 6
REMARK VINA RESULT:      -8.9      2.459      4.657
REMARK  Name = 5320435
REMARK  5 active torsions:
REMARK  status: ('A' for Active; 'I' for Inactive)
REMARK    1  A    between atoms: O_2  and  C_18
REMARK    2  A    between atoms: O_2  and  C_20
REMARK    3  A    between atoms: O_8  and  C_21
REMARK    4  A    between atoms: C_17  and  C_19
REMARK    5  A    between atoms: C_27  and  C_29
REMARK                            x       y       z     vdW  Elec       q    Type
REMARK                         _______ _______ _______ _____ _____    ______ ____
ROOT
ATOM      1  O   UNL     1     110.453 128.073 136.088  0.00  0.00    +0.000 OA
ATOM      2  O   UNL     1     108.218 129.896 135.928  0.00  0.00    +0.000 OA
ATOM      3  O   UNL     1     108.634 126.942 135.670  0.00  0.00    +0.000 OA
ATOM      4  O   UNL     1     108.035 128.478 135.743  0.00  0.00    +0.000 OA
ATOM      5  C   UNL     1     110.387 130.295 136.322  0.00  0.00    +0.000 A 
ATOM      6  C   UNL     1     109.547 130.435 136.202  0.00  0.00    +0.000 A 
ATOM      7  C   UNL     1     110.692 129.492 136.283  0.00  0.00    +0.000 A 
ATOM      8  C   UNL     1     110.154 128.841 136.125  0.00  0.00    +0.000 A 
ATOM      9  C   UNL     1     109.348 128.977 136.009  0.00  0.00    +0.000 A 
ATOM     10  C   UNL     1     109.025 129.771 136.045  0.00  0.00    +0.000 A 
ATOM     11  C   UNL     1     108.842 128.343 135.858  0.00  0.00    +0.000 A 
ATOM     12  C   UNL     1     109.946 127.440 135.937  0.00  0.00    +0.000 A 
ATOM     13  C   UNL     1     109.140 127.575 135.822  0.00  0.00    +0.000 A 
ENDROOT
BRANCH  12  16
ATOM     14  O   UNL     1     110.922 125.099 137.255  0.00  0.00    +0.000 OA
ATOM     15  O   UNL     1     111.141 124.368 135.793  0.00  0.00    +0.000 OA
ATOM     16  C   UNL     1     110.245 126.672 135.901  0.00  0.00    +0.000 A 
ATOM     17  C   UNL     1     110.434 126.270 136.597  0.00  0.00    +0.000 A 
ATOM     18  C   UNL     1     110.355 126.306 135.169  0.00  0.00    +0.000 A 
ATOM     19  C   UNL     1     110.733 125.502 136.560  0.00  0.00    +0.000 A 
ATOM     20  C   UNL     1     110.653 125.538 135.134  0.00  0.00    +0.000 A 
ATOM     21  C   UNL     1     110.842 125.136 135.829  0.00  0.00    +0.000 A 
ENDBRANCH  12  16
BRANCH   6  22
ATOM     22  O   UNL     1     109.245 131.202 136.238  0.00  0.00    +0.000 OA
ATOM     23  C   UNL     1     109.016 131.588 135.545  0.00  0.00    +0.000 C 
ENDBRANCH   6  22
BRANCH   5  24
ATOM     24  O   UNL     1     110.896 130.926 136.474  0.00  0.00    +0.000 OA
BRANCH  24  33
ATOM     25  O   UNL     1     111.150 130.753 137.869  0.00  0.00    +0.000 OA
ATOM     26  O   UNL     1     113.576 131.027 137.460  0.00  0.00    +0.000 OA
ATOM     27  O   UNL     1     113.022 130.763 138.991  0.00  0.00    +0.000 OA
ATOM     28  O   UNL     1     112.513 131.109 136.201  0.00  0.00    +0.000 OA
ATOM     29  C   UNL     1     112.767 130.936 137.596  0.00  0.00    +0.000 C 
ATOM     30  C   UNL     1     112.490 130.804 138.362  0.00  0.00    +0.000 C 
ATOM     31  C   UNL     1     112.235 130.977 136.966  0.00  0.00    +0.000 C 
ATOM     32  C   UNL     1     111.681 130.712 138.498  0.00  0.00    +0.000 C 
ATOM     33  C   UNL     1     111.427 130.885 137.103  0.00  0.00    +0.000 C 
BRANCH  32  35
ATOM     34  O   UNL     1     110.816 131.065 139.580  0.00  0.00    +0.000 OA
ATOM     35  C   UNL     1     111.405 130.580 139.263  0.00  0.00    +0.000 C 
ENDBRANCH  32  35
ENDBRANCH  24  33
ENDBRANCH   5  24
TORSDOF 5
ENDMDL
MODEL 7
REMARK VINA RESULT:      -8.9      8.428     10.939
REMARK  Name = 5320435
REMARK  5 active torsions:
REMARK  status: ('A' for Active; 'I' for Inactive)
REMARK    1  A    between atoms: O_2  and  C_18
REMARK    2  A    between atoms: O_2  and  C_20
REMARK    3  A    between atoms: O_8  and  C_21
REMARK    4  A    between atoms: C_17  and  C_19
REMARK    5  A    between atoms: C_27  and  C_29
REMARK                            x       y       z     vdW  Elec       q    Type
REMARK                         _______ _______ _______ _____ _____    ______ ____
ROOT
ATOM      1  O   UNL     1     105.118 126.425 145.435  0.00  0.00    +0.000 OA
ATOM      2  O   UNL     1     107.058 125.076 147.097  0.00  0.00    +0.000 OA
ATOM      3  O   UNL     1     107.100 127.245 145.033  0.00  0.00    +0.000 OA
ATOM      4  O   UNL     1     107.458 126.116 146.181  0.00  0.00    +0.000 OA
ATOM      5  C   UNL     1     104.841 124.794 146.938  0.00  0.00    +0.000 A 
ATOM      6  C   UNL     1     105.653 124.687 147.197  0.00  0.00    +0.000 A 
ATOM      7  C   UNL     1     104.661 125.385 146.340  0.00  0.00    +0.000 A 
ATOM      8  C   UNL     1     105.296 125.860 146.009  0.00  0.00    +0.000 A 
ATOM      9  C   UNL     1     106.076 125.756 146.258  0.00  0.00    +0.000 A 
ATOM     10  C   UNL     1     106.275 125.172 146.855  0.00  0.00    +0.000 A 
ATOM     11  C   UNL     1     106.677 126.218 145.933  0.00  0.00    +0.000 A 
ATOM     12  C   UNL     1     105.719 126.887 145.110  0.00  0.00    +0.000 A 
ATOM     13  C   UNL     1     106.499 126.783 145.359  0.00  0.00    +0.000 A 
ENDROOT
BRANCH  12  16
ATOM     14  O   UNL     1     105.297 127.584 142.370  0.00  0.00    +0.000 OA
ATOM     15  O   UNL     1     105.006 129.146 142.813  0.00  0.00    +0.000 OA
ATOM     16  C   UNL     1     105.541 127.452 144.536  0.00  0.00    +0.000 A 
ATOM     17  C   UNL     1     105.508 127.235 143.740  0.00  0.00    +0.000 A 
ATOM     18  C   UNL     1     105.395 128.233 144.757  0.00  0.00    +0.000 A 
ATOM     19  C   UNL     1     105.330 127.800 143.166  0.00  0.00    +0.000 A 
ATOM     20  C   UNL     1     105.217 128.797 144.183  0.00  0.00    +0.000 A 
ATOM     21  C   UNL     1     105.184 128.581 143.387  0.00  0.00    +0.000 A 
ENDBRANCH  12  16
BRANCH   6  22
ATOM     22  O   UNL     1     105.835 124.123 147.771  0.00  0.00    +0.000 OA
ATOM     23  C   UNL     1     106.115 124.361 148.509  0.00  0.00    +0.000 C 
ENDBRANCH   6  22
BRANCH   5  24
ATOM     24  O   UNL     1     104.237 124.334 147.262  0.00  0.00    +0.000 OA
BRANCH  24  33
ATOM     25  O   UNL     1     103.900 123.537 146.124  0.00  0.00    +0.000 OA
ATOM     26  O   UNL     1     101.495 123.897 146.585  0.00  0.00    +0.000 OA
ATOM     27  O   UNL     1     101.960 122.981 145.295  0.00  0.00    +0.000 OA
ATOM     28  O   UNL     1     102.634 124.574 147.569  0.00  0.00    +0.000 OA
ATOM     29  C   UNL     1     102.297 123.777 146.432  0.00  0.00    +0.000 C 
ATOM     30  C   UNL     1     102.530 123.319 145.787  0.00  0.00    +0.000 C 
ATOM     31  C   UNL     1     102.867 124.116 146.924  0.00  0.00    +0.000 C 
ATOM     32  C   UNL     1     103.331 123.199 145.633  0.00  0.00    +0.000 C 
ATOM     33  C   UNL     1     103.669 123.996 146.770  0.00  0.00    +0.000 C 
BRANCH  32  35
ATOM     34  O   UNL     1     103.992 123.083 144.371  0.00  0.00    +0.000 OA
ATOM     35  C   UNL     1     103.563 122.741 144.988  0.00  0.00    +0.000 C 
ENDBRANCH  32  35
ENDBRANCH  24  33
ENDBRANCH   5  24
TORSDOF 5
ENDMDL
MODEL 8
REMARK VINA RESULT:      -8.8      2.551      4.905
REMARK  Name = 5320435
REMARK  5 active torsions:
REMARK  status: ('A' for Active; 'I' for Inactive)
REMARK    1  A    between atoms: O_2  and  C_18
REMARK    2  A    between atoms: O_2  and  C_20
REMARK    3  A    between atoms: O_8  and  C_21
REMARK    4  A    between atoms: C_17  and  C_19
REMARK    5  A    between atoms: C_27  and  C_29
REMARK                            x       y       z     vdW  Elec       q    Type
REMARK                         _______ _______ _______ _____ _____    ______ ____
ROOT
ATOM      1  O   UNL     1     111.812 126.897 136.433  0.00  0.00    +0.000 OA
ATOM      2  O   UNL     1     110.100 128.354 134.618  0.00  0.00    +0.000 OA
ATOM      3  O   UNL     1     110.710 125.479 135.192  0.00  0.00    +0.000 OA
ATOM      4  O   UNL     1     110.135 126.912 134.612  0.00  0.00    +0.000 OA
ATOM      5  C   UNL     1     111.520 129.099 136.183  0.00  0.00    +0.000 A 
ATOM      6  C   UNL     1     110.938 129.103 135.551  0.00  0.00    +0.000 A 
ATOM      7  C   UNL     1     111.815 128.348 136.481  0.00  0.00    +0.000 A 
ATOM      8  C   UNL     1     111.525 127.614 136.143  0.00  0.00    +0.000 A 
ATOM      9  C   UNL     1     110.966 127.619 135.536  0.00  0.00    +0.000 A 
ATOM     10  C   UNL     1     110.659 128.359 135.226  0.00  0.00    +0.000 A 
ATOM     11  C   UNL     1     110.694 126.908 135.219  0.00  0.00    +0.000 A 
ATOM     12  C   UNL     1     111.540 126.185 136.116  0.00  0.00    +0.000 A 
ATOM     13  C   UNL     1     110.981 126.191 135.509  0.00  0.00    +0.000 A 
ENDROOT
BRANCH  12  16
ATOM     14  O   UNL     1     113.630 124.242 136.284  0.00  0.00    +0.000 OA
ATOM     15  O   UNL     1     112.689 123.317 137.275  0.00  0.00    +0.000 OA
ATOM     16  C   UNL     1     111.827 125.468 136.406  0.00  0.00    +0.000 A 
ATOM     17  C   UNL     1     112.585 125.214 136.200  0.00  0.00    +0.000 A 
ATOM     18  C   UNL     1     111.357 125.005 136.902  0.00  0.00    +0.000 A 
ATOM     19  C   UNL     1     112.872 124.497 136.490  0.00  0.00    +0.000 A 
ATOM     20  C   UNL     1     111.645 124.289 137.191  0.00  0.00    +0.000 A 
ATOM     21  C   UNL     1     112.402 124.034 136.985  0.00  0.00    +0.000 A 
ENDBRANCH  12  16
BRANCH   6  22
ATOM     22  O   UNL     1     110.648 129.819 135.259  0.00  0.00    +0.000 OA
ATOM     23  C   UNL     1     109.885 130.065 135.452  0.00  0.00    +0.000 C 
ENDBRANCH   6  22
BRANCH   5  24
ATOM     24  O   UNL     1     111.793 129.809 136.502  0.00  0.00    +0.000 OA
BRANCH  24  33
ATOM     25  O   UNL     1     113.105 129.786 135.935  0.00  0.00    +0.000 OA
ATOM     26  O   UNL     1     114.034 130.668 138.053  0.00  0.00    +0.000 OA
ATOM     27  O   UNL     1     115.035 130.352 136.781  0.00  0.00    +0.000 OA
ATOM     28  O   UNL     1     112.413 130.397 137.914  0.00  0.00    +0.000 OA
ATOM     29  C   UNL     1     113.725 130.374 137.347  0.00  0.00    +0.000 C 
ATOM     30  C   UNL     1     114.225 130.216 136.711  0.00  0.00    +0.000 C 
ATOM     31  C   UNL     1     112.913 130.238 137.277  0.00  0.00    +0.000 C 
ATOM     32  C   UNL     1     113.915 129.922 136.005  0.00  0.00    +0.000 C 
ATOM     33  C   UNL     1     112.603 129.944 136.571  0.00  0.00    +0.000 C 
BRANCH  32  35
ATOM     34  O   UNL     1     114.236 130.056 134.619  0.00  0.00    +0.000 OA
ATOM     35  C   UNL     1     114.416 129.764 135.369  0.00  0.00    +0.000 C 
ENDBRANCH  32  35
ENDBRANCH  24  33
ENDBRANCH   5  24
TORSDOF 5
ENDMDL
MODEL 9
REMARK VINA RESULT:      -8.8      2.685      4.974
REMARK  Name = 5320435
REMARK  5 active torsions:
REMARK  status: ('A' for Active; 'I' for Inactive)
REMARK    1  A    between atoms: O_2  and  C_18
REMARK    2  A    between atoms: O_2  and  C_20
REMARK    3  A    between atoms: O_8  and  C_21
REMARK    4  A    between atoms: C_17  and  C_19
REMARK    5  A    between atoms: C_27  and  C_29
REMARK                            x       y       z     vdW  Elec       q    Type
REMARK                         _______ _______ _______ _____ _____    ______ ____
ROOT
ATOM      1  O   UNL     1     111.784 129.268 135.816  0.00  0.00    +0.000 OA
ATOM      2  O   UNL     1     110.367 126.852 136.526  0.00  0.00    +0.000 OA
ATOM      3  O   UNL     1     113.225 127.664 136.154  0.00  0.00    +0.000 OA
ATOM      4  O   UNL     1     111.807 126.873 136.440  0.00  0.00    +0.000 OA
ATOM      5  C   UNL     1     109.591 128.896 136.036  0.00  0.00    +0.000 A 
ATOM      6  C   UNL     1     109.599 128.064 136.253  0.00  0.00    +0.000 A 
ATOM      7  C   UNL     1     110.334 129.303 135.888  0.00  0.00    +0.000 A 
ATOM      8  C   UNL     1     111.074 128.872 135.959  0.00  0.00    +0.000 A 
ATOM      9  C   UNL     1     111.081 128.074 136.167  0.00  0.00    +0.000 A 
ATOM     10  C   UNL     1     110.349 127.651 136.319  0.00  0.00    +0.000 A 
ATOM     11  C   UNL     1     111.798 127.672 136.232  0.00  0.00    +0.000 A 
ATOM     12  C   UNL     1     112.501 128.865 135.881  0.00  0.00    +0.000 A 
ATOM     13  C   UNL     1     112.508 128.067 136.089  0.00  0.00    +0.000 A 
ENDROOT
BRANCH  12  16
ATOM     14  O   UNL     1     114.628 130.540 136.795  0.00  0.00    +0.000 OA
ATOM     15  O   UNL     1     115.339 130.448 135.309  0.00  0.00    +0.000 OA
ATOM     16  C   UNL     1     113.211 129.261 135.738  0.00  0.00    +0.000 A 
ATOM     17  C   UNL     1     113.564 129.703 136.339  0.00  0.00    +0.000 A 
ATOM     18  C   UNL     1     113.566 129.215 134.995  0.00  0.00    +0.000 A 
ATOM     19  C   UNL     1     114.274 130.099 136.195  0.00  0.00    +0.000 A 
ATOM     20  C   UNL     1     114.275 129.610 134.852  0.00  0.00    +0.000 A 
ATOM     21  C   UNL     1     114.630 130.052 135.452  0.00  0.00    +0.000 A 
ENDBRANCH  12  16
BRANCH   6  22
ATOM     22  O   UNL     1     108.891 127.666 136.397  0.00  0.00    +0.000 OA
ATOM     23  C   UNL     1     108.618 127.104 135.858  0.00  0.00    +0.000 C 
ENDBRANCH   6  22
BRANCH   5  24
ATOM     24  O   UNL     1     108.875 129.301 135.970  0.00  0.00    +0.000 OA
BRANCH  24  33
ATOM     25  O   UNL     1     108.929 130.064 137.177  0.00  0.00    +0.000 OA
ATOM     26  O   UNL     1     108.120 132.057 135.952  0.00  0.00    +0.000 OA
ATOM     27  O   UNL     1     108.443 132.156 137.566  0.00  0.00    +0.000 OA
ATOM     28  O   UNL     1     108.336 130.630 135.154  0.00  0.00    +0.000 OA
ATOM     29  C   UNL     1     108.390 131.393 136.361  0.00  0.00    +0.000 C 
ATOM     30  C   UNL     1     108.551 131.442 137.168  0.00  0.00    +0.000 C 
ATOM     31  C   UNL     1     108.498 130.678 135.961  0.00  0.00    +0.000 C 
ATOM     32  C   UNL     1     108.821 130.778 137.576  0.00  0.00    +0.000 C 
ATOM     33  C   UNL     1     108.767 130.014 136.369  0.00  0.00    +0.000 C 
BRANCH  32  35
ATOM     34  O   UNL     1     108.674 130.264 138.902  0.00  0.00    +0.000 OA
ATOM     35  C   UNL     1     108.982 130.827 138.383  0.00  0.00    +0.000 C 
ENDBRANCH  32  35
ENDBRANCH  24  33
ENDBRANCH   5  24
TORSDOF 5
ENDMDL
MODEL 10
REMARK VINA RESULT:      -8.8      8.286     11.487
REMARK  Name = 5320435
REMARK  5 active torsions:
REMARK  status: ('A' for Active; 'I' for Inactive)
REMARK    1  A    between atoms: O_2  and  C_18
REMARK    2  A    between atoms: O_2  and  C_20
REMARK    3  A    between atoms: O_8  and  C_21
REMARK    4  A    between atoms: C_17  and  C_19
REMARK    5  A    between atoms: C_27  and  C_29
REMARK                            x       y       z     vdW  Elec       q    Type
REMARK                         _______ _______ _______ _____ _____    ______ ____
ROOT
ATOM      1  O   UNL     1     104.272 124.541 146.150  0.00  0.00    +0.000 OA
ATOM      2  O   UNL     1     106.263 125.278 148.109  0.00  0.00    +0.000 OA
ATOM      3  O   UNL     1     103.598 123.913 148.128  0.00  0.00    +0.000 OA
ATOM      4  O   UNL     1     105.050 124.602 148.499  0.00  0.00    +0.000 OA
ATOM      5  C   UNL     1     106.234 125.581 145.890  0.00  0.00    +0.000 A 
ATOM      6  C   UNL     1     106.503 125.602 146.706  0.00  0.00    +0.000 A 
ATOM      7  C   UNL     1     105.476 125.220 145.703  0.00  0.00    +0.000 A 
ATOM      8  C   UNL     1     104.999 124.886 146.335  0.00  0.00    +0.000 A 
ATOM      9  C   UNL     1     105.258 124.906 147.118  0.00  0.00    +0.000 A 
ATOM     10  C   UNL     1     106.012 125.262 147.323  0.00  0.00    +0.000 A 
ATOM     11  C   UNL     1     104.791 124.582 147.715  0.00  0.00    +0.000 A 
ATOM     12  C   UNL     1     103.805 124.217 146.747  0.00  0.00    +0.000 A 
ATOM     13  C   UNL     1     104.065 124.237 147.530  0.00  0.00    +0.000 A 
ENDROOT
BRANCH  12  16
ATOM     14  O   UNL     1     100.965 124.412 146.500  0.00  0.00    +0.000 OA
ATOM     15  O   UNL     1     100.900 122.839 146.007  0.00  0.00    +0.000 OA
ATOM     16  C   UNL     1     103.079 123.872 146.562  0.00  0.00    +0.000 A 
ATOM     17  C   UNL     1     102.385 124.315 146.624  0.00  0.00    +0.000 A 
ATOM     18  C   UNL     1     103.047 123.085 146.316  0.00  0.00    +0.000 A 
ATOM     19  C   UNL     1     101.659 123.970 146.439  0.00  0.00    +0.000 A 
ATOM     20  C   UNL     1     102.320 122.742 146.131  0.00  0.00    +0.000 A 
ATOM     21  C   UNL     1     101.626 123.184 146.192  0.00  0.00    +0.000 A 
ENDBRANCH  12  16
BRANCH   6  22
ATOM     22  O   UNL     1     107.229 125.946 146.894  0.00  0.00    +0.000 OA
ATOM     23  C   UNL     1     107.823 125.491 147.242  0.00  0.00    +0.000 C 
ENDBRANCH   6  22
BRANCH   5  24
ATOM     24  O   UNL     1     106.699 125.905 145.290  0.00  0.00    +0.000 OA
BRANCH  24  33
ATOM     25  O   UNL     1     105.960 127.099 145.026  0.00  0.00    +0.000 OA
ATOM     26  O   UNL     1     106.189 126.703 142.594  0.00  0.00    +0.000 OA
ATOM     27  O   UNL     1     105.374 128.028 143.141  0.00  0.00    +0.000 OA
ATOM     28  O   UNL     1     106.852 125.641 143.669  0.00  0.00    +0.000 OA
ATOM     29  C   UNL     1     106.113 126.835 143.405  0.00  0.00    +0.000 C 
ATOM     30  C   UNL     1     105.705 127.498 143.678  0.00  0.00    +0.000 C 
ATOM     31  C   UNL     1     106.444 126.304 143.943  0.00  0.00    +0.000 C 
ATOM     32  C   UNL     1     105.629 127.630 144.489  0.00  0.00    +0.000 C 
ATOM     33  C   UNL     1     106.368 126.435 144.753  0.00  0.00    +0.000 C 
BRANCH  32  35
ATOM     34  O   UNL     1     105.513 128.722 145.403  0.00  0.00    +0.000 OA
ATOM     35  C   UNL     1     105.221 128.292 144.762  0.00  0.00    +0.000 C 
ENDBRANCH  32  35
ENDBRANCH  24  33
ENDBRANCH   5  24
TORSDOF 5
ENDMDL
