MODEL 1
REMARK VINA RESULT:      -7.6      0.000      0.000
REMARK  Name = 45933925
REMARK  4 active torsions:
REMARK  status: ('A' for Active; 'I' for Inactive)
REMARK    1  A    between atoms: O_2  and  C_12
REMARK    2  A    between atoms: O_4  and  C_14
REMARK    3  A    between atoms: O_5  and  C_16
REMARK    4  A    between atoms: C_6  and  C_8
REMARK                            x       y       z     vdW  Elec       q    Type
REMARK                         _______ _______ _______ _____ _____    ______ ____
ROOT
ATOM      1  O   UNL     1     113.955 126.747 136.780  0.00  0.00    +0.000 OA
ATOM      2  O   UNL     1     111.751 125.812 136.153  0.00  0.00    +0.000 OA
ATOM      3  C   UNL     1     113.355 127.247 136.510  0.00  0.00    +0.000 C 
ATOM      4  C   UNL     1     112.621 126.935 136.301  0.00  0.00    +0.000 C 
ATOM      5  C   UNL     1     113.084 125.624 136.631  0.00  0.00    +0.000 A 
ATOM      6  C   UNL     1     112.486 126.124 136.362  0.00  0.00    +0.000 C 
ATOM      7  C   UNL     1     113.818 125.936 136.840  0.00  0.00    +0.000 A 
ATOM      8  C   UNL     1     112.930 124.780 136.689  0.00  0.00    +0.000 A 
ATOM      9  C   UNL     1     114.450 125.426 137.121  0.00  0.00    +0.000 A 
ATOM     10  C   UNL     1     113.550 124.255 136.968  0.00  0.00    +0.000 A 
ATOM     11  C   UNL     1     114.315 124.580 137.186  0.00  0.00    +0.000 A 
ENDROOT
BRANCH   3  12
ATOM     12  C   UNL     1     113.492 128.059 136.451  0.00  0.00    +0.000 A 
ATOM     13  C   UNL     1     113.283 128.560 137.072  0.00  0.00    +0.000 A 
ATOM     14  C   UNL     1     113.838 128.369 135.768  0.00  0.00    +0.000 A 
ATOM     15  C   UNL     1     113.420 129.371 137.010  0.00  0.00    +0.000 A 
ATOM     16  C   UNL     1     113.975 129.180 135.708  0.00  0.00    +0.000 A 
ATOM     17  C   UNL     1     113.765 129.681 136.329  0.00  0.00    +0.000 A 
BRANCH  13  18
ATOM     18  O   UNL     1     112.937 128.249 137.753  0.00  0.00    +0.000 OA
ATOM     19  C   UNL     1     113.100 128.586 138.488  0.00  0.00    +0.000 C 
ENDBRANCH  13  18
BRANCH  15  20
ATOM     20  O   UNL     1     113.210 129.872 137.632  0.00  0.00    +0.000 OA
ATOM     21  C   UNL     1     113.252 130.690 137.534  0.00  0.00    +0.000 C 
ENDBRANCH  15  20
ENDBRANCH   3  12
BRANCH   8  22
ATOM     22  O   UNL     1     112.192 124.478 136.478  0.00  0.00    +0.000 OA
ATOM     23  C   UNL     1     112.005 123.692 136.647  0.00  0.00    +0.000 C 
ENDBRANCH   8  22
TORSDOF 4
ENDMDL
MODEL 2
REMARK VINA RESULT:      -7.4      1.694      2.557
REMARK  Name = 45933925
REMARK  4 active torsions:
REMARK  status: ('A' for Active; 'I' for Inactive)
REMARK    1  A    between atoms: O_2  and  C_12
REMARK    2  A    between atoms: O_4  and  C_14
REMARK    3  A    between atoms: O_5  and  C_16
REMARK    4  A    between atoms: C_6  and  C_8
REMARK                            x       y       z     vdW  Elec       q    Type
REMARK                         _______ _______ _______ _____ _____    ______ ____
ROOT
ATOM      1  O   UNL     1     113.928 126.168 138.596  0.00  0.00    +0.000 OA
ATOM      2  O   UNL     1     111.631 125.398 138.092  0.00  0.00    +0.000 OA
ATOM      3  C   UNL     1     113.289 126.471 139.022  0.00  0.00    +0.000 C 
ATOM      4  C   UNL     1     112.523 126.214 138.854  0.00  0.00    +0.000 C 
ATOM      5  C   UNL     1     113.035 125.353 137.835  0.00  0.00    +0.000 A 
ATOM      6  C   UNL     1     112.397 125.655 138.260  0.00  0.00    +0.000 C 
ATOM      7  C   UNL     1     113.801 125.610 138.002  0.00  0.00    +0.000 A 
ATOM      8  C   UNL     1     112.890 124.771 137.219  0.00  0.00    +0.000 A 
ATOM      9  C   UNL     1     114.475 125.302 137.566  0.00  0.00    +0.000 A 
ATOM     10  C   UNL     1     113.551 124.453 136.772  0.00  0.00    +0.000 A 
ATOM     11  C   UNL     1     114.349 124.720 136.947  0.00  0.00    +0.000 A 
ENDROOT
BRANCH   3  12
ATOM     12  C   UNL     1     113.416 127.029 139.615  0.00  0.00    +0.000 A 
ATOM     13  C   UNL     1     113.438 127.833 139.428  0.00  0.00    +0.000 A 
ATOM     14  C   UNL     1     113.523 126.784 140.396  0.00  0.00    +0.000 A 
ATOM     15  C   UNL     1     113.566 128.391 140.022  0.00  0.00    +0.000 A 
ATOM     16  C   UNL     1     113.650 127.343 140.989  0.00  0.00    +0.000 A 
ATOM     17  C   UNL     1     113.672 128.146 140.803  0.00  0.00    +0.000 A 
BRANCH  13  18
ATOM     18  O   UNL     1     113.332 128.077 138.648  0.00  0.00    +0.000 OA
ATOM     19  C   UNL     1     112.938 128.784 138.487  0.00  0.00    +0.000 C 
ENDBRANCH  13  18
BRANCH  15  20
ATOM     20  O   UNL     1     113.587 129.194 139.836  0.00  0.00    +0.000 OA
ATOM     21  C   UNL     1     113.845 129.742 140.396  0.00  0.00    +0.000 C 
ENDBRANCH  15  20
ENDBRANCH   3  12
BRANCH   8  22
ATOM     22  O   UNL     1     112.121 124.520 137.058  0.00  0.00    +0.000 OA
ATOM     23  C   UNL     1     111.989 123.918 136.508  0.00  0.00    +0.000 C 
ENDBRANCH   8  22
TORSDOF 4
ENDMDL
MODEL 3
REMARK VINA RESULT:      -7.4      2.457      3.493
REMARK  Name = 45933925
REMARK  4 active torsions:
REMARK  status: ('A' for Active; 'I' for Inactive)
REMARK    1  A    between atoms: O_2  and  C_12
REMARK    2  A    between atoms: O_4  and  C_14
REMARK    3  A    between atoms: O_5  and  C_16
REMARK    4  A    between atoms: C_6  and  C_8
REMARK                            x       y       z     vdW  Elec       q    Type
REMARK                         _______ _______ _______ _____ _____    ______ ____
ROOT
ATOM      1  O   UNL     1     111.303 124.774 136.313  0.00  0.00    +0.000 OA
ATOM      2  O   UNL     1     113.339 126.172 136.476  0.00  0.00    +0.000 OA
ATOM      3  C   UNL     1     111.289 125.557 136.050  0.00  0.00    +0.000 C 
ATOM      4  C   UNL     1     111.967 126.023 136.104  0.00  0.00    +0.000 C 
ATOM      5  C   UNL     1     112.675 124.925 136.684  0.00  0.00    +0.000 A 
ATOM      6  C   UNL     1     112.660 125.706 136.421  0.00  0.00    +0.000 C 
ATOM      7  C   UNL     1     111.996 124.459 136.630  0.00  0.00    +0.000 A 
ATOM      8  C   UNL     1     113.403 124.607 137.012  0.00  0.00    +0.000 A 
ATOM      9  C   UNL     1     111.998 123.643 136.900  0.00  0.00    +0.000 A 
ATOM     10  C   UNL     1     113.424 123.793 137.287  0.00  0.00    +0.000 A 
ATOM     11  C   UNL     1     112.717 123.308 137.231  0.00  0.00    +0.000 A 
ENDROOT
BRANCH   3  12
ATOM     12  C   UNL     1     110.595 125.873 135.733  0.00  0.00    +0.000 A 
ATOM     13  C   UNL     1     110.112 126.355 136.196  0.00  0.00    +0.000 A 
ATOM     14  C   UNL     1     110.385 125.705 134.953  0.00  0.00    +0.000 A 
ATOM     15  C   UNL     1     109.419 126.670 135.878  0.00  0.00    +0.000 A 
ATOM     16  C   UNL     1     109.692 126.020 134.636  0.00  0.00    +0.000 A 
ATOM     17  C   UNL     1     109.209 126.503 135.099  0.00  0.00    +0.000 A 
BRANCH  13  18
ATOM     18  O   UNL     1     110.322 126.522 136.976  0.00  0.00    +0.000 OA
ATOM     19  C   UNL     1     109.742 126.553 137.561  0.00  0.00    +0.000 C 
ENDBRANCH  13  18
BRANCH  15  20
ATOM     20  O   UNL     1     108.935 127.153 136.341  0.00  0.00    +0.000 OA
ATOM     21  C   UNL     1     108.437 127.703 135.982  0.00  0.00    +0.000 C 
ENDBRANCH  15  20
ENDBRANCH   3  12
BRANCH   8  22
ATOM     22  O   UNL     1     114.077 125.080 137.062  0.00  0.00    +0.000 OA
ATOM     23  C   UNL     1     114.813 124.736 137.205  0.00  0.00    +0.000 C 
ENDBRANCH   8  22
TORSDOF 4
ENDMDL
MODEL 4
REMARK VINA RESULT:      -7.4     11.128     12.199
REMARK  Name = 45933925
REMARK  4 active torsions:
REMARK  status: ('A' for Active; 'I' for Inactive)
REMARK    1  A    between atoms: O_2  and  C_12
REMARK    2  A    between atoms: O_4  and  C_14
REMARK    3  A    between atoms: O_5  and  C_16
REMARK    4  A    between atoms: C_6  and  C_8
REMARK                            x       y       z     vdW  Elec       q    Type
REMARK                         _______ _______ _______ _____ _____    ______ ____
ROOT
ATOM      1  O   UNL     1     103.001 130.608 142.470  0.00  0.00    +0.000 OA
ATOM      2  O   UNL     1     103.134 129.235 140.415  0.00  0.00    +0.000 OA
ATOM      3  C   UNL     1     102.542 130.804 141.812  0.00  0.00    +0.000 C 
ATOM      4  C   UNL     1     102.587 130.346 141.127  0.00  0.00    +0.000 C 
ATOM      5  C   UNL     1     103.548 129.497 141.756  0.00  0.00    +0.000 A 
ATOM      6  C   UNL     1     103.090 129.693 141.100  0.00  0.00    +0.000 C 
ATOM      7  C   UNL     1     103.504 129.955 142.441  0.00  0.00    +0.000 A 
ATOM      8  C   UNL     1     104.069 128.814 141.715  0.00  0.00    +0.000 A 
ATOM      9  C   UNL     1     103.977 129.761 143.133  0.00  0.00    +0.000 A 
ATOM     10  C   UNL     1     104.549 128.606 142.397  0.00  0.00    +0.000 A 
ATOM     11  C   UNL     1     104.502 129.082 143.110  0.00  0.00    +0.000 A 
ENDROOT
BRANCH   3  12
ATOM     12  C   UNL     1     102.039 131.457 141.840  0.00  0.00    +0.000 A 
ATOM     13  C   UNL     1     102.325 132.207 141.646  0.00  0.00    +0.000 A 
ATOM     14  C   UNL     1     101.250 131.361 142.063  0.00  0.00    +0.000 A 
ATOM     15  C   UNL     1     101.821 132.860 141.674  0.00  0.00    +0.000 A 
ATOM     16  C   UNL     1     100.748 132.014 142.092  0.00  0.00    +0.000 A 
ATOM     17  C   UNL     1     101.033 132.763 141.897  0.00  0.00    +0.000 A 
BRANCH  13  18
ATOM     18  O   UNL     1     103.112 132.303 141.423  0.00  0.00    +0.000 OA
ATOM     19  C   UNL     1     103.317 132.878 140.868  0.00  0.00    +0.000 C 
ENDBRANCH  13  18
BRANCH  15  20
ATOM     20  O   UNL     1     102.106 133.609 141.480  0.00  0.00    +0.000 OA
ATOM     21  C   UNL     1     101.624 134.272 141.575  0.00  0.00    +0.000 C 
ENDBRANCH  15  20
ENDBRANCH   3  12
BRANCH   8  22
ATOM     22  O   UNL     1     104.107 128.363 141.026  0.00  0.00    +0.000 OA
ATOM     23  C   UNL     1     104.501 127.638 141.029  0.00  0.00    +0.000 C 
ENDBRANCH   8  22
TORSDOF 4
ENDMDL
MODEL 5
REMARK VINA RESULT:      -7.3     12.585     13.980
REMARK  Name = 45933925
REMARK  4 active torsions:
REMARK  status: ('A' for Active; 'I' for Inactive)
REMARK    1  A    between atoms: O_2  and  C_12
REMARK    2  A    between atoms: O_4  and  C_14
REMARK    3  A    between atoms: O_5  and  C_16
REMARK    4  A    between atoms: C_6  and  C_8
REMARK                            x       y       z     vdW  Elec       q    Type
REMARK                         _______ _______ _______ _____ _____    ______ ____
ROOT
ATOM      1  O   UNL     1     104.190 125.200 146.141  0.00  0.00    +0.000 OA
ATOM      2  O   UNL     1     105.767 124.127 147.718  0.00  0.00    +0.000 OA
ATOM      3  C   UNL     1     103.932 124.588 146.631  0.00  0.00    +0.000 C 
ATOM      4  C   UNL     1     104.457 124.230 147.157  0.00  0.00    +0.000 C 
ATOM      5  C   UNL     1     105.500 125.096 146.704  0.00  0.00    +0.000 A 
ATOM      6  C   UNL     1     105.241 124.485 147.193  0.00  0.00    +0.000 C 
ATOM      7  C   UNL     1     104.974 125.454 146.178  0.00  0.00    +0.000 A 
ATOM      8  C   UNL     1     106.319 125.352 146.751  0.00  0.00    +0.000 A 
ATOM      9  C   UNL     1     105.231 126.093 145.664  0.00  0.00    +0.000 A 
ATOM     10  C   UNL     1     106.594 125.989 146.245  0.00  0.00    +0.000 A 
ATOM     11  C   UNL     1     106.046 126.362 145.697  0.00  0.00    +0.000 A 
ENDROOT
BRANCH   3  12
ATOM     12  C   UNL     1     103.148 124.334 146.594  0.00  0.00    +0.000 A 
ATOM     13  C   UNL     1     102.912 123.806 146.006  0.00  0.00    +0.000 A 
ATOM     14  C   UNL     1     102.599 124.609 147.146  0.00  0.00    +0.000 A 
ATOM     15  C   UNL     1     102.127 123.553 145.970  0.00  0.00    +0.000 A 
ATOM     16  C   UNL     1     101.815 124.356 147.109  0.00  0.00    +0.000 A 
ATOM     17  C   UNL     1     101.579 123.827 146.521  0.00  0.00    +0.000 A 
BRANCH  13  18
ATOM     18  O   UNL     1     103.460 123.531 145.455  0.00  0.00    +0.000 OA
ATOM     19  C   UNL     1     103.448 122.740 145.221  0.00  0.00    +0.000 C 
ENDBRANCH  13  18
BRANCH  15  20
ATOM     20  O   UNL     1     101.891 123.024 145.382  0.00  0.00    +0.000 OA
ATOM     21  C   UNL     1     101.089 122.883 145.251  0.00  0.00    +0.000 C 
ENDBRANCH  15  20
ENDBRANCH   3  12
BRANCH   8  22
ATOM     22  O   UNL     1     106.837 124.988 147.280  0.00  0.00    +0.000 OA
ATOM     23  C   UNL     1     107.582 125.317 147.420  0.00  0.00    +0.000 C 
ENDBRANCH   8  22
TORSDOF 4
ENDMDL
MODEL 6
REMARK VINA RESULT:      -7.3     12.848     13.922
REMARK  Name = 45933925
REMARK  4 active torsions:
REMARK  status: ('A' for Active; 'I' for Inactive)
REMARK    1  A    between atoms: O_2  and  C_12
REMARK    2  A    between atoms: O_4  and  C_14
REMARK    3  A    between atoms: O_5  and  C_16
REMARK    4  A    between atoms: C_6  and  C_8
REMARK                            x       y       z     vdW  Elec       q    Type
REMARK                         _______ _______ _______ _____ _____    ______ ____
ROOT
ATOM      1  O   UNL     1     104.935 124.044 146.656  0.00  0.00    +0.000 OA
ATOM      2  O   UNL     1     103.058 125.353 147.598  0.00  0.00    +0.000 OA
ATOM      3  C   UNL     1     105.088 124.701 147.133  0.00  0.00    +0.000 C 
ATOM      4  C   UNL     1     104.462 125.137 147.447  0.00  0.00    +0.000 C 
ATOM      5  C   UNL     1     103.531 124.260 146.809  0.00  0.00    +0.000 A 
ATOM      6  C   UNL     1     103.684 124.916 147.284  0.00  0.00    +0.000 C 
ATOM      7  C   UNL     1     104.157 123.824 146.495  0.00  0.00    +0.000 A 
ATOM      8  C   UNL     1     102.716 124.041 146.648  0.00  0.00    +0.000 A 
ATOM      9  C   UNL     1     104.011 123.138 145.998  0.00  0.00    +0.000 A 
ATOM     10  C   UNL     1     102.551 123.358 146.153  0.00  0.00    +0.000 A 
ATOM     11  C   UNL     1     103.202 122.904 145.826  0.00  0.00    +0.000 A 
ENDROOT
BRANCH   3  12
ATOM     12  C   UNL     1     105.866 124.921 147.294  0.00  0.00    +0.000 A 
ATOM     13  C   UNL     1     106.238 124.653 147.980  0.00  0.00    +0.000 A 
ATOM     14  C   UNL     1     106.274 125.410 146.768  0.00  0.00    +0.000 A 
ATOM     15  C   UNL     1     107.016 124.873 148.140  0.00  0.00    +0.000 A 
ATOM     16  C   UNL     1     107.052 125.630 146.929  0.00  0.00    +0.000 A 
ATOM     17  C   UNL     1     107.424 125.362 147.615  0.00  0.00    +0.000 A 
BRANCH  13  18
ATOM     18  O   UNL     1     105.830 124.165 148.505  0.00  0.00    +0.000 OA
ATOM     19  C   UNL     1     105.954 124.239 149.317  0.00  0.00    +0.000 C 
ENDBRANCH  13  18
BRANCH  15  20
ATOM     20  O   UNL     1     107.388 124.605 148.826  0.00  0.00    +0.000 OA
ATOM     21  C   UNL     1     108.211 124.614 148.881  0.00  0.00    +0.000 C 
ENDBRANCH  15  20
ENDBRANCH   3  12
BRANCH   8  22
ATOM     22  O   UNL     1     102.096 124.483 146.966  0.00  0.00    +0.000 OA
ATOM     23  C   UNL     1     101.316 124.236 146.859  0.00  0.00    +0.000 C 
ENDBRANCH   8  22
TORSDOF 4
ENDMDL
MODEL 7
REMARK VINA RESULT:      -7.3      0.484      4.218
REMARK  Name = 45933925
REMARK  4 active torsions:
REMARK  status: ('A' for Active; 'I' for Inactive)
REMARK    1  A    between atoms: O_2  and  C_12
REMARK    2  A    between atoms: O_4  and  C_14
REMARK    3  A    between atoms: O_5  and  C_16
REMARK    4  A    between atoms: C_6  and  C_8
REMARK                            x       y       z     vdW  Elec       q    Type
REMARK                         _______ _______ _______ _____ _____    ______ ____
ROOT
ATOM      1  O   UNL     1     113.776 127.215 136.211  0.00  0.00    +0.000 OA
ATOM      2  O   UNL     1     112.888 128.466 138.153  0.00  0.00    +0.000 OA
ATOM      3  C   UNL     1     113.504 126.807 136.875  0.00  0.00    +0.000 C 
ATOM      4  C   UNL     1     113.208 127.224 137.522  0.00  0.00    +0.000 C 
ATOM      5  C   UNL     1     113.456 128.456 136.842  0.00  0.00    +0.000 A 
ATOM      6  C   UNL     1     113.184 128.049 137.505  0.00  0.00    +0.000 C 
ATOM      7  C   UNL     1     113.752 128.039 136.195  0.00  0.00    +0.000 A 
ATOM      8  C   UNL     1     113.426 129.315 136.837  0.00  0.00    +0.000 A 
ATOM      9  C   UNL     1     114.039 128.452 135.498  0.00  0.00    +0.000 A 
ATOM     10  C   UNL     1     113.708 129.745 136.149  0.00  0.00    +0.000 A 
ATOM     11  C   UNL     1     114.017 129.311 135.475  0.00  0.00    +0.000 A 
ENDROOT
BRANCH   3  12
ATOM     12  C   UNL     1     113.528 125.983 136.891  0.00  0.00    +0.000 A 
ATOM     13  C   UNL     1     112.854 125.546 136.703  0.00  0.00    +0.000 A 
ATOM     14  C   UNL     1     114.228 125.595 137.095  0.00  0.00    +0.000 A 
ATOM     15  C   UNL     1     112.879 124.721 136.719  0.00  0.00    +0.000 A 
ATOM     16  C   UNL     1     114.252 124.770 137.111  0.00  0.00    +0.000 A 
ATOM     17  C   UNL     1     113.578 124.334 136.923  0.00  0.00    +0.000 A 
BRANCH  13  18
ATOM     18  O   UNL     1     112.155 125.934 136.499  0.00  0.00    +0.000 OA
ATOM     19  C   UNL     1     111.654 125.609 135.930  0.00  0.00    +0.000 C 
ENDBRANCH  13  18
BRANCH  15  20
ATOM     20  O   UNL     1     112.205 124.285 136.531  0.00  0.00    +0.000 OA
ATOM     21  C   UNL     1     112.152 123.491 136.751  0.00  0.00    +0.000 C 
ENDBRANCH  15  20
ENDBRANCH   3  12
BRANCH   8  22
ATOM     22  O   UNL     1     113.128 129.724 137.489  0.00  0.00    +0.000 OA
ATOM     23  C   UNL     1     113.123 130.549 137.492  0.00  0.00    +0.000 C 
ENDBRANCH   8  22
TORSDOF 4
ENDMDL
MODEL 8
REMARK VINA RESULT:      -7.3      9.146     11.539
REMARK  Name = 45933925
REMARK  4 active torsions:
REMARK  status: ('A' for Active; 'I' for Inactive)
REMARK    1  A    between atoms: O_2  and  C_12
REMARK    2  A    between atoms: O_4  and  C_14
REMARK    3  A    between atoms: O_5  and  C_16
REMARK    4  A    between atoms: C_6  and  C_8
REMARK                            x       y       z     vdW  Elec       q    Type
REMARK                         _______ _______ _______ _____ _____    ______ ____
ROOT
ATOM      1  O   UNL     1     112.492 132.509 146.585  0.00  0.00    +0.000 OA
ATOM      2  O   UNL     1     110.415 133.685 147.239  0.00  0.00    +0.000 OA
ATOM      3  C   UNL     1     111.946 132.734 146.008  0.00  0.00    +0.000 C 
ATOM      4  C   UNL     1     111.254 133.126 146.226  0.00  0.00    +0.000 C 
ATOM      5  C   UNL     1     111.652 133.069 147.597  0.00  0.00    +0.000 A 
ATOM      6  C   UNL     1     111.107 133.293 147.021  0.00  0.00    +0.000 C 
ATOM      7  C   UNL     1     112.345 132.677 147.379  0.00  0.00    +0.000 A 
ATOM      8  C   UNL     1     111.488 133.249 148.422  0.00  0.00    +0.000 A 
ATOM      9  C   UNL     1     112.921 132.438 147.971  0.00  0.00    +0.000 A 
ATOM     10  C   UNL     1     112.053 133.018 149.026  0.00  0.00    +0.000 A 
ATOM     11  C   UNL     1     112.774 132.610 148.800  0.00  0.00    +0.000 A 
ENDROOT
BRANCH   3  12
ATOM     12  C   UNL     1     112.094 132.566 145.214  0.00  0.00    +0.000 A 
ATOM     13  C   UNL     1     111.826 131.859 144.885  0.00  0.00    +0.000 A 
ATOM     14  C   UNL     1     112.509 133.107 144.749  0.00  0.00    +0.000 A 
ATOM     15  C   UNL     1     111.974 131.692 144.091  0.00  0.00    +0.000 A 
ATOM     16  C   UNL     1     112.656 132.939 143.955  0.00  0.00    +0.000 A 
ATOM     17  C   UNL     1     112.389 132.232 143.626  0.00  0.00    +0.000 A 
BRANCH  13  18
ATOM     18  O   UNL     1     111.412 131.319 145.350  0.00  0.00    +0.000 OA
ATOM     19  C   UNL     1     111.481 130.510 145.204  0.00  0.00    +0.000 C 
ENDBRANCH  13  18
BRANCH  15  20
ATOM     20  O   UNL     1     111.707 130.984 143.761  0.00  0.00    +0.000 OA
ATOM     21  C   UNL     1     111.770 130.857 142.949  0.00  0.00    +0.000 C 
ENDBRANCH  15  20
ENDBRANCH   3  12
BRANCH   8  22
ATOM     22  O   UNL     1     110.793 133.642 148.630  0.00  0.00    +0.000 OA
ATOM     23  C   UNL     1     110.557 133.672 149.420  0.00  0.00    +0.000 C 
ENDBRANCH   8  22
TORSDOF 4
ENDMDL
MODEL 9
REMARK VINA RESULT:      -7.3      3.508      5.426
REMARK  Name = 45933925
REMARK  4 active torsions:
REMARK  status: ('A' for Active; 'I' for Inactive)
REMARK    1  A    between atoms: O_2  and  C_12
REMARK    2  A    between atoms: O_4  and  C_14
REMARK    3  A    between atoms: O_5  and  C_16
REMARK    4  A    between atoms: C_6  and  C_8
REMARK                            x       y       z     vdW  Elec       q    Type
REMARK                         _______ _______ _______ _____ _____    ______ ____
ROOT
ATOM      1  O   UNL     1     110.220 128.221 135.047  0.00  0.00    +0.000 OA
ATOM      2  O   UNL     1     108.028 128.754 136.065  0.00  0.00    +0.000 OA
ATOM      3  C   UNL     1     109.762 127.620 135.380  0.00  0.00    +0.000 C 
ATOM      4  C   UNL     1     109.031 127.798 135.720  0.00  0.00    +0.000 C 
ATOM      5  C   UNL     1     109.215 129.177 135.393  0.00  0.00    +0.000 A 
ATOM      6  C   UNL     1     108.758 128.576 135.726  0.00  0.00    +0.000 C 
ATOM      7  C   UNL     1     109.946 128.999 135.053  0.00  0.00    +0.000 A 
ATOM      8  C   UNL     1     108.919 129.984 135.406  0.00  0.00    +0.000 A 
ATOM      9  C   UNL     1     110.431 129.616 134.703  0.00  0.00    +0.000 A 
ATOM     10  C   UNL     1     109.391 130.613 135.060  0.00  0.00    +0.000 A 
ATOM     11  C   UNL     1     110.151 130.428 134.707  0.00  0.00    +0.000 A 
ENDROOT
BRANCH   3  12
ATOM     12  C   UNL     1     110.036 126.842 135.374  0.00  0.00    +0.000 A 
ATOM     13  C   UNL     1     110.471 126.551 136.012  0.00  0.00    +0.000 A 
ATOM     14  C   UNL     1     109.875 126.354 134.727  0.00  0.00    +0.000 A 
ATOM     15  C   UNL     1     110.744 125.773 136.004  0.00  0.00    +0.000 A 
ATOM     16  C   UNL     1     110.149 125.576 134.721  0.00  0.00    +0.000 A 
ATOM     17  C   UNL     1     110.584 125.285 135.359  0.00  0.00    +0.000 A 
BRANCH  13  18
ATOM     18  O   UNL     1     110.631 127.039 136.657  0.00  0.00    +0.000 OA
ATOM     19  C   UNL     1     111.342 126.959 137.068  0.00  0.00    +0.000 C 
ENDBRANCH  13  18
BRANCH  15  20
ATOM     20  O   UNL     1     111.179 125.483 136.643  0.00  0.00    +0.000 OA
ATOM     21  C   UNL     1     111.407 124.690 136.660  0.00  0.00    +0.000 C 
ENDBRANCH  15  20
ENDBRANCH   3  12
BRANCH   8  22
ATOM     22  O   UNL     1     108.187 130.152 135.747  0.00  0.00    +0.000 OA
ATOM     23  C   UNL     1     107.975 130.934 135.903  0.00  0.00    +0.000 C 
ENDBRANCH   8  22
TORSDOF 4
ENDMDL
MODEL 10
REMARK VINA RESULT:      -7.2      1.736      4.388
REMARK  Name = 45933925
REMARK  4 active torsions:
REMARK  status: ('A' for Active; 'I' for Inactive)
REMARK    1  A    between atoms: O_2  and  C_12
REMARK    2  A    between atoms: O_4  and  C_14
REMARK    3  A    between atoms: O_5  and  C_16
REMARK    4  A    between atoms: C_6  and  C_8
REMARK                            x       y       z     vdW  Elec       q    Type
REMARK                         _______ _______ _______ _____ _____    ______ ____
ROOT
ATOM      1  O   UNL     1     113.610 126.299 139.132  0.00  0.00    +0.000 OA
ATOM      2  O   UNL     1     112.998 128.506 138.194  0.00  0.00    +0.000 OA
ATOM      3  C   UNL     1     113.408 126.367 138.334  0.00  0.00    +0.000 C 
ATOM      4  C   UNL     1     113.204 127.103 138.021  0.00  0.00    +0.000 C 
ATOM      5  C   UNL     1     113.403 127.702 139.303  0.00  0.00    +0.000 A 
ATOM      6  C   UNL     1     113.202 127.770 138.507  0.00  0.00    +0.000 C 
ATOM      7  C   UNL     1     113.607 126.967 139.616  0.00  0.00    +0.000 A 
ATOM      8  C   UNL     1     113.396 128.405 139.798  0.00  0.00    +0.000 A 
ATOM      9  C   UNL     1     113.818 126.883 140.445  0.00  0.00    +0.000 A 
ATOM     10  C   UNL     1     113.604 128.340 140.629  0.00  0.00    +0.000 A 
ATOM     11  C   UNL     1     113.817 127.574 140.954  0.00  0.00    +0.000 A 
ENDROOT
BRANCH   3  12
ATOM     12  C   UNL     1     113.411 125.699 137.850  0.00  0.00    +0.000 A 
ATOM     13  C   UNL     1     112.732 125.236 137.780  0.00  0.00    +0.000 A 
ATOM     14  C   UNL     1     114.095 125.495 137.434  0.00  0.00    +0.000 A 
ATOM     15  C   UNL     1     112.737 124.568 137.296  0.00  0.00    +0.000 A 
ATOM     16  C   UNL     1     114.098 124.827 136.950  0.00  0.00    +0.000 A 
ATOM     17  C   UNL     1     113.419 124.364 136.881  0.00  0.00    +0.000 A 
BRANCH  13  18
ATOM     18  O   UNL     1     112.050 125.441 138.195  0.00  0.00    +0.000 OA
ATOM     19  C   UNL     1     111.308 125.297 137.865  0.00  0.00    +0.000 C 
ENDBRANCH  13  18
BRANCH  15  20
ATOM     20  O   UNL     1     112.057 124.105 137.226  0.00  0.00    +0.000 OA
ATOM     21  C   UNL     1     112.094 123.371 136.852  0.00  0.00    +0.000 C 
ENDBRANCH  15  20
ENDBRANCH   3  12
BRANCH   8  22
ATOM     22  O   UNL     1     113.191 129.137 139.477  0.00  0.00    +0.000 OA
ATOM     23  C   UNL     1     113.204 129.813 139.950  0.00  0.00    +0.000 C 
ENDBRANCH   8  22
TORSDOF 4
ENDMDL
