MODEL 1
REMARK VINA RESULT:      -9.0      0.000      0.000
REMARK  Name = 44258411
REMARK  8 active torsions:
REMARK  status: ('A' for Active; 'I' for Inactive)
REMARK    1  A    between atoms: O_2  and  C_18
REMARK    2  A    between atoms: O_2  and  C_20
REMARK    3  A    between atoms: O_6  and  C_19
REMARK    4  A    between atoms: O_6  and  C_24
REMARK    5  A    between atoms: C_16  and  C_19
REMARK    6  A    between atoms: C_24  and  C_27
REMARK    7  A    between atoms: C_27  and  C_32
REMARK    8  A    between atoms: C_29  and  C_31
REMARK                            x       y       z     vdW  Elec       q    Type
REMARK                         _______ _______ _______ _____ _____    ______ ____
ROOT
ATOM      1  O   UNL     1     111.038 125.950 136.867  0.00  0.00    +0.000 OA
ATOM      2  O   UNL     1     108.535 128.028 136.135  0.00  0.00    +0.000 OA
ATOM      3  O   UNL     1     108.997 126.882 135.040  0.00  0.00    +0.000 OA
ATOM      4  O   UNL     1     109.841 125.781 134.643  0.00  0.00    +0.000 OA
ATOM      5  C   UNL     1     109.543 127.569 137.039  0.00  0.00    +0.000 A 
ATOM      6  C   UNL     1     110.162 127.053 137.217  0.00  0.00    +0.000 A 
ATOM      7  C   UNL     1     109.155 127.512 136.313  0.00  0.00    +0.000 A 
ATOM      8  C   UNL     1     110.393 126.481 136.670  0.00  0.00    +0.000 A 
ATOM      9  C   UNL     1     110.004 126.424 135.944  0.00  0.00    +0.000 A 
ATOM     10  C   UNL     1     109.385 126.939 135.766  0.00  0.00    +0.000 A 
ATOM     11  C   UNL     1     110.235 125.832 135.366  0.00  0.00    +0.000 A 
ATOM     12  C   UNL     1     111.283 125.351 136.302  0.00  0.00    +0.000 A 
ATOM     13  C   UNL     1     110.879 125.292 135.546  0.00  0.00    +0.000 A 
ENDROOT
BRANCH  12  14
ATOM     14  C   UNL     1     111.903 124.837 136.483  0.00  0.00    +0.000 A 
ATOM     15  C   UNL     1     111.742 124.054 136.688  0.00  0.00    +0.000 A 
ATOM     16  C   UNL     1     112.682 125.106 136.458  0.00  0.00    +0.000 A 
ATOM     17  C   UNL     1     112.361 123.540 136.869  0.00  0.00    +0.000 A 
ATOM     18  C   UNL     1     113.302 124.592 136.639  0.00  0.00    +0.000 A 
ATOM     19  C   UNL     1     113.141 123.810 136.844  0.00  0.00    +0.000 A 
ENDBRANCH  12  14
BRANCH   5  20
ATOM     20  O   UNL     1     109.312 128.142 137.586  0.00  0.00    +0.000 OA
BRANCH  20  29
ATOM     21  O   UNL     1     110.484 128.957 137.516  0.00  0.00    +0.000 OA
ATOM     22  O   UNL     1     111.588 130.010 139.077  0.00  0.00    +0.000 OA
ATOM     23  O   UNL     1     110.382 129.314 139.963  0.00  0.00    +0.000 OA
ATOM     24  O   UNL     1     109.244 128.380 139.218  0.00  0.00    +0.000 OA
ATOM     25  C   UNL     1     111.018 129.543 138.704  0.00  0.00    +0.000 C 
ATOM     26  C   UNL     1     110.416 129.195 139.147  0.00  0.00    +0.000 C 
ATOM     27  C   UNL     1     111.052 129.423 137.889  0.00  0.00    +0.000 C 
ATOM     28  C   UNL     1     109.846 128.728 138.774  0.00  0.00    +0.000 C 
ATOM     29  C   UNL     1     109.881 128.609 137.959  0.00  0.00    +0.000 C 
BRANCH  27  30
ATOM     30  C   UNL     1     111.656 129.772 137.446  0.00  0.00    +0.000 C 
BRANCH  30  31
ATOM     31  O   UNL     1     111.722 129.611 136.640  0.00  0.00    +0.000 OA
BRANCH  31  33
ATOM     32  O   UNL     1     112.696 130.571 136.226  0.00  0.00    +0.000 OA
ATOM     33  C   UNL     1     112.419 129.794 136.239  0.00  0.00    +0.000 C 
BRANCH  33  34
ATOM     34  C   UNL     1     112.840 129.201 135.850  0.00  0.00    +0.000 C 
BRANCH  34  37
ATOM     35  O   UNL     1     112.257 128.782 134.614  0.00  0.00    +0.000 OA
ATOM     36  O   UNL     1     113.463 129.548 134.612  0.00  0.00    +0.000 OA
ATOM     37  C   UNL     1     112.853 129.177 135.026  0.00  0.00    +0.000 C 
ENDBRANCH  34  37
ENDBRANCH  33  34
ENDBRANCH  31  33
ENDBRANCH  30  31
ENDBRANCH  27  30
ENDBRANCH  20  29
ENDBRANCH   5  20
TORSDOF 8
ENDMDL
MODEL 2
REMARK VINA RESULT:      -8.8      2.341      3.970
REMARK  Name = 44258411
REMARK  8 active torsions:
REMARK  status: ('A' for Active; 'I' for Inactive)
REMARK    1  A    between atoms: O_2  and  C_18
REMARK    2  A    between atoms: O_2  and  C_20
REMARK    3  A    between atoms: O_6  and  C_19
REMARK    4  A    between atoms: O_6  and  C_24
REMARK    5  A    between atoms: C_16  and  C_19
REMARK    6  A    between atoms: C_24  and  C_27
REMARK    7  A    between atoms: C_27  and  C_32
REMARK    8  A    between atoms: C_29  and  C_31
REMARK                            x       y       z     vdW  Elec       q    Type
REMARK                         _______ _______ _______ _____ _____    ______ ____
ROOT
ATOM      1  O   UNL     1     113.510 127.325 137.367  0.00  0.00    +0.000 OA
ATOM      2  O   UNL     1     111.257 129.778 137.516  0.00  0.00    +0.000 OA
ATOM      3  O   UNL     1     110.868 128.352 136.782  0.00  0.00    +0.000 OA
ATOM      4  O   UNL     1     111.207 127.014 136.361  0.00  0.00    +0.000 OA
ATOM      5  C   UNL     1     112.562 129.273 137.806  0.00  0.00    +0.000 A 
ATOM      6  C   UNL     1     113.118 128.664 137.767  0.00  0.00    +0.000 A 
ATOM      7  C   UNL     1     111.813 129.169 137.477  0.00  0.00    +0.000 A 
ATOM      8  C   UNL     1     112.923 127.951 137.400  0.00  0.00    +0.000 A 
ATOM      9  C   UNL     1     112.173 127.847 137.072  0.00  0.00    +0.000 A 
ATOM     10  C   UNL     1     111.618 128.456 137.111  0.00  0.00    +0.000 A 
ATOM     11  C   UNL     1     111.959 127.110 136.687  0.00  0.00    +0.000 A 
ATOM     12  C   UNL     1     113.314 126.580 136.986  0.00  0.00    +0.000 A 
ATOM     13  C   UNL     1     112.533 126.471 136.644  0.00  0.00    +0.000 A 
ENDROOT
BRANCH  12  14
ATOM     14  C   UNL     1     113.871 125.973 136.949  0.00  0.00    +0.000 A 
ATOM     15  C   UNL     1     114.388 125.926 136.308  0.00  0.00    +0.000 A 
ATOM     16  C   UNL     1     113.911 125.412 137.553  0.00  0.00    +0.000 A 
ATOM     17  C   UNL     1     114.945 125.318 136.270  0.00  0.00    +0.000 A 
ATOM     18  C   UNL     1     114.468 124.805 137.517  0.00  0.00    +0.000 A 
ATOM     19  C   UNL     1     114.985 124.758 136.875  0.00  0.00    +0.000 A 
ENDBRANCH  12  14
BRANCH   5  20
ATOM     20  O   UNL     1     112.756 129.986 138.173  0.00  0.00    +0.000 OA
BRANCH  20  29
ATOM     21  O   UNL     1     112.800 129.487 139.511  0.00  0.00    +0.000 OA
ATOM     22  O   UNL     1     114.124 129.977 141.176  0.00  0.00    +0.000 OA
ATOM     23  O   UNL     1     114.720 130.970 140.001  0.00  0.00    +0.000 OA
ATOM     24  O   UNL     1     114.036 130.975 138.500  0.00  0.00    +0.000 OA
ATOM     25  C   UNL     1     113.782 129.979 140.425  0.00  0.00    +0.000 C 
ATOM     26  C   UNL     1     114.080 130.476 139.838  0.00  0.00    +0.000 C 
ATOM     27  C   UNL     1     113.142 129.485 140.261  0.00  0.00    +0.000 C 
ATOM     28  C   UNL     1     113.738 130.478 139.086  0.00  0.00    +0.000 C 
ATOM     29  C   UNL     1     113.098 129.984 138.923  0.00  0.00    +0.000 C 
BRANCH  27  30
ATOM     30  C   UNL     1     112.845 128.988 140.849  0.00  0.00    +0.000 C 
BRANCH  30  31
ATOM     31  O   UNL     1     112.362 128.351 140.647  0.00  0.00    +0.000 OA
BRANCH  31  33
ATOM     32  O   UNL     1     111.794 128.027 141.917  0.00  0.00    +0.000 OA
ATOM     33  C   UNL     1     112.158 127.789 141.216  0.00  0.00    +0.000 C 
BRANCH  33  34
ATOM     34  C   UNL     1     112.317 126.991 141.085  0.00  0.00    +0.000 C 
BRANCH  34  37
ATOM     35  O   UNL     1     111.581 126.236 140.120  0.00  0.00    +0.000 OA
ATOM     36  O   UNL     1     111.209 126.191 141.499  0.00  0.00    +0.000 OA
ATOM     37  C   UNL     1     111.703 126.473 140.901  0.00  0.00    +0.000 C 
ENDBRANCH  34  37
ENDBRANCH  33  34
ENDBRANCH  31  33
ENDBRANCH  30  31
ENDBRANCH  27  30
ENDBRANCH  20  29
ENDBRANCH   5  20
TORSDOF 8
ENDMDL
MODEL 3
REMARK VINA RESULT:      -8.8      1.746      3.122
REMARK  Name = 44258411
REMARK  8 active torsions:
REMARK  status: ('A' for Active; 'I' for Inactive)
REMARK    1  A    between atoms: O_2  and  C_18
REMARK    2  A    between atoms: O_2  and  C_20
REMARK    3  A    between atoms: O_6  and  C_19
REMARK    4  A    between atoms: O_6  and  C_24
REMARK    5  A    between atoms: C_16  and  C_19
REMARK    6  A    between atoms: C_24  and  C_27
REMARK    7  A    between atoms: C_27  and  C_32
REMARK    8  A    between atoms: C_29  and  C_31
REMARK                            x       y       z     vdW  Elec       q    Type
REMARK                         _______ _______ _______ _____ _____    ______ ____
ROOT
ATOM      1  O   UNL     1     112.725 127.022 136.999  0.00  0.00    +0.000 OA
ATOM      2  O   UNL     1     111.733 130.122 136.278  0.00  0.00    +0.000 OA
ATOM      3  O   UNL     1     113.162 129.558 135.675  0.00  0.00    +0.000 OA
ATOM      4  O   UNL     1     114.150 128.515 135.533  0.00  0.00    +0.000 OA
ATOM      5  C   UNL     1     111.515 128.871 136.932  0.00  0.00    +0.000 A 
ATOM      6  C   UNL     1     111.764 128.104 137.109  0.00  0.00    +0.000 A 
ATOM      7  C   UNL     1     111.982 129.355 136.455  0.00  0.00    +0.000 A 
ATOM      8  C   UNL     1     112.478 127.821 136.808  0.00  0.00    +0.000 A 
ATOM      9  C   UNL     1     112.944 128.307 136.330  0.00  0.00    +0.000 A 
ATOM     10  C   UNL     1     112.696 129.073 136.153  0.00  0.00    +0.000 A 
ATOM     11  C   UNL     1     113.689 128.024 136.010  0.00  0.00    +0.000 A 
ATOM     12  C   UNL     1     113.468 126.722 136.688  0.00  0.00    +0.000 A 
ATOM     13  C   UNL     1     113.954 127.226 136.190  0.00  0.00    +0.000 A 
ENDROOT
BRANCH  12  14
ATOM     14  C   UNL     1     113.713 125.954 136.867  0.00  0.00    +0.000 A 
ATOM     15  C   UNL     1     114.301 125.830 137.433  0.00  0.00    +0.000 A 
ATOM     16  C   UNL     1     113.372 125.311 136.479  0.00  0.00    +0.000 A 
ATOM     17  C   UNL     1     114.546 125.063 137.611  0.00  0.00    +0.000 A 
ATOM     18  C   UNL     1     113.617 124.544 136.656  0.00  0.00    +0.000 A 
ATOM     19  C   UNL     1     114.204 124.420 137.222  0.00  0.00    +0.000 A 
ENDBRANCH  12  14
BRANCH   5  20
ATOM     20  O   UNL     1     110.801 129.153 137.234  0.00  0.00    +0.000 OA
BRANCH  20  29
ATOM     21  O   UNL     1     111.261 129.437 138.557  0.00  0.00    +0.000 OA
ATOM     22  O   UNL     1     110.284 129.189 140.493  0.00  0.00    +0.000 OA
ATOM     23  O   UNL     1     109.107 128.639 139.477  0.00  0.00    +0.000 OA
ATOM     24  O   UNL     1     109.365 128.621 137.847  0.00  0.00    +0.000 OA
ATOM     25  C   UNL     1     110.414 129.180 139.678  0.00  0.00    +0.000 C 
ATOM     26  C   UNL     1     109.825 128.905 139.170  0.00  0.00    +0.000 C 
ATOM     27  C   UNL     1     111.132 129.446 139.371  0.00  0.00    +0.000 C 
ATOM     28  C   UNL     1     109.954 128.896 138.355  0.00  0.00    +0.000 C 
ATOM     29  C   UNL     1     110.672 129.162 138.048  0.00  0.00    +0.000 C 
BRANCH  27  30
ATOM     30  C   UNL     1     111.721 129.721 139.880  0.00  0.00    +0.000 C 
BRANCH  30  31
ATOM     31  O   UNL     1     112.369 130.132 139.578  0.00  0.00    +0.000 OA
BRANCH  31  33
ATOM     32  O   UNL     1     112.910 130.715 140.764  0.00  0.00    +0.000 OA
ATOM     33  C   UNL     1     113.016 130.295 140.062  0.00  0.00    +0.000 C 
BRANCH  33  34
ATOM     34  C   UNL     1     113.769 130.040 139.844  0.00  0.00    +0.000 C 
BRANCH  34  37
ATOM     35  O   UNL     1     114.720 131.080 140.082  0.00  0.00    +0.000 OA
ATOM     36  O   UNL     1     114.477 130.625 138.750  0.00  0.00    +0.000 OA
ATOM     37  C   UNL     1     114.322 130.582 139.559  0.00  0.00    +0.000 C 
ENDBRANCH  34  37
ENDBRANCH  33  34
ENDBRANCH  31  33
ENDBRANCH  30  31
ENDBRANCH  27  30
ENDBRANCH  20  29
ENDBRANCH   5  20
TORSDOF 8
ENDMDL
MODEL 4
REMARK VINA RESULT:      -8.8      1.969      3.127
REMARK  Name = 44258411
REMARK  8 active torsions:
REMARK  status: ('A' for Active; 'I' for Inactive)
REMARK    1  A    between atoms: O_2  and  C_18
REMARK    2  A    between atoms: O_2  and  C_20
REMARK    3  A    between atoms: O_6  and  C_19
REMARK    4  A    between atoms: O_6  and  C_24
REMARK    5  A    between atoms: C_16  and  C_19
REMARK    6  A    between atoms: C_24  and  C_27
REMARK    7  A    between atoms: C_27  and  C_32
REMARK    8  A    between atoms: C_29  and  C_31
REMARK                            x       y       z     vdW  Elec       q    Type
REMARK                         _______ _______ _______ _____ _____    ______ ____
ROOT
ATOM      1  O   UNL     1     111.730 126.648 137.053  0.00  0.00    +0.000 OA
ATOM      2  O   UNL     1     114.031 126.644 139.466  0.00  0.00    +0.000 OA
ATOM      3  O   UNL     1     114.142 125.562 138.225  0.00  0.00    +0.000 OA
ATOM      4  O   UNL     1     113.647 124.996 136.993  0.00  0.00    +0.000 OA
ATOM      5  C   UNL     1     112.839 127.183 138.889  0.00  0.00    +0.000 A 
ATOM      6  C   UNL     1     112.271 127.181 138.290  0.00  0.00    +0.000 A 
ATOM      7  C   UNL     1     113.463 126.643 138.867  0.00  0.00    +0.000 A 
ATOM      8  C   UNL     1     112.327 126.640 137.670  0.00  0.00    +0.000 A 
ATOM      9  C   UNL     1     112.951 126.100 137.648  0.00  0.00    +0.000 A 
ATOM     10  C   UNL     1     113.518 126.102 138.246  0.00  0.00    +0.000 A 
ATOM     11  C   UNL     1     113.020 125.532 137.008  0.00  0.00    +0.000 A 
ATOM     12  C   UNL     1     111.782 126.088 136.404  0.00  0.00    +0.000 A 
ATOM     13  C   UNL     1     112.431 125.525 136.381  0.00  0.00    +0.000 A 
ENDROOT
BRANCH  12  14
ATOM     14  C   UNL     1     111.213 126.089 135.807  0.00  0.00    +0.000 A 
ATOM     15  C   UNL     1     111.187 126.708 135.262  0.00  0.00    +0.000 A 
ATOM     16  C   UNL     1     110.669 125.471 135.754  0.00  0.00    +0.000 A 
ATOM     17  C   UNL     1     110.618 126.709 134.665  0.00  0.00    +0.000 A 
ATOM     18  C   UNL     1     110.100 125.471 135.158  0.00  0.00    +0.000 A 
ATOM     19  C   UNL     1     110.074 126.090 134.613  0.00  0.00    +0.000 A 
ENDBRANCH  12  14
BRANCH   5  20
ATOM     20  O   UNL     1     112.784 127.724 139.509  0.00  0.00    +0.000 OA
BRANCH  20  29
ATOM     21  O   UNL     1     113.085 128.892 138.744  0.00  0.00    +0.000 OA
ATOM     22  O   UNL     1     112.300 130.924 138.868  0.00  0.00    +0.000 OA
ATOM     23  O   UNL     1     111.454 130.189 140.079  0.00  0.00    +0.000 OA
ATOM     24  O   UNL     1     111.696 128.588 140.400  0.00  0.00    +0.000 OA
ATOM     25  C   UNL     1     112.421 130.124 139.029  0.00  0.00    +0.000 C 
ATOM     26  C   UNL     1     111.998 129.756 139.634  0.00  0.00    +0.000 C 
ATOM     27  C   UNL     1     112.965 129.691 138.583  0.00  0.00    +0.000 C 
ATOM     28  C   UNL     1     112.119 128.955 139.794  0.00  0.00    +0.000 C 
ATOM     29  C   UNL     1     112.663 128.523 139.349  0.00  0.00    +0.000 C 
BRANCH  27  30
ATOM     30  C   UNL     1     113.387 130.060 137.978  0.00  0.00    +0.000 C 
BRANCH  30  31
ATOM     31  O   UNL     1     113.778 129.606 137.411  0.00  0.00    +0.000 OA
BRANCH  31  33
ATOM     32  O   UNL     1     114.594 130.597 136.784  0.00  0.00    +0.000 OA
ATOM     33  C   UNL     1     114.070 129.962 136.727  0.00  0.00    +0.000 C 
BRANCH  33  34
ATOM     34  C   UNL     1     113.839 129.684 135.986  0.00  0.00    +0.000 C 
BRANCH  34  37
ATOM     35  O   UNL     1     114.896 129.753 135.026  0.00  0.00    +0.000 OA
ATOM     36  O   UNL     1     114.426 128.483 135.481  0.00  0.00    +0.000 OA
ATOM     37  C   UNL     1     114.387 129.307 135.498  0.00  0.00    +0.000 C 
ENDBRANCH  34  37
ENDBRANCH  33  34
ENDBRANCH  31  33
ENDBRANCH  30  31
ENDBRANCH  27  30
ENDBRANCH  20  29
ENDBRANCH   5  20
TORSDOF 8
ENDMDL
MODEL 5
REMARK VINA RESULT:      -8.8      2.546      5.159
REMARK  Name = 44258411
REMARK  8 active torsions:
REMARK  status: ('A' for Active; 'I' for Inactive)
REMARK    1  A    between atoms: O_2  and  C_18
REMARK    2  A    between atoms: O_2  and  C_20
REMARK    3  A    between atoms: O_6  and  C_19
REMARK    4  A    between atoms: O_6  and  C_24
REMARK    5  A    between atoms: C_16  and  C_19
REMARK    6  A    between atoms: C_24  and  C_27
REMARK    7  A    between atoms: C_27  and  C_32
REMARK    8  A    between atoms: C_29  and  C_31
REMARK                            x       y       z     vdW  Elec       q    Type
REMARK                         _______ _______ _______ _____ _____    ______ ____
ROOT
ATOM      1  O   UNL     1     112.904 130.873 136.411  0.00  0.00    +0.000 OA
ATOM      2  O   UNL     1     110.627 131.507 138.763  0.00  0.00    +0.000 OA
ATOM      3  O   UNL     1     111.958 130.603 139.133  0.00  0.00    +0.000 OA
ATOM      4  O   UNL     1     113.204 129.977 138.760  0.00  0.00    +0.000 OA
ATOM      5  C   UNL     1     111.092 131.641 137.419  0.00  0.00    +0.000 A 
ATOM      6  C   UNL     1     111.658 131.483 136.838  0.00  0.00    +0.000 A 
ATOM      7  C   UNL     1     111.193 131.348 138.183  0.00  0.00    +0.000 A 
ATOM      8  C   UNL     1     112.323 131.031 137.023  0.00  0.00    +0.000 A 
ATOM      9  C   UNL     1     112.423 130.738 137.788  0.00  0.00    +0.000 A 
ATOM     10  C   UNL     1     111.858 130.896 138.368  0.00  0.00    +0.000 A 
ATOM     11  C   UNL     1     113.111 130.267 137.993  0.00  0.00    +0.000 A 
ATOM     12  C   UNL     1     113.599 130.403 136.597  0.00  0.00    +0.000 A 
ATOM     13  C   UNL     1     113.704 130.098 137.394  0.00  0.00    +0.000 A 
ENDROOT
BRANCH  12  14
ATOM     14  C   UNL     1     114.163 130.246 136.016  0.00  0.00    +0.000 A 
ATOM     15  C   UNL     1     114.779 130.778 135.884  0.00  0.00    +0.000 A 
ATOM     16  C   UNL     1     114.110 129.557 135.565  0.00  0.00    +0.000 A 
ATOM     17  C   UNL     1     115.343 130.621 135.302  0.00  0.00    +0.000 A 
ATOM     18  C   UNL     1     114.673 129.399 134.984  0.00  0.00    +0.000 A 
ATOM     19  C   UNL     1     115.289 129.931 134.852  0.00  0.00    +0.000 A 
ENDBRANCH  12  14
BRANCH   5  20
ATOM     20  O   UNL     1     110.427 132.093 137.234  0.00  0.00    +0.000 OA
BRANCH  20  29
ATOM     21  O   UNL     1     109.705 131.122 136.473  0.00  0.00    +0.000 OA
ATOM     22  O   UNL     1     108.580 131.313 134.612  0.00  0.00    +0.000 OA
ATOM     23  O   UNL     1     109.100 132.865 134.823  0.00  0.00    +0.000 OA
ATOM     24  O   UNL     1     110.024 133.255 136.134  0.00  0.00    +0.000 OA
ATOM     25  C   UNL     1     109.042 131.508 135.268  0.00  0.00    +0.000 C 
ATOM     26  C   UNL     1     109.302 132.284 135.373  0.00  0.00    +0.000 C 
ATOM     27  C   UNL     1     109.244 130.927 135.818  0.00  0.00    +0.000 C 
ATOM     28  C   UNL     1     109.764 132.479 136.029  0.00  0.00    +0.000 C 
ATOM     29  C   UNL     1     109.966 131.898 136.579  0.00  0.00    +0.000 C 
BRANCH  27  30
ATOM     30  C   UNL     1     108.984 130.151 135.712  0.00  0.00    +0.000 C 
BRANCH  30  31
ATOM     31  O   UNL     1     109.076 129.599 136.316  0.00  0.00    +0.000 OA
BRANCH  31  33
ATOM     32  O   UNL     1     108.132 128.614 135.893  0.00  0.00    +0.000 OA
ATOM     33  C   UNL     1     108.878 128.808 136.188  0.00  0.00    +0.000 C 
BRANCH  33  34
ATOM     34  C   UNL     1     109.423 128.213 136.354  0.00  0.00    +0.000 C 
BRANCH  34  37
ATOM     35  O   UNL     1     109.495 127.729 137.696  0.00  0.00    +0.000 OA
ATOM     36  O   UNL     1     108.819 126.964 136.696  0.00  0.00    +0.000 OA
ATOM     37  C   UNL     1     109.246 127.636 136.915  0.00  0.00    +0.000 C 
ENDBRANCH  34  37
ENDBRANCH  33  34
ENDBRANCH  31  33
ENDBRANCH  30  31
ENDBRANCH  27  30
ENDBRANCH  20  29
ENDBRANCH   5  20
TORSDOF 8
ENDMDL
MODEL 6
REMARK VINA RESULT:      -8.7      6.681      9.337
REMARK  Name = 44258411
REMARK  8 active torsions:
REMARK  status: ('A' for Active; 'I' for Inactive)
REMARK    1  A    between atoms: O_2  and  C_18
REMARK    2  A    between atoms: O_2  and  C_20
REMARK    3  A    between atoms: O_6  and  C_19
REMARK    4  A    between atoms: O_6  and  C_24
REMARK    5  A    between atoms: C_16  and  C_19
REMARK    6  A    between atoms: C_24  and  C_27
REMARK    7  A    between atoms: C_27  and  C_32
REMARK    8  A    between atoms: C_29  and  C_31
REMARK                            x       y       z     vdW  Elec       q    Type
REMARK                         _______ _______ _______ _____ _____    ______ ____
ROOT
ATOM      1  O   UNL     1     102.906 130.426 142.114  0.00  0.00    +0.000 OA
ATOM      2  O   UNL     1     104.706 127.710 141.405  0.00  0.00    +0.000 OA
ATOM      3  O   UNL     1     103.666 128.321 140.279  0.00  0.00    +0.000 OA
ATOM      4  O   UNL     1     102.687 129.295 139.860  0.00  0.00    +0.000 OA
ATOM      5  C   UNL     1     104.332 128.748 142.313  0.00  0.00    +0.000 A 
ATOM      6  C   UNL     1     103.885 129.421 142.486  0.00  0.00    +0.000 A 
ATOM      7  C   UNL     1     104.258 128.383 141.578  0.00  0.00    +0.000 A 
ATOM      8  C   UNL     1     103.365 129.726 141.923  0.00  0.00    +0.000 A 
ATOM      9  C   UNL     1     103.292 129.359 141.187  0.00  0.00    +0.000 A 
ATOM     10  C   UNL     1     103.738 128.688 141.015  0.00  0.00    +0.000 A 
ATOM     11  C   UNL     1     102.754 129.668 140.593  0.00  0.00    +0.000 A 
ATOM     12  C   UNL     1     102.363 130.749 141.532  0.00  0.00    +0.000 A 
ATOM     13  C   UNL     1     102.286 130.368 140.766  0.00  0.00    +0.000 A 
ENDROOT
BRANCH  12  14
ATOM     14  C   UNL     1     101.917 131.421 141.708  0.00  0.00    +0.000 A 
ATOM     15  C   UNL     1     101.162 131.343 142.031  0.00  0.00    +0.000 A 
ATOM     16  C   UNL     1     102.227 132.171 141.560  0.00  0.00    +0.000 A 
ATOM     17  C   UNL     1     100.717 132.015 142.206  0.00  0.00    +0.000 A 
ATOM     18  C   UNL     1     101.782 132.843 141.735  0.00  0.00    +0.000 A 
ATOM     19  C   UNL     1     101.027 132.765 142.058  0.00  0.00    +0.000 A 
ENDBRANCH  12  14
BRANCH   5  20
ATOM     20  O   UNL     1     104.852 128.443 142.876  0.00  0.00    +0.000 OA
BRANCH  20  29
ATOM     21  O   UNL     1     105.893 129.417 142.778  0.00  0.00    +0.000 OA
ATOM     22  O   UNL     1     107.063 130.420 144.324  0.00  0.00    +0.000 OA
ATOM     23  O   UNL     1     106.087 129.460 145.245  0.00  0.00    +0.000 OA
ATOM     24  O   UNL     1     104.981 128.471 144.521  0.00  0.00    +0.000 OA
ATOM     25  C   UNL     1     106.510 129.925 143.962  0.00  0.00    +0.000 C 
ATOM     26  C   UNL     1     106.022 129.445 144.422  0.00  0.00    +0.000 C 
ATOM     27  C   UNL     1     106.445 129.911 143.139  0.00  0.00    +0.000 C 
ATOM     28  C   UNL     1     105.469 128.951 144.060  0.00  0.00    +0.000 C 
ATOM     29  C   UNL     1     105.405 128.937 143.238  0.00  0.00    +0.000 C 
BRANCH  27  30
ATOM     30  C   UNL     1     106.934 130.391 142.679  0.00  0.00    +0.000 C 
BRANCH  30  31
ATOM     31  O   UNL     1     107.213 130.121 141.952  0.00  0.00    +0.000 OA
BRANCH  31  33
ATOM     32  O   UNL     1     107.396 131.390 141.321  0.00  0.00    +0.000 OA
ATOM     33  C   UNL     1     107.656 130.621 141.468  0.00  0.00    +0.000 C 
BRANCH  33  34
ATOM     34  C   UNL     1     108.359 130.352 141.130  0.00  0.00    +0.000 C 
BRANCH  34  37
ATOM     35  O   UNL     1     109.049 131.192 140.202  0.00  0.00    +0.000 OA
ATOM     36  O   UNL     1     108.234 130.119 139.727  0.00  0.00    +0.000 OA
ATOM     37  C   UNL     1     108.547 130.554 140.354  0.00  0.00    +0.000 C 
ENDBRANCH  34  37
ENDBRANCH  33  34
ENDBRANCH  31  33
ENDBRANCH  30  31
ENDBRANCH  27  30
ENDBRANCH  20  29
ENDBRANCH   5  20
TORSDOF 8
ENDMDL
MODEL 7
REMARK VINA RESULT:      -8.7      1.917      3.254
REMARK  Name = 44258411
REMARK  8 active torsions:
REMARK  status: ('A' for Active; 'I' for Inactive)
REMARK    1  A    between atoms: O_2  and  C_18
REMARK    2  A    between atoms: O_2  and  C_20
REMARK    3  A    between atoms: O_6  and  C_19
REMARK    4  A    between atoms: O_6  and  C_24
REMARK    5  A    between atoms: C_16  and  C_19
REMARK    6  A    between atoms: C_24  and  C_27
REMARK    7  A    between atoms: C_27  and  C_32
REMARK    8  A    between atoms: C_29  and  C_31
REMARK                            x       y       z     vdW  Elec       q    Type
REMARK                         _______ _______ _______ _____ _____    ______ ____
ROOT
ATOM      1  O   UNL     1     112.985 126.959 138.094  0.00  0.00    +0.000 OA
ATOM      2  O   UNL     1     110.646 128.464 139.933  0.00  0.00    +0.000 OA
ATOM      3  O   UNL     1     110.614 126.824 139.748  0.00  0.00    +0.000 OA
ATOM      4  O   UNL     1     111.161 125.602 139.208  0.00  0.00    +0.000 OA
ATOM      5  C   UNL     1     111.817 128.533 139.117  0.00  0.00    +0.000 A 
ATOM      6  C   UNL     1     112.395 128.157 138.662  0.00  0.00    +0.000 A 
ATOM      7  C   UNL     1     111.224 128.088 139.478  0.00  0.00    +0.000 A 
ATOM      8  C   UNL     1     112.379 127.338 138.570  0.00  0.00    +0.000 A 
ATOM      9  C   UNL     1     111.785 126.894 138.932  0.00  0.00    +0.000 A 
ATOM     10  C   UNL     1     111.208 127.268 139.386  0.00  0.00    +0.000 A 
ATOM     11  C   UNL     1     111.758 126.040 138.843  0.00  0.00    +0.000 A 
ATOM     12  C   UNL     1     112.974 126.106 137.994  0.00  0.00    +0.000 A 
ATOM     13  C   UNL     1     112.356 125.642 138.371  0.00  0.00    +0.000 A 
ENDROOT
BRANCH  12  14
ATOM     14  C   UNL     1     113.553 125.733 137.539  0.00  0.00    +0.000 A 
ATOM     15  C   UNL     1     114.202 125.380 137.906  0.00  0.00    +0.000 A 
ATOM     16  C   UNL     1     113.483 125.714 136.717  0.00  0.00    +0.000 A 
ATOM     17  C   UNL     1     114.781 125.008 137.451  0.00  0.00    +0.000 A 
ATOM     18  C   UNL     1     114.060 125.341 136.262  0.00  0.00    +0.000 A 
ATOM     19  C   UNL     1     114.710 124.988 136.629  0.00  0.00    +0.000 A 
ENDBRANCH  12  14
BRANCH   5  20
ATOM     20  O   UNL     1     111.833 129.353 139.209  0.00  0.00    +0.000 OA
BRANCH  20  29
ATOM     21  O   UNL     1     111.253 129.723 137.957  0.00  0.00    +0.000 OA
ATOM     22  O   UNL     1     111.774 131.314 136.556  0.00  0.00    +0.000 OA
ATOM     23  O   UNL     1     112.903 131.554 137.735  0.00  0.00    +0.000 OA
ATOM     24  O   UNL     1     112.932 130.574 139.061  0.00  0.00    +0.000 OA
ATOM     25  C   UNL     1     111.788 130.823 137.220  0.00  0.00    +0.000 C 
ATOM     26  C   UNL     1     112.353 130.944 137.809  0.00  0.00    +0.000 C 
ATOM     27  C   UNL     1     111.238 130.212 137.294  0.00  0.00    +0.000 C 
ATOM     28  C   UNL     1     112.368 130.453 138.472  0.00  0.00    +0.000 C 
ATOM     29  C   UNL     1     111.818 129.842 138.546  0.00  0.00    +0.000 C 
BRANCH  27  30
ATOM     30  C   UNL     1     110.674 130.093 136.704  0.00  0.00    +0.000 C 
BRANCH  30  31
ATOM     31  O   UNL     1     110.068 129.546 136.817  0.00  0.00    +0.000 OA
BRANCH  31  33
ATOM     32  O   UNL     1     109.098 129.979 135.862  0.00  0.00    +0.000 OA
ATOM     33  C   UNL     1     109.545 129.375 136.202  0.00  0.00    +0.000 C 
BRANCH  33  34
ATOM     34  C   UNL     1     109.469 128.601 135.928  0.00  0.00    +0.000 C 
BRANCH  34  37
ATOM     35  O   UNL     1     108.088 128.304 135.707  0.00  0.00    +0.000 OA
ATOM     36  O   UNL     1     108.825 127.583 136.697  0.00  0.00    +0.000 OA
ATOM     37  C   UNL     1     108.794 128.163 136.111  0.00  0.00    +0.000 C 
ENDBRANCH  34  37
ENDBRANCH  33  34
ENDBRANCH  31  33
ENDBRANCH  30  31
ENDBRANCH  27  30
ENDBRANCH  20  29
ENDBRANCH   5  20
TORSDOF 8
ENDMDL
MODEL 8
REMARK VINA RESULT:      -8.7      1.310      3.033
REMARK  Name = 44258411
REMARK  8 active torsions:
REMARK  status: ('A' for Active; 'I' for Inactive)
REMARK    1  A    between atoms: O_2  and  C_18
REMARK    2  A    between atoms: O_2  and  C_20
REMARK    3  A    between atoms: O_6  and  C_19
REMARK    4  A    between atoms: O_6  and  C_24
REMARK    5  A    between atoms: C_16  and  C_19
REMARK    6  A    between atoms: C_24  and  C_27
REMARK    7  A    between atoms: C_27  and  C_32
REMARK    8  A    between atoms: C_29  and  C_31
REMARK                            x       y       z     vdW  Elec       q    Type
REMARK                         _______ _______ _______ _____ _____    ______ ____
ROOT
ATOM      1  O   UNL     1     112.498 126.408 136.329  0.00  0.00    +0.000 OA
ATOM      2  O   UNL     1     109.544 127.229 135.020  0.00  0.00    +0.000 OA
ATOM      3  O   UNL     1     109.923 125.641 135.255  0.00  0.00    +0.000 OA
ATOM      4  O   UNL     1     110.833 124.610 135.694  0.00  0.00    +0.000 OA
ATOM      5  C   UNL     1     110.815 127.611 135.550  0.00  0.00    +0.000 A 
ATOM      6  C   UNL     1     111.546 127.404 135.874  0.00  0.00    +0.000 A 
ATOM      7  C   UNL     1     110.275 127.022 135.344  0.00  0.00    +0.000 A 
ATOM      8  C   UNL     1     111.735 126.610 135.992  0.00  0.00    +0.000 A 
ATOM      9  C   UNL     1     111.194 126.022 135.785  0.00  0.00    +0.000 A 
ATOM     10  C   UNL     1     110.464 126.228 135.462  0.00  0.00    +0.000 A 
ATOM     11  C   UNL     1     111.379 125.192 135.903  0.00  0.00    +0.000 A 
ATOM     12  C   UNL     1     112.702 125.582 136.454  0.00  0.00    +0.000 A 
ATOM     13  C   UNL     1     112.139 124.970 136.240  0.00  0.00    +0.000 A 
ENDROOT
BRANCH  12  14
ATOM     14  C   UNL     1     113.433 125.379 136.778  0.00  0.00    +0.000 A 
ATOM     15  C   UNL     1     113.559 125.452 137.590  0.00  0.00    +0.000 A 
ATOM     16  C   UNL     1     114.037 125.102 136.290  0.00  0.00    +0.000 A 
ATOM     17  C   UNL     1     114.290 125.248 137.914  0.00  0.00    +0.000 A 
ATOM     18  C   UNL     1     114.768 124.899 136.613  0.00  0.00    +0.000 A 
ATOM     19  C   UNL     1     114.894 124.972 137.425  0.00  0.00    +0.000 A 
ENDBRANCH  12  14
BRANCH   5  20
ATOM     20  O   UNL     1     110.625 128.405 135.433  0.00  0.00    +0.000 OA
BRANCH  20  29
ATOM     21  O   UNL     1     110.383 128.749 136.798  0.00  0.00    +0.000 OA
ATOM     22  O   UNL     1     110.882 130.549 137.928  0.00  0.00    +0.000 OA
ATOM     23  O   UNL     1     111.494 130.932 136.445  0.00  0.00    +0.000 OA
ATOM     24  O   UNL     1     111.366 129.860 135.197  0.00  0.00    +0.000 OA
ATOM     25  C   UNL     1     110.818 130.012 137.304  0.00  0.00    +0.000 C 
ATOM     26  C   UNL     1     111.124 130.205 136.563  0.00  0.00    +0.000 C 
ATOM     27  C   UNL     1     110.447 129.285 137.422  0.00  0.00    +0.000 C 
ATOM     28  C   UNL     1     111.060 129.668 135.938  0.00  0.00    +0.000 C 
ATOM     29  C   UNL     1     110.689 128.940 136.056  0.00  0.00    +0.000 C 
BRANCH  27  30
ATOM     30  C   UNL     1     110.141 129.094 138.164  0.00  0.00    +0.000 C 
BRANCH  30  31
ATOM     31  O   UNL     1     109.870 128.330 138.314  0.00  0.00    +0.000 OA
BRANCH  31  33
ATOM     32  O   UNL     1     109.150 128.565 139.526  0.00  0.00    +0.000 OA
ATOM     33  C   UNL     1     109.673 128.105 139.084  0.00  0.00    +0.000 C 
BRANCH  33  34
ATOM     34  C   UNL     1     109.998 127.422 139.411  0.00  0.00    +0.000 C 
BRANCH  34  37
ATOM     35  O   UNL     1     109.739 126.094 138.950  0.00  0.00    +0.000 OA
ATOM     36  O   UNL     1     108.922 126.669 139.972  0.00  0.00    +0.000 OA
ATOM     37  C   UNL     1     109.553 126.729 139.444  0.00  0.00    +0.000 C 
ENDBRANCH  34  37
ENDBRANCH  33  34
ENDBRANCH  31  33
ENDBRANCH  30  31
ENDBRANCH  27  30
ENDBRANCH  20  29
ENDBRANCH   5  20
TORSDOF 8
ENDMDL
MODEL 9
REMARK VINA RESULT:      -8.6      1.543      4.858
REMARK  Name = 44258411
REMARK  8 active torsions:
REMARK  status: ('A' for Active; 'I' for Inactive)
REMARK    1  A    between atoms: O_2  and  C_18
REMARK    2  A    between atoms: O_2  and  C_20
REMARK    3  A    between atoms: O_6  and  C_19
REMARK    4  A    between atoms: O_6  and  C_24
REMARK    5  A    between atoms: C_16  and  C_19
REMARK    6  A    between atoms: C_24  and  C_27
REMARK    7  A    between atoms: C_27  and  C_32
REMARK    8  A    between atoms: C_29  and  C_31
REMARK                            x       y       z     vdW  Elec       q    Type
REMARK                         _______ _______ _______ _____ _____    ______ ____
ROOT
ATOM      1  O   UNL     1     113.472 128.684 136.694  0.00  0.00    +0.000 OA
ATOM      2  O   UNL     1     111.461 127.617 139.130  0.00  0.00    +0.000 OA
ATOM      3  O   UNL     1     111.764 129.231 138.965  0.00  0.00    +0.000 OA
ATOM      4  O   UNL     1     112.407 130.334 138.291  0.00  0.00    +0.000 OA
ATOM      5  C   UNL     1     112.304 127.344 138.009  0.00  0.00    +0.000 A 
ATOM      6  C   UNL     1     112.802 127.611 137.407  0.00  0.00    +0.000 A 
ATOM      7  C   UNL     1     111.959 127.884 138.528  0.00  0.00    +0.000 A 
ATOM      8  C   UNL     1     112.953 128.418 137.324  0.00  0.00    +0.000 A 
ATOM      9  C   UNL     1     112.607 128.958 137.844  0.00  0.00    +0.000 A 
ATOM     10  C   UNL     1     112.110 128.691 138.445  0.00  0.00    +0.000 A 
ATOM     11  C   UNL     1     112.757 129.800 137.768  0.00  0.00    +0.000 A 
ATOM     12  C   UNL     1     113.634 129.522 136.602  0.00  0.00    +0.000 A 
ATOM     13  C   UNL     1     113.274 130.085 137.143  0.00  0.00    +0.000 A 
ENDROOT
BRANCH  12  14
ATOM     14  C   UNL     1     114.132 129.786 135.999  0.00  0.00    +0.000 A 
ATOM     15  C   UNL     1     114.783 130.260 136.180  0.00  0.00    +0.000 A 
ATOM     16  C   UNL     1     113.979 129.577 135.216  0.00  0.00    +0.000 A 
ATOM     17  C   UNL     1     115.281 130.524 135.577  0.00  0.00    +0.000 A 
ATOM     18  C   UNL     1     114.476 129.840 134.613  0.00  0.00    +0.000 A 
ATOM     19  C   UNL     1     115.127 130.314 134.794  0.00  0.00    +0.000 A 
ENDBRANCH  12  14
BRANCH   5  20
ATOM     20  O   UNL     1     112.153 126.537 138.091  0.00  0.00    +0.000 OA
BRANCH  20  29
ATOM     21  O   UNL     1     111.150 126.421 137.079  0.00  0.00    +0.000 OA
ATOM     22  O   UNL     1     110.782 124.853 135.606  0.00  0.00    +0.000 OA
ATOM     23  O   UNL     1     112.101 124.243 136.388  0.00  0.00    +0.000 OA
ATOM     24  O   UNL     1     112.786 125.085 137.630  0.00  0.00    +0.000 OA
ATOM     25  C   UNL     1     111.125 125.275 136.228  0.00  0.00    +0.000 C 
ATOM     26  C   UNL     1     111.784 124.969 136.618  0.00  0.00    +0.000 C 
ATOM     27  C   UNL     1     110.808 126.001 136.459  0.00  0.00    +0.000 C 
ATOM     28  C   UNL     1     112.127 125.391 137.240  0.00  0.00    +0.000 C 
ATOM     29  C   UNL     1     111.810 126.117 137.471  0.00  0.00    +0.000 C 
BRANCH  27  30
ATOM     30  C   UNL     1     110.148 126.305 136.067  0.00  0.00    +0.000 C 
BRANCH  30  31
ATOM     31  O   UNL     1     109.725 126.932 136.397  0.00  0.00    +0.000 OA
BRANCH  31  33
ATOM     32  O   UNL     1     108.464 126.895 135.727  0.00  0.00    +0.000 OA
ATOM     33  C   UNL     1     109.139 127.310 135.957  0.00  0.00    +0.000 C 
BRANCH  33  34
ATOM     34  C   UNL     1     109.226 128.103 135.748  0.00  0.00    +0.000 C 
BRANCH  34  37
ATOM     35  O   UNL     1     108.966 129.066 136.772  0.00  0.00    +0.000 OA
ATOM     36  O   UNL     1     108.012 128.856 135.728  0.00  0.00    +0.000 OA
ATOM     37  C   UNL     1     108.735 128.675 136.083  0.00  0.00    +0.000 C 
ENDBRANCH  34  37
ENDBRANCH  33  34
ENDBRANCH  31  33
ENDBRANCH  30  31
ENDBRANCH  27  30
ENDBRANCH  20  29
ENDBRANCH   5  20
TORSDOF 8
ENDMDL
MODEL 10
REMARK VINA RESULT:      -8.6      2.331      3.891
REMARK  Name = 44258411
REMARK  8 active torsions:
REMARK  status: ('A' for Active; 'I' for Inactive)
REMARK    1  A    between atoms: O_2  and  C_18
REMARK    2  A    between atoms: O_2  and  C_20
REMARK    3  A    between atoms: O_6  and  C_19
REMARK    4  A    between atoms: O_6  and  C_24
REMARK    5  A    between atoms: C_16  and  C_19
REMARK    6  A    between atoms: C_24  and  C_27
REMARK    7  A    between atoms: C_27  and  C_32
REMARK    8  A    between atoms: C_29  and  C_31
REMARK                            x       y       z     vdW  Elec       q    Type
REMARK                         _______ _______ _______ _____ _____    ______ ____
ROOT
ATOM      1  O   UNL     1     112.725 126.842 137.804  0.00  0.00    +0.000 OA
ATOM      2  O   UNL     1     110.800 128.896 139.590  0.00  0.00    +0.000 OA
ATOM      3  O   UNL     1     111.114 127.375 140.148  0.00  0.00    +0.000 OA
ATOM      4  O   UNL     1     111.742 126.083 140.010  0.00  0.00    +0.000 OA
ATOM      5  C   UNL     1     111.595 128.636 138.432  0.00  0.00    +0.000 A 
ATOM      6  C   UNL     1     112.071 128.125 137.992  0.00  0.00    +0.000 A 
ATOM      7  C   UNL     1     111.276 128.385 139.150  0.00  0.00    +0.000 A 
ATOM      8  C   UNL     1     112.228 127.364 138.271  0.00  0.00    +0.000 A 
ATOM      9  C   UNL     1     111.909 127.115 138.990  0.00  0.00    +0.000 A 
ATOM     10  C   UNL     1     111.433 127.625 139.429  0.00  0.00    +0.000 A 
ATOM     11  C   UNL     1     112.065 126.325 139.290  0.00  0.00    +0.000 A 
ATOM     12  C   UNL     1     112.893 126.049 138.089  0.00  0.00    +0.000 A 
ATOM     13  C   UNL     1     112.560 125.788 138.837  0.00  0.00    +0.000 A 
ENDROOT
BRANCH  12  14
ATOM     14  C   UNL     1     113.369 125.541 137.647  0.00  0.00    +0.000 A 
ATOM     15  C   UNL     1     113.037 125.080 137.048  0.00  0.00    +0.000 A 
ATOM     16  C   UNL     1     114.178 125.493 137.803  0.00  0.00    +0.000 A 
ATOM     17  C   UNL     1     113.513 124.571 136.606  0.00  0.00    +0.000 A 
ATOM     18  C   UNL     1     114.654 124.985 137.362  0.00  0.00    +0.000 A 
ATOM     19  C   UNL     1     114.322 124.524 136.764  0.00  0.00    +0.000 A 
ENDBRANCH  12  14
BRANCH   5  20
ATOM     20  O   UNL     1     111.438 129.396 138.153  0.00  0.00    +0.000 OA
BRANCH  20  29
ATOM     21  O   UNL     1     112.712 129.985 138.419  0.00  0.00    +0.000 OA
ATOM     22  O   UNL     1     113.924 131.364 137.238  0.00  0.00    +0.000 OA
ATOM     23  O   UNL     1     112.619 131.169 136.248  0.00  0.00    +0.000 OA
ATOM     24  O   UNL     1     111.376 130.185 136.705  0.00  0.00    +0.000 OA
ATOM     25  C   UNL     1     113.302 130.871 137.467  0.00  0.00    +0.000 C 
ATOM     26  C   UNL     1     112.650 130.774 136.972  0.00  0.00    +0.000 C 
ATOM     27  C   UNL     1     113.333 130.477 138.191  0.00  0.00    +0.000 C 
ATOM     28  C   UNL     1     112.028 130.282 137.201  0.00  0.00    +0.000 C 
ATOM     29  C   UNL     1     112.059 129.887 137.925  0.00  0.00    +0.000 C 
BRANCH  27  30
ATOM     30  C   UNL     1     113.987 130.575 138.686  0.00  0.00    +0.000 C 
BRANCH  30  31
ATOM     31  O   UNL     1     113.878 130.722 139.489  0.00  0.00    +0.000 OA
BRANCH  31  33
ATOM     32  O   UNL     1     115.284 130.678 139.736  0.00  0.00    +0.000 OA
ATOM     33  C   UNL     1     114.509 130.639 140.014  0.00  0.00    +0.000 C 
BRANCH  33  34
ATOM     34  C   UNL     1     114.365 130.517 140.817  0.00  0.00    +0.000 C 
BRANCH  34  37
ATOM     35  O   UNL     1     113.842 131.445 141.769  0.00  0.00    +0.000 OA
ATOM     36  O   UNL     1     115.242 131.429 141.480  0.00  0.00    +0.000 OA
ATOM     37  C   UNL     1     114.483 131.130 141.355  0.00  0.00    +0.000 C 
ENDBRANCH  34  37
ENDBRANCH  33  34
ENDBRANCH  31  33
ENDBRANCH  30  31
ENDBRANCH  27  30
ENDBRANCH  20  29
ENDBRANCH   5  20
TORSDOF 8
ENDMDL
