MODEL 1
REMARK VINA RESULT:     -10.7      0.000      0.000
REMARK  Name = 44257159
REMARK  6 active torsions:
REMARK  status: ('A' for Active; 'I' for Inactive)
REMARK    1  A    between atoms: O_1  and  C_18
REMARK    2  A    between atoms: O_1  and  C_23
REMARK    3  A    between atoms: O_3  and  C_22
REMARK    4  A    between atoms: O_3  and  C_26
REMARK    5  A    between atoms: C_28  and  C_33
REMARK    6  A    between atoms: C_29  and  C_34
REMARK                            x       y       z     vdW  Elec       q    Type
REMARK                         _______ _______ _______ _____ _____    ______ ____
ROOT
ATOM      1  O   UNL     1     105.523 125.421 145.784  0.00  0.00    +0.000 OA
ENDROOT
BRANCH   1   6
ATOM      2  O   UNL     1     105.677 124.405 147.709  0.00  0.00    +0.000 OA
ATOM      3  O   UNL     1     107.071 125.798 146.212  0.00  0.00    +0.000 OA
ATOM      4  O   UNL     1     108.181 125.725 147.132  0.00  0.00    +0.000 OA
ATOM      5  O   UNL     1     107.874 124.215 149.611  0.00  0.00    +0.000 OA
ATOM      6  C   UNL     1     105.832 125.145 146.497  0.00  0.00    +0.000 C 
ATOM      7  C   UNL     1     105.367 124.681 146.996  0.00  0.00    +0.000 C 
ATOM      8  C   UNL     1     106.606 125.334 146.711  0.00  0.00    +0.000 C 
ATOM      9  C   UNL     1     106.916 125.058 147.424  0.00  0.00    +0.000 A 
ATOM     10  C   UNL     1     106.451 124.593 147.924  0.00  0.00    +0.000 A 
ATOM     11  C   UNL     1     107.723 125.260 147.637  0.00  0.00    +0.000 A 
ATOM     12  C   UNL     1     106.761 124.299 148.669  0.00  0.00    +0.000 A 
ATOM     13  C   UNL     1     108.051 124.976 148.378  0.00  0.00    +0.000 A 
ATOM     14  C   UNL     1     107.567 124.492 148.897  0.00  0.00    +0.000 A 
BRANCH   7  18
ATOM     15  O   UNL     1     102.552 125.018 147.349  0.00  0.00    +0.000 OA
ATOM     16  O   UNL     1     103.537 123.215 145.362  0.00  0.00    +0.000 OA
ATOM     17  O   UNL     1     102.270 123.928 146.143  0.00  0.00    +0.000 OA
ATOM     18  C   UNL     1     104.593 124.492 146.782  0.00  0.00    +0.000 A 
ATOM     19  C   UNL     1     104.452 123.948 146.179  0.00  0.00    +0.000 A 
ATOM     20  C   UNL     1     103.960 124.849 147.172  0.00  0.00    +0.000 A 
ATOM     21  C   UNL     1     103.185 124.661 146.959  0.00  0.00    +0.000 A 
ATOM     22  C   UNL     1     103.678 123.759 145.965  0.00  0.00    +0.000 A 
ATOM     23  C   UNL     1     103.044 124.116 146.355  0.00  0.00    +0.000 A 
ENDBRANCH   7  18
ENDBRANCH   1   6
BRANCH   1  31
ATOM     24  O   UNL     1     105.318 126.745 146.280  0.00  0.00    +0.000 OA
ATOM     25  O   UNL     1     105.540 127.641 143.983  0.00  0.00    +0.000 OA
ATOM     26  O   UNL     1     105.671 126.018 144.253  0.00  0.00    +0.000 OA
ATOM     27  C   UNL     1     105.326 127.856 145.380  0.00  0.00    +0.000 C 
ATOM     28  C   UNL     1     105.466 127.342 144.749  0.00  0.00    +0.000 C 
ATOM     29  C   UNL     1     105.252 127.557 146.145  0.00  0.00    +0.000 C 
ATOM     30  C   UNL     1     105.531 126.532 144.883  0.00  0.00    +0.000 C 
ATOM     31  C   UNL     1     105.457 126.233 145.649  0.00  0.00    +0.000 C 
ATOM     32  C   UNL     1     105.112 128.070 146.776  0.00  0.00    +0.000 C 
BRANCH  27  33
ATOM     33  O   UNL     1     105.261 128.667 145.245  0.00  0.00    +0.000 OA
BRANCH  33  38
ATOM     34  O   UNL     1     106.653 128.846 145.514  0.00  0.00    +0.000 OA
ATOM     35  O   UNL     1     105.186 130.191 144.619  0.00  0.00    +0.000 OA
ATOM     36  O   UNL     1     106.541 131.132 144.575  0.00  0.00    +0.000 OA
ATOM     37  O   UNL     1     107.970 130.548 145.157  0.00  0.00    +0.000 OA
ATOM     38  C   UNL     1     105.938 129.137 145.223  0.00  0.00    +0.000 C 
ATOM     39  C   UNL     1     105.902 129.899 144.910  0.00  0.00    +0.000 C 
ATOM     40  C   UNL     1     106.579 130.369 144.888  0.00  0.00    +0.000 C 
ATOM     41  C   UNL     1     107.293 130.078 145.179  0.00  0.00    +0.000 C 
ATOM     42  C   UNL     1     107.330 129.316 145.492  0.00  0.00    +0.000 C 
BRANCH  42  44
ATOM     43  O   UNL     1     108.497 128.509 145.324  0.00  0.00    +0.000 OA
ATOM     44  C   UNL     1     108.045 129.023 145.784  0.00  0.00    +0.000 C 
ENDBRANCH  42  44
ENDBRANCH  33  38
ENDBRANCH  27  33
ENDBRANCH   1  31
TORSDOF 6
ENDMDL
MODEL 2
REMARK VINA RESULT:     -10.7      8.705     10.481
REMARK  Name = 44257159
REMARK  6 active torsions:
REMARK  status: ('A' for Active; 'I' for Inactive)
REMARK    1  A    between atoms: O_1  and  C_18
REMARK    2  A    between atoms: O_1  and  C_23
REMARK    3  A    between atoms: O_3  and  C_22
REMARK    4  A    between atoms: O_3  and  C_26
REMARK    5  A    between atoms: C_28  and  C_33
REMARK    6  A    between atoms: C_29  and  C_34
REMARK                            x       y       z     vdW  Elec       q    Type
REMARK                         _______ _______ _______ _____ _____    ______ ____
ROOT
ATOM      1  O   UNL     1     111.196 126.398 138.419  0.00  0.00    +0.000 OA
ENDROOT
BRANCH   1   6
ATOM      2  O   UNL     1     113.332 126.091 138.747  0.00  0.00    +0.000 OA
ATOM      3  O   UNL     1     111.603 125.560 137.057  0.00  0.00    +0.000 OA
ATOM      4  O   UNL     1     112.576 124.887 136.232  0.00  0.00    +0.000 OA
ATOM      5  O   UNL     1     115.350 124.748 137.132  0.00  0.00    +0.000 OA
ATOM      6  C   UNL     1     111.976 126.156 138.302  0.00  0.00    +0.000 C 
ATOM      7  C   UNL     1     112.552 126.333 138.864  0.00  0.00    +0.000 C 
ATOM      8  C   UNL     1     112.179 125.737 137.620  0.00  0.00    +0.000 C 
ATOM      9  C   UNL     1     112.959 125.495 137.502  0.00  0.00    +0.000 A 
ATOM     10  C   UNL     1     113.536 125.672 138.066  0.00  0.00    +0.000 A 
ATOM     11  C   UNL     1     113.159 125.059 136.790  0.00  0.00    +0.000 A 
ATOM     12  C   UNL     1     114.351 125.425 137.955  0.00  0.00    +0.000 A 
ATOM     13  C   UNL     1     113.970 124.804 136.661  0.00  0.00    +0.000 A 
ATOM     14  C   UNL     1     114.569 124.989 137.247  0.00  0.00    +0.000 A 
BRANCH   7  18
ATOM     15  O   UNL     1     111.375 126.402 141.468  0.00  0.00    +0.000 OA
ATOM     16  O   UNL     1     112.511 128.774 140.350  0.00  0.00    +0.000 OA
ATOM     17  O   UNL     1     111.740 128.006 141.590  0.00  0.00    +0.000 OA
ATOM     18  C   UNL     1     112.349 126.752 139.546  0.00  0.00    +0.000 A 
ATOM     19  C   UNL     1     112.531 127.554 139.607  0.00  0.00    +0.000 A 
ATOM     20  C   UNL     1     111.964 126.368 140.166  0.00  0.00    +0.000 A 
ATOM     21  C   UNL     1     111.760 126.786 140.847  0.00  0.00    +0.000 A 
ATOM     22  C   UNL     1     112.328 127.973 140.288  0.00  0.00    +0.000 A 
ATOM     23  C   UNL     1     111.943 127.589 140.909  0.00  0.00    +0.000 A 
ENDBRANCH   7  18
ENDBRANCH   1   6
BRANCH   1  31
ATOM     24  O   UNL     1     111.261 127.460 137.465  0.00  0.00    +0.000 OA
ATOM     25  O   UNL     1     108.847 127.183 136.993  0.00  0.00    +0.000 OA
ATOM     26  O   UNL     1     109.587 126.213 138.105  0.00  0.00    +0.000 OA
ATOM     27  C   UNL     1     110.086 127.853 136.752  0.00  0.00    +0.000 C 
ATOM     28  C   UNL     1     109.652 127.275 137.150  0.00  0.00    +0.000 C 
ATOM     29  C   UNL     1     110.891 127.945 136.909  0.00  0.00    +0.000 C 
ATOM     30  C   UNL     1     110.021 126.791 137.706  0.00  0.00    +0.000 C 
ATOM     31  C   UNL     1     110.826 126.883 137.863  0.00  0.00    +0.000 C 
ATOM     32  C   UNL     1     111.326 128.522 136.511  0.00  0.00    +0.000 C 
BRANCH  27  33
ATOM     33  O   UNL     1     109.717 128.337 136.196  0.00  0.00    +0.000 OA
BRANCH  33  38
ATOM     34  O   UNL     1     109.461 129.316 137.206  0.00  0.00    +0.000 OA
ATOM     35  O   UNL     1     108.766 129.177 135.141  0.00  0.00    +0.000 OA
ATOM     36  O   UNL     1     108.036 130.576 135.623  0.00  0.00    +0.000 OA
ATOM     37  O   UNL     1     108.255 131.134 137.160  0.00  0.00    +0.000 OA
ATOM     38  C   UNL     1     109.351 129.036 136.437  0.00  0.00    +0.000 C 
ATOM     39  C   UNL     1     108.876 129.457 135.910  0.00  0.00    +0.000 C 
ATOM     40  C   UNL     1     108.511 130.156 136.151  0.00  0.00    +0.000 C 
ATOM     41  C   UNL     1     108.621 130.435 136.919  0.00  0.00    +0.000 C 
ATOM     42  C   UNL     1     109.095 130.015 137.447  0.00  0.00    +0.000 C 
BRANCH  42  44
ATOM     43  O   UNL     1     108.798 129.945 138.842  0.00  0.00    +0.000 OA
ATOM     44  C   UNL     1     109.206 130.294 138.215  0.00  0.00    +0.000 C 
ENDBRANCH  42  44
ENDBRANCH  33  38
ENDBRANCH  27  33
ENDBRANCH   1  31
TORSDOF 6
ENDMDL
MODEL 3
REMARK VINA RESULT:     -10.5      9.981     11.722
REMARK  Name = 44257159
REMARK  6 active torsions:
REMARK  status: ('A' for Active; 'I' for Inactive)
REMARK    1  A    between atoms: O_1  and  C_18
REMARK    2  A    between atoms: O_1  and  C_23
REMARK    3  A    between atoms: O_3  and  C_22
REMARK    4  A    between atoms: O_3  and  C_26
REMARK    5  A    between atoms: C_28  and  C_33
REMARK    6  A    between atoms: C_29  and  C_34
REMARK                            x       y       z     vdW  Elec       q    Type
REMARK                         _______ _______ _______ _____ _____    ______ ____
ROOT
ATOM      1  O   UNL     1     111.561 128.044 137.421  0.00  0.00    +0.000 OA
ENDROOT
BRANCH   1   6
ATOM      2  O   UNL     1     113.252 127.484 136.161  0.00  0.00    +0.000 OA
ATOM      3  O   UNL     1     112.181 129.528 137.054  0.00  0.00    +0.000 OA
ATOM      4  O   UNL     1     113.155 130.362 136.393  0.00  0.00    +0.000 OA
ATOM      5  O   UNL     1     115.252 129.105 134.799  0.00  0.00    +0.000 OA
ATOM      6  C   UNL     1     112.228 128.105 136.940  0.00  0.00    +0.000 C 
ATOM      7  C   UNL     1     112.585 127.424 136.642  0.00  0.00    +0.000 C 
ATOM      8  C   UNL     1     112.537 128.847 136.757  0.00  0.00    +0.000 C 
ATOM      9  C   UNL     1     113.205 128.908 136.275  0.00  0.00    +0.000 A 
ATOM     10  C   UNL     1     113.562 128.226 135.977  0.00  0.00    +0.000 A 
ATOM     11  C   UNL     1     113.519 129.686 136.091  0.00  0.00    +0.000 A 
ATOM     12  C   UNL     1     114.258 128.277 135.475  0.00  0.00    +0.000 A 
ATOM     13  C   UNL     1     114.213 129.756 135.590  0.00  0.00    +0.000 A 
ATOM     14  C   UNL     1     114.585 129.047 135.280  0.00  0.00    +0.000 A 
BRANCH   7  18
ATOM     15  O   UNL     1     112.196 125.299 138.514  0.00  0.00    +0.000 OA
ATOM     16  O   UNL     1     111.119 125.093 135.874  0.00  0.00    +0.000 OA
ATOM     17  O   UNL     1     111.348 124.454 137.378  0.00  0.00    +0.000 OA
ATOM     18  C   UNL     1     112.275 126.681 136.826  0.00  0.00    +0.000 A 
ATOM     19  C   UNL     1     111.852 126.259 136.258  0.00  0.00    +0.000 A 
ATOM     20  C   UNL     1     112.390 126.361 137.578  0.00  0.00    +0.000 A 
ATOM     21  C   UNL     1     112.081 125.619 137.762  0.00  0.00    +0.000 A 
ATOM     22  C   UNL     1     111.542 125.516 136.442  0.00  0.00    +0.000 A 
ATOM     23  C   UNL     1     111.657 125.196 137.194  0.00  0.00    +0.000 A 
ENDBRANCH   7  18
ENDBRANCH   1   6
BRANCH   1  31
ATOM     24  O   UNL     1     110.648 128.443 136.397  0.00  0.00    +0.000 OA
ATOM     25  O   UNL     1     109.147 129.411 138.110  0.00  0.00    +0.000 OA
ATOM     26  O   UNL     1     110.560 128.689 138.564  0.00  0.00    +0.000 OA
ATOM     27  C   UNL     1     109.441 129.127 136.741  0.00  0.00    +0.000 C 
ATOM     28  C   UNL     1     109.648 129.088 137.539  0.00  0.00    +0.000 C 
ATOM     29  C   UNL     1     109.941 128.804 136.170  0.00  0.00    +0.000 C 
ATOM     30  C   UNL     1     110.353 128.728 137.766  0.00  0.00    +0.000 C 
ATOM     31  C   UNL     1     110.854 128.405 137.195  0.00  0.00    +0.000 C 
ATOM     32  C   UNL     1     109.735 128.842 135.372  0.00  0.00    +0.000 C 
BRANCH  27  33
ATOM     33  O   UNL     1     108.735 129.487 136.515  0.00  0.00    +0.000 OA
BRANCH  33  38
ATOM     34  O   UNL     1     109.397 130.750 136.426  0.00  0.00    +0.000 OA
ATOM     35  O   UNL     1     107.387 130.147 135.828  0.00  0.00    +0.000 OA
ATOM     36  O   UNL     1     107.376 131.739 135.397  0.00  0.00    +0.000 OA
ATOM     37  O   UNL     1     108.712 132.672 135.652  0.00  0.00    +0.000 OA
ATOM     38  C   UNL     1     108.729 130.283 136.299  0.00  0.00    +0.000 C 
ATOM     39  C   UNL     1     108.056 130.614 135.956  0.00  0.00    +0.000 C 
ATOM     40  C   UNL     1     108.050 131.410 135.740  0.00  0.00    +0.000 C 
ATOM     41  C   UNL     1     108.718 131.876 135.868  0.00  0.00    +0.000 C 
ATOM     42  C   UNL     1     109.391 131.547 136.210  0.00  0.00    +0.000 C 
BRANCH  42  44
ATOM     43  O   UNL     1     110.267 132.235 137.105  0.00  0.00    +0.000 OA
ATOM     44  C   UNL     1     110.060 132.013 136.338  0.00  0.00    +0.000 C 
ENDBRANCH  42  44
ENDBRANCH  33  38
ENDBRANCH  27  33
ENDBRANCH   1  31
TORSDOF 6
ENDMDL
MODEL 4
REMARK VINA RESULT:     -10.5      8.758     11.092
REMARK  Name = 44257159
REMARK  6 active torsions:
REMARK  status: ('A' for Active; 'I' for Inactive)
REMARK    1  A    between atoms: O_1  and  C_18
REMARK    2  A    between atoms: O_1  and  C_23
REMARK    3  A    between atoms: O_3  and  C_22
REMARK    4  A    between atoms: O_3  and  C_26
REMARK    5  A    between atoms: C_28  and  C_33
REMARK    6  A    between atoms: C_29  and  C_34
REMARK                            x       y       z     vdW  Elec       q    Type
REMARK                         _______ _______ _______ _____ _____    ______ ____
ROOT
ATOM      1  O   UNL     1     111.726 128.080 137.358  0.00  0.00    +0.000 OA
ENDROOT
BRANCH   1   6
ATOM      2  O   UNL     1     112.482 126.381 136.217  0.00  0.00    +0.000 OA
ATOM      3  O   UNL     1     111.078 126.822 138.206  0.00  0.00    +0.000 OA
ATOM      4  O   UNL     1     110.880 125.408 138.416  0.00  0.00    +0.000 OA
ATOM      5  O   UNL     1     112.126 123.513 136.577  0.00  0.00    +0.000 OA
ATOM      6  C   UNL     1     111.870 127.304 137.119  0.00  0.00    +0.000 C 
ATOM      7  C   UNL     1     112.338 127.157 136.456  0.00  0.00    +0.000 C 
ATOM      8  C   UNL     1     111.546 126.675 137.544  0.00  0.00    +0.000 C 
ATOM      9  C   UNL     1     111.690 125.899 137.304  0.00  0.00    +0.000 A 
ATOM     10  C   UNL     1     112.158 125.751 136.640  0.00  0.00    +0.000 A 
ATOM     11  C   UNL     1     111.347 125.251 137.753  0.00  0.00    +0.000 A 
ATOM     12  C   UNL     1     112.315 124.947 136.381  0.00  0.00    +0.000 A 
ATOM     13  C   UNL     1     111.493 124.441 137.510  0.00  0.00    +0.000 A 
ATOM     14  C   UNL     1     111.980 124.288 136.819  0.00  0.00    +0.000 A 
BRANCH   7  18
ATOM     15  O   UNL     1     112.028 129.318 134.612  0.00  0.00    +0.000 OA
ATOM     16  O   UNL     1     114.590 128.769 135.752  0.00  0.00    +0.000 OA
ATOM     17  O   UNL     1     113.633 129.672 134.757  0.00  0.00    +0.000 OA
ATOM     18  C   UNL     1     112.662 127.786 136.032  0.00  0.00    +0.000 A 
ATOM     19  C   UNL     1     113.464 127.963 136.104  0.00  0.00    +0.000 A 
ATOM     20  C   UNL     1     112.184 128.238 135.534  0.00  0.00    +0.000 A 
ATOM     21  C   UNL     1     112.507 128.866 135.109  0.00  0.00    +0.000 A 
ATOM     22  C   UNL     1     113.789 128.592 135.680  0.00  0.00    +0.000 A 
ATOM     23  C   UNL     1     113.310 129.044 135.182  0.00  0.00    +0.000 A 
ENDBRANCH   7  18
ENDBRANCH   1   6
BRANCH   1  31
ATOM     24  O   UNL     1     112.625 127.995 138.466  0.00  0.00    +0.000 OA
ATOM     25  O   UNL     1     111.342 129.755 139.642  0.00  0.00    +0.000 OA
ATOM     26  O   UNL     1     110.871 129.253 138.142  0.00  0.00    +0.000 OA
ATOM     27  C   UNL     1     112.433 128.833 139.608  0.00  0.00    +0.000 C 
ATOM     28  C   UNL     1     111.770 129.169 139.250  0.00  0.00    +0.000 C 
ATOM     29  C   UNL     1     112.861 128.247 139.216  0.00  0.00    +0.000 C 
ATOM     30  C   UNL     1     111.534 128.918 138.501  0.00  0.00    +0.000 C 
ATOM     31  C   UNL     1     111.962 128.331 138.109  0.00  0.00    +0.000 C 
ATOM     32  C   UNL     1     113.524 127.911 139.573  0.00  0.00    +0.000 C 
BRANCH  27  33
ATOM     33  O   UNL     1     112.669 129.084 140.357  0.00  0.00    +0.000 OA
BRANCH  33  38
ATOM     34  O   UNL     1     111.830 128.111 140.983  0.00  0.00    +0.000 OA
ATOM     35  O   UNL     1     112.800 129.891 141.791  0.00  0.00    +0.000 OA
ATOM     36  O   UNL     1     112.027 129.320 143.132  0.00  0.00    +0.000 OA
ATOM     37  O   UNL     1     111.122 127.943 143.040  0.00  0.00    +0.000 OA
ATOM     38  C   UNL     1     112.282 128.799 141.028  0.00  0.00    +0.000 C 
ATOM     39  C   UNL     1     112.348 129.202 141.745  0.00  0.00    +0.000 C 
ATOM     40  C   UNL     1     111.961 128.916 142.416  0.00  0.00    +0.000 C 
ATOM     41  C   UNL     1     111.509 128.229 142.370  0.00  0.00    +0.000 C 
ATOM     42  C   UNL     1     111.443 127.825 141.654  0.00  0.00    +0.000 C 
BRANCH  42  44
ATOM     43  O   UNL     1     111.361 126.407 141.502  0.00  0.00    +0.000 OA
ATOM     44  C   UNL     1     110.991 127.137 141.607  0.00  0.00    +0.000 C 
ENDBRANCH  42  44
ENDBRANCH  33  38
ENDBRANCH  27  33
ENDBRANCH   1  31
TORSDOF 6
ENDMDL
MODEL 5
REMARK VINA RESULT:     -10.4      8.816     10.778
REMARK  Name = 44257159
REMARK  6 active torsions:
REMARK  status: ('A' for Active; 'I' for Inactive)
REMARK    1  A    between atoms: O_1  and  C_18
REMARK    2  A    between atoms: O_1  and  C_23
REMARK    3  A    between atoms: O_3  and  C_22
REMARK    4  A    between atoms: O_3  and  C_26
REMARK    5  A    between atoms: C_28  and  C_33
REMARK    6  A    between atoms: C_29  and  C_34
REMARK                            x       y       z     vdW  Elec       q    Type
REMARK                         _______ _______ _______ _____ _____    ______ ____
ROOT
ATOM      1  O   UNL     1     112.473 127.722 138.124  0.00  0.00    +0.000 OA
ENDROOT
BRANCH   1   6
ATOM      2  O   UNL     1     112.355 125.548 138.263  0.00  0.00    +0.000 OA
ATOM      3  O   UNL     1     111.987 127.338 136.595  0.00  0.00    +0.000 OA
ATOM      4  O   UNL     1     111.616 126.368 135.593  0.00  0.00    +0.000 OA
ATOM      5  O   UNL     1     111.619 123.533 136.293  0.00  0.00    +0.000 OA
ATOM      6  C   UNL     1     112.353 126.933 137.915  0.00  0.00    +0.000 C 
ATOM      7  C   UNL     1     112.475 126.337 138.471  0.00  0.00    +0.000 C 
ATOM      8  C   UNL     1     112.110 126.742 137.150  0.00  0.00    +0.000 C 
ATOM      9  C   UNL     1     111.990 125.952 136.942  0.00  0.00    +0.000 A 
ATOM     10  C   UNL     1     112.112 125.355 137.498  0.00  0.00    +0.000 A 
ATOM     11  C   UNL     1     111.737 125.764 136.143  0.00  0.00    +0.000 A 
ATOM     12  C   UNL     1     111.991 124.530 137.293  0.00  0.00    +0.000 A 
ATOM     13  C   UNL     1     111.610 124.944 135.919  0.00  0.00    +0.000 A 
ATOM     14  C   UNL     1     111.738 124.323 136.499  0.00  0.00    +0.000 A 
BRANCH   7  18
ATOM     15  O   UNL     1     111.871 126.700 141.241  0.00  0.00    +0.000 OA
ATOM     16  O   UNL     1     114.533 127.123 140.292  0.00  0.00    +0.000 OA
ATOM     17  O   UNL     1     113.444 127.103 141.532  0.00  0.00    +0.000 OA
ATOM     18  C   UNL     1     112.718 126.529 139.236  0.00  0.00    +0.000 A 
ATOM     19  C   UNL     1     113.504 126.730 139.382  0.00  0.00    +0.000 A 
ATOM     20  C   UNL     1     112.174 126.519 139.856  0.00  0.00    +0.000 A 
ATOM     21  C   UNL     1     112.415 126.710 140.621  0.00  0.00    +0.000 A 
ATOM     22  C   UNL     1     113.747 126.922 140.147  0.00  0.00    +0.000 A 
ATOM     23  C   UNL     1     113.203 126.912 140.766  0.00  0.00    +0.000 A 
ENDBRANCH   7  18
ENDBRANCH   1   6
BRANCH   1  31
ATOM     24  O   UNL     1     111.076 128.003 138.230  0.00  0.00    +0.000 OA
ATOM     25  O   UNL     1     111.512 130.378 137.689  0.00  0.00    +0.000 OA
ATOM     26  O   UNL     1     112.763 129.306 137.763  0.00  0.00    +0.000 OA
ATOM     27  C   UNL     1     110.595 129.332 138.013  0.00  0.00    +0.000 C 
ATOM     28  C   UNL     1     111.366 129.587 137.870  0.00  0.00    +0.000 C 
ATOM     29  C   UNL     1     110.449 128.540 138.193  0.00  0.00    +0.000 C 
ATOM     30  C   UNL     1     111.992 129.051 137.907  0.00  0.00    +0.000 C 
ATOM     31  C   UNL     1     111.846 128.259 138.087  0.00  0.00    +0.000 C 
ATOM     32  C   UNL     1     109.678 128.284 138.337  0.00  0.00    +0.000 C 
BRANCH  27  33
ATOM     33  O   UNL     1     109.969 129.867 137.976  0.00  0.00    +0.000 OA
BRANCH  33  38
ATOM     34  O   UNL     1     109.821 129.601 136.580  0.00  0.00    +0.000 OA
ATOM     35  O   UNL     1     108.663 130.874 137.922  0.00  0.00    +0.000 OA
ATOM     36  O   UNL     1     107.862 131.110 136.498  0.00  0.00    +0.000 OA
ATOM     37  O   UNL     1     108.368 130.340 135.130  0.00  0.00    +0.000 OA
ATOM     38  C   UNL     1     109.569 129.985 137.264  0.00  0.00    +0.000 C 
ATOM     39  C   UNL     1     108.916 130.488 137.237  0.00  0.00    +0.000 C 
ATOM     40  C   UNL     1     108.515 130.606 136.525  0.00  0.00    +0.000 C 
ATOM     41  C   UNL     1     108.768 130.222 135.841  0.00  0.00    +0.000 C 
ATOM     42  C   UNL     1     109.421 129.719 135.868  0.00  0.00    +0.000 C 
BRANCH  42  44
ATOM     43  O   UNL     1     110.355 129.590 134.795  0.00  0.00    +0.000 OA
ATOM     44  C   UNL     1     109.674 129.333 135.184  0.00  0.00    +0.000 C 
ENDBRANCH  42  44
ENDBRANCH  33  38
ENDBRANCH  27  33
ENDBRANCH   1  31
TORSDOF 6
ENDMDL
MODEL 6
REMARK VINA RESULT:     -10.4      8.846     11.040
REMARK  Name = 44257159
REMARK  6 active torsions:
REMARK  status: ('A' for Active; 'I' for Inactive)
REMARK    1  A    between atoms: O_1  and  C_18
REMARK    2  A    between atoms: O_1  and  C_23
REMARK    3  A    between atoms: O_3  and  C_22
REMARK    4  A    between atoms: O_3  and  C_26
REMARK    5  A    between atoms: C_28  and  C_33
REMARK    6  A    between atoms: C_29  and  C_34
REMARK                            x       y       z     vdW  Elec       q    Type
REMARK                         _______ _______ _______ _____ _____    ______ ____
ROOT
ATOM      1  O   UNL     1     111.772 127.052 137.670  0.00  0.00    +0.000 OA
ENDROOT
BRANCH   1   6
ATOM      2  O   UNL     1     113.295 127.212 136.116  0.00  0.00    +0.000 OA
ATOM      3  O   UNL     1     112.188 128.643 137.803  0.00  0.00    +0.000 OA
ATOM      4  O   UNL     1     112.968 129.784 137.389  0.00  0.00    +0.000 OA
ATOM      5  O   UNL     1     114.904 129.471 135.227  0.00  0.00    +0.000 OA
ATOM      6  C   UNL     1     112.349 127.371 137.174  0.00  0.00    +0.000 C 
ATOM      7  C   UNL     1     112.718 126.894 136.612  0.00  0.00    +0.000 C 
ATOM      8  C   UNL     1     112.557 128.166 137.241  0.00  0.00    +0.000 C 
ATOM      9  C   UNL     1     113.134 128.485 136.745  0.00  0.00    +0.000 A 
ATOM     10  C   UNL     1     113.503 128.007 136.182  0.00  0.00    +0.000 A 
ATOM     11  C   UNL     1     113.343 129.315 136.824  0.00  0.00    +0.000 A 
ATOM     12  C   UNL     1     114.106 128.327 135.660  0.00  0.00    +0.000 A 
ATOM     13  C   UNL     1     113.943 129.652 136.310  0.00  0.00    +0.000 A 
ATOM     14  C   UNL     1     114.327 129.155 135.724  0.00  0.00    +0.000 A 
BRANCH   7  18
ATOM     15  O   UNL     1     110.879 124.881 135.754  0.00  0.00    +0.000 OA
ATOM     16  O   UNL     1     113.307 124.134 137.064  0.00  0.00    +0.000 OA
ATOM     17  O   UNL     1     111.885 123.712 136.342  0.00  0.00    +0.000 OA
ATOM     18  C   UNL     1     112.510 126.098 136.544  0.00  0.00    +0.000 A 
ATOM     19  C   UNL     1     113.012 125.514 136.838  0.00  0.00    +0.000 A 
ATOM     20  C   UNL     1     111.799 125.887 136.183  0.00  0.00    +0.000 A 
ATOM     21  C   UNL     1     111.590 125.092 136.115  0.00  0.00    +0.000 A 
ATOM     22  C   UNL     1     112.805 124.718 136.771  0.00  0.00    +0.000 A 
ATOM     23  C   UNL     1     112.093 124.507 136.409  0.00  0.00    +0.000 A 
ENDBRANCH   7  18
ENDBRANCH   1   6
BRANCH   1  31
ATOM     24  O   UNL     1     112.613 126.964 138.822  0.00  0.00    +0.000 OA
ATOM     25  O   UNL     1     110.666 127.421 140.279  0.00  0.00    +0.000 OA
ATOM     26  O   UNL     1     110.474 127.357 138.642  0.00  0.00    +0.000 OA
ATOM     27  C   UNL     1     112.060 127.149 140.127  0.00  0.00    +0.000 C 
ATOM     28  C   UNL     1     111.315 127.269 139.793  0.00  0.00    +0.000 C 
ATOM     29  C   UNL     1     112.709 126.997 139.641  0.00  0.00    +0.000 C 
ATOM     30  C   UNL     1     111.219 127.237 138.975  0.00  0.00    +0.000 C 
ATOM     31  C   UNL     1     111.868 127.085 138.489  0.00  0.00    +0.000 C 
ATOM     32  C   UNL     1     113.455 126.876 139.973  0.00  0.00    +0.000 C 
BRANCH  27  33
ATOM     33  O   UNL     1     112.157 127.181 140.945  0.00  0.00    +0.000 OA
BRANCH  33  38
ATOM     34  O   UNL     1     112.530 128.560 140.929  0.00  0.00    +0.000 OA
ATOM     35  O   UNL     1     111.629 127.343 142.500  0.00  0.00    +0.000 OA
ATOM     36  O   UNL     1     111.739 128.803 143.261  0.00  0.00    +0.000 OA
ATOM     37  O   UNL     1     112.376 130.101 142.467  0.00  0.00    +0.000 OA
ATOM     38  C   UNL     1     112.211 127.911 141.325  0.00  0.00    +0.000 C 
ATOM     39  C   UNL     1     111.948 127.992 142.103  0.00  0.00    +0.000 C 
ATOM     40  C   UNL     1     112.003 128.722 142.483  0.00  0.00    +0.000 C 
ATOM     41  C   UNL     1     112.321 129.371 142.086  0.00  0.00    +0.000 C 
ATOM     42  C   UNL     1     112.585 129.290 141.309  0.00  0.00    +0.000 C 
BRANCH  42  44
ATOM     43  O   UNL     1     113.710 129.961 140.738  0.00  0.00    +0.000 OA
ATOM     44  C   UNL     1     112.903 129.939 140.911  0.00  0.00    +0.000 C 
ENDBRANCH  42  44
ENDBRANCH  33  38
ENDBRANCH  27  33
ENDBRANCH   1  31
TORSDOF 6
ENDMDL
MODEL 7
REMARK VINA RESULT:     -10.3      9.076     11.265
REMARK  Name = 44257159
REMARK  6 active torsions:
REMARK  status: ('A' for Active; 'I' for Inactive)
REMARK    1  A    between atoms: O_1  and  C_18
REMARK    2  A    between atoms: O_1  and  C_23
REMARK    3  A    between atoms: O_3  and  C_22
REMARK    4  A    between atoms: O_3  and  C_26
REMARK    5  A    between atoms: C_28  and  C_33
REMARK    6  A    between atoms: C_29  and  C_34
REMARK                            x       y       z     vdW  Elec       q    Type
REMARK                         _______ _______ _______ _____ _____    ______ ____
ROOT
ATOM      1  O   UNL     1     112.494 127.956 137.662  0.00  0.00    +0.000 OA
ENDROOT
BRANCH   1   6
ATOM      2  O   UNL     1     112.463 126.419 136.113  0.00  0.00    +0.000 OA
ATOM      3  O   UNL     1     111.954 126.656 138.523  0.00  0.00    +0.000 OA
ATOM      4  O   UNL     1     111.575 125.266 138.609  0.00  0.00    +0.000 OA
ATOM      5  O   UNL     1     111.713 123.607 136.211  0.00  0.00    +0.000 OA
ATOM      6  C   UNL     1     112.393 127.227 137.289  0.00  0.00    +0.000 C 
ATOM      7  C   UNL     1     112.563 127.148 136.486  0.00  0.00    +0.000 C 
ATOM      8  C   UNL     1     112.124 126.577 137.720  0.00  0.00    +0.000 C 
ATOM      9  C   UNL     1     112.023 125.848 137.347  0.00  0.00    +0.000 A 
ATOM     10  C   UNL     1     112.193 125.769 136.543  0.00  0.00    +0.000 A 
ATOM     11  C   UNL     1     111.742 125.178 137.805  0.00  0.00    +0.000 A 
ATOM     12  C   UNL     1     112.093 125.015 136.143  0.00  0.00    +0.000 A 
ATOM     13  C   UNL     1     111.635 124.416 137.423  0.00  0.00    +0.000 A 
ATOM     14  C   UNL     1     111.812 124.334 136.586  0.00  0.00    +0.000 A 
BRANCH   7  18
ATOM     15  O   UNL     1     112.071 129.256 134.621  0.00  0.00    +0.000 OA
ATOM     16  O   UNL     1     114.671 128.938 135.764  0.00  0.00    +0.000 OA
ATOM     17  O   UNL     1     113.640 129.747 134.761  0.00  0.00    +0.000 OA
ATOM     18  C   UNL     1     112.833 127.798 136.055  0.00  0.00    +0.000 A 
ATOM     19  C   UNL     1     113.617 128.043 136.125  0.00  0.00    +0.000 A 
ATOM     20  C   UNL     1     112.317 128.202 135.553  0.00  0.00    +0.000 A 
ATOM     21  C   UNL     1     112.586 128.852 135.122  0.00  0.00    +0.000 A 
ATOM     22  C   UNL     1     113.887 128.693 135.694  0.00  0.00    +0.000 A 
ATOM     23  C   UNL     1     113.371 129.097 135.192  0.00  0.00    +0.000 A 
ENDBRANCH   7  18
ENDBRANCH   1   6
BRANCH   1  31
ATOM     24  O   UNL     1     111.096 128.250 137.692  0.00  0.00    +0.000 OA
ATOM     25  O   UNL     1     111.425 129.609 139.734  0.00  0.00    +0.000 OA
ATOM     26  O   UNL     1     112.714 128.862 139.023  0.00  0.00    +0.000 OA
ATOM     27  C   UNL     1     110.561 129.077 138.729  0.00  0.00    +0.000 C 
ATOM     28  C   UNL     1     111.315 129.156 139.053  0.00  0.00    +0.000 C 
ATOM     29  C   UNL     1     110.451 128.623 138.048  0.00  0.00    +0.000 C 
ATOM     30  C   UNL     1     111.959 128.783 138.698  0.00  0.00    +0.000 C 
ATOM     31  C   UNL     1     111.849 128.330 138.018  0.00  0.00    +0.000 C 
ATOM     32  C   UNL     1     109.697 128.543 137.722  0.00  0.00    +0.000 C 
BRANCH  27  33
ATOM     33  O   UNL     1     109.917 129.450 139.084  0.00  0.00    +0.000 OA
BRANCH  33  38
ATOM     34  O   UNL     1     110.176 130.639 138.334  0.00  0.00    +0.000 OA
ATOM     35  O   UNL     1     108.473 130.076 139.577  0.00  0.00    +0.000 OA
ATOM     36  O   UNL     1     108.010 131.578 139.074  0.00  0.00    +0.000 OA
ATOM     37  O   UNL     1     108.991 132.453 138.077  0.00  0.00    +0.000 OA
ATOM     38  C   UNL     1     109.686 130.201 138.832  0.00  0.00    +0.000 C 
ATOM     39  C   UNL     1     108.964 130.514 139.078  0.00  0.00    +0.000 C 
ATOM     40  C   UNL     1     108.732 131.265 138.827  0.00  0.00    +0.000 C 
ATOM     41  C   UNL     1     109.223 131.702 138.329  0.00  0.00    +0.000 C 
ATOM     42  C   UNL     1     109.945 131.389 138.082  0.00  0.00    +0.000 C 
BRANCH  42  44
ATOM     43  O   UNL     1     111.124 132.171 137.882  0.00  0.00    +0.000 OA
ATOM     44  C   UNL     1     110.436 131.827 137.584  0.00  0.00    +0.000 C 
ENDBRANCH  42  44
ENDBRANCH  33  38
ENDBRANCH  27  33
ENDBRANCH   1  31
TORSDOF 6
ENDMDL
MODEL 8
REMARK VINA RESULT:     -10.3     10.170     12.219
REMARK  Name = 44257159
REMARK  6 active torsions:
REMARK  status: ('A' for Active; 'I' for Inactive)
REMARK    1  A    between atoms: O_1  and  C_18
REMARK    2  A    between atoms: O_1  and  C_23
REMARK    3  A    between atoms: O_3  and  C_22
REMARK    4  A    between atoms: O_3  and  C_26
REMARK    5  A    between atoms: C_28  and  C_33
REMARK    6  A    between atoms: C_29  and  C_34
REMARK                            x       y       z     vdW  Elec       q    Type
REMARK                         _______ _______ _______ _____ _____    ______ ____
ROOT
ATOM      1  O   UNL     1     112.153 128.611 135.532  0.00  0.00    +0.000 OA
ENDROOT
BRANCH   1   6
ATOM      2  O   UNL     1     113.639 127.305 136.453  0.00  0.00    +0.000 OA
ATOM      3  O   UNL     1     111.310 127.195 135.626  0.00  0.00    +0.000 OA
ATOM      4  O   UNL     1     111.215 125.802 135.989  0.00  0.00    +0.000 OA
ATOM      5  O   UNL     1     113.522 124.495 137.212  0.00  0.00    +0.000 OA
ATOM      6  C   UNL     1     112.508 127.939 135.855  0.00  0.00    +0.000 C 
ATOM      7  C   UNL     1     113.284 127.976 136.130  0.00  0.00    +0.000 C 
ATOM      8  C   UNL     1     112.086 127.232 135.901  0.00  0.00    +0.000 C 
ATOM      9  C   UNL     1     112.441 126.561 136.224  0.00  0.00    +0.000 A 
ATOM     10  C   UNL     1     113.218 126.597 136.500  0.00  0.00    +0.000 A 
ATOM     11  C   UNL     1     111.992 125.829 136.267  0.00  0.00    +0.000 A 
ATOM     12  C   UNL     1     113.598 125.905 136.838  0.00  0.00    +0.000 A 
ATOM     13  C   UNL     1     112.356 125.127 136.602  0.00  0.00    +0.000 A 
ATOM     14  C   UNL     1     113.164 125.165 136.889  0.00  0.00    +0.000 A 
BRANCH   7  18
ATOM     15  O   UNL     1     114.282 130.347 137.374  0.00  0.00    +0.000 OA
ATOM     16  O   UNL     1     114.819 129.849 134.612  0.00  0.00    +0.000 OA
ATOM     17  O   UNL     1     114.972 130.805 135.947  0.00  0.00    +0.000 OA
ATOM     18  C   UNL     1     113.706 128.683 136.084  0.00  0.00    +0.000 A 
ATOM     19  C   UNL     1     114.051 128.912 135.371  0.00  0.00    +0.000 A 
ATOM     20  C   UNL     1     113.783 129.162 136.752  0.00  0.00    +0.000 A 
ATOM     21  C   UNL     1     114.205 129.869 136.707  0.00  0.00    +0.000 A 
ATOM     22  C   UNL     1     114.474 129.620 135.325  0.00  0.00    +0.000 A 
ATOM     23  C   UNL     1     114.550 130.098 135.993  0.00  0.00    +0.000 A 
ENDBRANCH   7  18
ENDBRANCH   1   6
BRANCH   1  31
ATOM     24  O   UNL     1     111.366 128.850 136.701  0.00  0.00    +0.000 OA
ATOM     25  O   UNL     1     109.707 130.075 135.332  0.00  0.00    +0.000 OA
ATOM     26  O   UNL     1     111.047 129.427 134.620  0.00  0.00    +0.000 OA
ATOM     27  C   UNL     1     110.142 129.582 136.601  0.00  0.00    +0.000 C 
ATOM     28  C   UNL     1     110.260 129.667 135.788  0.00  0.00    +0.000 C 
ATOM     29  C   UNL     1     110.695 129.174 137.057  0.00  0.00    +0.000 C 
ATOM     30  C   UNL     1     110.929 129.343 135.432  0.00  0.00    +0.000 C 
ATOM     31  C   UNL     1     111.482 128.935 135.888  0.00  0.00    +0.000 C 
ATOM     32  C   UNL     1     110.579 129.089 137.869  0.00  0.00    +0.000 C 
BRANCH  27  33
ATOM     33  O   UNL     1     109.473 129.906 136.957  0.00  0.00    +0.000 OA
BRANCH  33  38
ATOM     34  O   UNL     1     110.151 131.155 137.107  0.00  0.00    +0.000 OA
ATOM     35  O   UNL     1     108.189 130.502 137.804  0.00  0.00    +0.000 OA
ATOM     36  O   UNL     1     108.225 132.049 138.377  0.00  0.00    +0.000 OA
ATOM     37  O   UNL     1     109.546 132.999 138.103  0.00  0.00    +0.000 OA
ATOM     38  C   UNL     1     109.491 130.679 137.243  0.00  0.00    +0.000 C 
ATOM     39  C   UNL     1     108.850 130.978 137.667  0.00  0.00    +0.000 C 
ATOM     40  C   UNL     1     108.868 131.751 137.953  0.00  0.00    +0.000 C 
ATOM     41  C   UNL     1     109.528 132.226 137.816  0.00  0.00    +0.000 C 
ATOM     42  C   UNL     1     110.170 131.928 137.393  0.00  0.00    +0.000 C 
BRANCH  42  44
ATOM     43  O   UNL     1     111.541 132.242 137.643  0.00  0.00    +0.000 OA
ATOM     44  C   UNL     1     110.830 132.403 137.256  0.00  0.00    +0.000 C 
ENDBRANCH  42  44
ENDBRANCH  33  38
ENDBRANCH  27  33
ENDBRANCH   1  31
TORSDOF 6
ENDMDL
MODEL 9
REMARK VINA RESULT:     -10.3      7.729      9.677
REMARK  Name = 44257159
REMARK  6 active torsions:
REMARK  status: ('A' for Active; 'I' for Inactive)
REMARK    1  A    between atoms: O_1  and  C_18
REMARK    2  A    between atoms: O_1  and  C_23
REMARK    3  A    between atoms: O_3  and  C_22
REMARK    4  A    between atoms: O_3  and  C_26
REMARK    5  A    between atoms: C_28  and  C_33
REMARK    6  A    between atoms: C_29  and  C_34
REMARK                            x       y       z     vdW  Elec       q    Type
REMARK                         _______ _______ _______ _____ _____    ______ ____
ROOT
ATOM      1  O   UNL     1     111.923 126.328 139.812  0.00  0.00    +0.000 OA
ENDROOT
BRANCH   1   6
ATOM      2  O   UNL     1     110.509 125.906 138.204  0.00  0.00    +0.000 OA
ATOM      3  O   UNL     1     112.953 125.911 138.592  0.00  0.00    +0.000 OA
ATOM      4  O   UNL     1     113.199 125.488 137.235  0.00  0.00    +0.000 OA
ATOM      5  O   UNL     1     110.928 125.052 135.452  0.00  0.00    +0.000 OA
ATOM      6  C   UNL     1     111.623 126.118 139.073  0.00  0.00    +0.000 C 
ATOM      7  C   UNL     1     110.809 126.117 138.944  0.00  0.00    +0.000 C 
ATOM      8  C   UNL     1     112.139 125.909 138.463  0.00  0.00    +0.000 C 
ATOM      9  C   UNL     1     111.839 125.699 137.724  0.00  0.00    +0.000 A 
ATOM     10  C   UNL     1     111.024 125.698 137.594  0.00  0.00    +0.000 A 
ATOM     11  C   UNL     1     112.385 125.483 137.096  0.00  0.00    +0.000 A 
ATOM     12  C   UNL     1     110.699 125.481 136.829  0.00  0.00    +0.000 A 
ATOM     13  C   UNL     1     112.079 125.264 136.324  0.00  0.00    +0.000 A 
ATOM     14  C   UNL     1     111.231 125.262 136.190  0.00  0.00    +0.000 A 
BRANCH   7  18
ATOM     15  O   UNL     1     109.434 125.449 141.358  0.00  0.00    +0.000 OA
ATOM     16  O   UNL     1     109.092 128.033 140.187  0.00  0.00    +0.000 OA
ATOM     17  O   UNL     1     108.748 126.949 141.382  0.00  0.00    +0.000 OA
ATOM     18  C   UNL     1     110.294 126.325 139.553  0.00  0.00    +0.000 A 
ATOM     19  C   UNL     1     109.951 127.075 139.566  0.00  0.00    +0.000 A 
ATOM     20  C   UNL     1     110.121 125.783 140.151  0.00  0.00    +0.000 A 
ATOM     21  C   UNL     1     109.606 125.991 140.761  0.00  0.00    +0.000 A 
ATOM     22  C   UNL     1     109.435 127.284 140.175  0.00  0.00    +0.000 A 
ATOM     23  C   UNL     1     109.263 126.742 140.773  0.00  0.00    +0.000 A 
ENDBRANCH   7  18
ENDBRANCH   1   6
BRANCH   1  31
ATOM     24  O   UNL     1     112.370 127.613 139.374  0.00  0.00    +0.000 OA
ATOM     25  O   UNL     1     114.145 127.584 141.099  0.00  0.00    +0.000 OA
ATOM     26  O   UNL     1     113.107 126.309 140.962  0.00  0.00    +0.000 OA
ATOM     27  C   UNL     1     113.481 128.242 140.018  0.00  0.00    +0.000 C 
ATOM     28  C   UNL     1     113.553 127.594 140.524  0.00  0.00    +0.000 C 
ATOM     29  C   UNL     1     112.889 128.251 139.443  0.00  0.00    +0.000 C 
ATOM     30  C   UNL     1     113.034 126.957 140.456  0.00  0.00    +0.000 C 
ATOM     31  C   UNL     1     112.443 126.966 139.881  0.00  0.00    +0.000 C 
ATOM     32  C   UNL     1     112.816 128.898 138.937  0.00  0.00    +0.000 C 
BRANCH  27  33
ATOM     33  O   UNL     1     113.999 128.879 140.086  0.00  0.00    +0.000 OA
BRANCH  33  38
ATOM     34  O   UNL     1     113.111 129.504 141.015  0.00  0.00    +0.000 OA
ATOM     35  O   UNL     1     115.069 130.121 140.275  0.00  0.00    +0.000 OA
ATOM     36  O   UNL     1     114.714 131.367 141.297  0.00  0.00    +0.000 OA
ATOM     37  O   UNL     1     113.291 131.370 142.132  0.00  0.00    +0.000 OA
ATOM     38  C   UNL     1     113.822 129.502 140.598  0.00  0.00    +0.000 C 
ATOM     39  C   UNL     1     114.356 130.123 140.692  0.00  0.00    +0.000 C 
ATOM     40  C   UNL     1     114.179 130.746 141.204  0.00  0.00    +0.000 C 
ATOM     41  C   UNL     1     113.468 130.747 141.620  0.00  0.00    +0.000 C 
ATOM     42  C   UNL     1     112.934 130.126 141.526  0.00  0.00    +0.000 C 
BRANCH  42  44
ATOM     43  O   UNL     1     112.121 129.623 142.589  0.00  0.00    +0.000 OA
ATOM     44  C   UNL     1     112.221 130.127 141.943  0.00  0.00    +0.000 C 
ENDBRANCH  42  44
ENDBRANCH  33  38
ENDBRANCH  27  33
ENDBRANCH   1  31
TORSDOF 6
ENDMDL
MODEL 10
REMARK VINA RESULT:     -10.2      9.426     11.023
REMARK  Name = 44257159
REMARK  6 active torsions:
REMARK  status: ('A' for Active; 'I' for Inactive)
REMARK    1  A    between atoms: O_1  and  C_18
REMARK    2  A    between atoms: O_1  and  C_23
REMARK    3  A    between atoms: O_3  and  C_22
REMARK    4  A    between atoms: O_3  and  C_26
REMARK    5  A    between atoms: C_28  and  C_33
REMARK    6  A    between atoms: C_29  and  C_34
REMARK                            x       y       z     vdW  Elec       q    Type
REMARK                         _______ _______ _______ _____ _____    ______ ____
ROOT
ATOM      1  O   UNL     1     112.770 130.235 138.601  0.00  0.00    +0.000 OA
ENDROOT
BRANCH   1   6
ATOM      2  O   UNL     1     113.456 128.350 139.461  0.00  0.00    +0.000 OA
ATOM      3  O   UNL     1     112.306 129.170 137.429  0.00  0.00    +0.000 OA
ATOM      4  O   UNL     1     112.213 127.829 136.906  0.00  0.00    +0.000 OA
ATOM      5  O   UNL     1     113.303 125.617 138.468  0.00  0.00    +0.000 OA
ATOM      6  C   UNL     1     112.921 129.429 138.692  0.00  0.00    +0.000 C 
ATOM      7  C   UNL     1     113.304 129.156 139.369  0.00  0.00    +0.000 C 
ATOM      8  C   UNL     1     112.689 128.897 138.106  0.00  0.00    +0.000 C 
ATOM      9  C   UNL     1     112.841 128.091 138.197  0.00  0.00    +0.000 A 
ATOM     10  C   UNL     1     113.225 127.818 138.875  0.00  0.00    +0.000 A 
ATOM     11  C   UNL     1     112.596 127.546 137.580  0.00  0.00    +0.000 A 
ATOM     12  C   UNL     1     113.389 126.981 138.981  0.00  0.00    +0.000 A 
ATOM     13  C   UNL     1     112.751 126.706 137.669  0.00  0.00    +0.000 A 
ATOM     14  C   UNL     1     113.150 126.422 138.374  0.00  0.00    +0.000 A 
BRANCH   7  18
ATOM     15  O   UNL     1     115.057 131.220 140.285  0.00  0.00    +0.000 OA
ATOM     16  O   UNL     1     112.946 130.285 141.970  0.00  0.00    +0.000 OA
ATOM     17  O   UNL     1     114.234 131.284 141.714  0.00  0.00    +0.000 OA
ATOM     18  C   UNL     1     113.536 129.688 139.956  0.00  0.00    +0.000 A 
ATOM     19  C   UNL     1     113.125 129.721 140.670  0.00  0.00    +0.000 A 
ATOM     20  C   UNL     1     114.180 130.188 139.828  0.00  0.00    +0.000 A 
ATOM     21  C   UNL     1     114.413 130.720 140.413  0.00  0.00    +0.000 A 
ATOM     22  C   UNL     1     113.357 130.253 141.257  0.00  0.00    +0.000 A 
ATOM     23  C   UNL     1     114.001 130.752 141.128  0.00  0.00    +0.000 A 
ENDBRANCH   7  18
ENDBRANCH   1   6
BRANCH   1  31
ATOM     24  O   UNL     1     111.382 130.123 138.923  0.00  0.00    +0.000 OA
ATOM     25  O   UNL     1     110.887 132.060 137.464  0.00  0.00    +0.000 OA
ATOM     26  O   UNL     1     112.440 131.527 137.629  0.00  0.00    +0.000 OA
ATOM     27  C   UNL     1     110.440 131.036 138.354  0.00  0.00    +0.000 C 
ATOM     28  C   UNL     1     111.052 131.414 137.951  0.00  0.00    +0.000 C 
ATOM     29  C   UNL     1     110.605 130.390 138.840  0.00  0.00    +0.000 C 
ATOM     30  C   UNL     1     111.828 131.148 138.033  0.00  0.00    +0.000 C 
ATOM     31  C   UNL     1     111.993 130.502 138.519  0.00  0.00    +0.000 C 
ATOM     32  C   UNL     1     109.994 130.011 139.245  0.00  0.00    +0.000 C 
BRANCH  27  33
ATOM     33  O   UNL     1     109.664 131.302 138.272  0.00  0.00    +0.000 OA
BRANCH  33  38
ATOM     34  O   UNL     1     109.435 130.423 137.169  0.00  0.00    +0.000 OA
ATOM     35  O   UNL     1     108.354 132.201 137.827  0.00  0.00    +0.000 OA
ATOM     36  O   UNL     1     107.470 131.772 136.502  0.00  0.00    +0.000 OA
ATOM     37  O   UNL     1     107.897 130.443 135.622  0.00  0.00    +0.000 OA
ATOM     38  C   UNL     1     109.222 131.087 137.610  0.00  0.00    +0.000 C 
ATOM     39  C   UNL     1     108.567 131.536 137.387  0.00  0.00    +0.000 C 
ATOM     40  C   UNL     1     108.125 131.322 136.724  0.00  0.00    +0.000 C 
ATOM     41  C   UNL     1     108.339 130.658 136.284  0.00  0.00    +0.000 C 
ATOM     42  C   UNL     1     108.993 130.208 136.506  0.00  0.00    +0.000 C 
BRANCH  42  44
ATOM     43  O   UNL     1     109.041 128.789 136.355  0.00  0.00    +0.000 OA
ATOM     44  C   UNL     1     109.207 129.544 136.067  0.00  0.00    +0.000 C 
ENDBRANCH  42  44
ENDBRANCH  33  38
ENDBRANCH  27  33
ENDBRANCH   1  31
TORSDOF 6
ENDMDL
