MODEL 1
REMARK VINA RESULT:     -11.2      0.000      0.000
REMARK  Name = 21676298
REMARK  9 active torsions:
REMARK  status: ('A' for Active; 'I' for Inactive)
REMARK    1  A    between atoms: O_2  and  C_26
REMARK    2  A    between atoms: O_2  and  C_30
REMARK    3  A    between atoms: O_5  and  C_28
REMARK    4  A    between atoms: O_5  and  C_39
REMARK    5  A    between atoms: O_12  and  C_36
REMARK    6  A    between atoms: O_12  and  C_40
REMARK    7  A    between atoms: C_21  and  C_30
REMARK    8  A    between atoms: C_35  and  C_38
REMARK    9  A    between atoms: C_42  and  C_48
REMARK                            x       y       z     vdW  Elec       q    Type
REMARK                         _______ _______ _______ _____ _____    ______ ____
ROOT
ATOM      1  O   UNL     1     113.440 126.264 138.802  0.00  0.00    +0.000 OA
ATOM      2  O   UNL     1     111.036 125.804 138.431  0.00  0.00    +0.000 OA
ATOM      3  O   UNL     1     110.699 126.379 139.711  0.00  0.00    +0.000 OA
ATOM      4  C   UNL     1     112.391 125.746 137.981  0.00  0.00    +0.000 A 
ATOM      5  C   UNL     1     112.584 127.075 140.701  0.00  0.00    +0.000 A 
ATOM      6  C   UNL     1     111.838 125.957 138.555  0.00  0.00    +0.000 A 
ATOM      7  C   UNL     1     113.192 125.900 138.105  0.00  0.00    +0.000 A 
ATOM      8  C   UNL     1     112.085 126.321 139.253  0.00  0.00    +0.000 A 
ATOM      9  C   UNL     1     112.886 126.475 139.377  0.00  0.00    +0.000 A 
ATOM     10  C   UNL     1     113.156 126.853 140.099  0.00  0.00    +0.000 A 
ATOM     11  C   UNL     1     111.750 126.916 140.572  0.00  0.00    +0.000 A 
ATOM     12  C   UNL     1     111.498 126.536 139.843  0.00  0.00    +0.000 A 
ENDROOT
BRANCH   7  14
ATOM     13  O   UNL     1     115.409 125.054 135.811  0.00  0.00    +0.000 OA
ATOM     14  C   UNL     1     113.746 125.689 137.531  0.00  0.00    +0.000 A 
ATOM     15  C   UNL     1     114.061 126.264 137.030  0.00  0.00    +0.000 A 
ATOM     16  C   UNL     1     113.985 124.902 137.459  0.00  0.00    +0.000 A 
ATOM     17  C   UNL     1     114.615 126.052 136.457  0.00  0.00    +0.000 A 
ATOM     18  C   UNL     1     114.540 124.691 136.885  0.00  0.00    +0.000 A 
ATOM     19  C   UNL     1     114.854 125.266 136.384  0.00  0.00    +0.000 A 
ENDBRANCH   7  14
BRANCH   4  20
ATOM     20  O   UNL     1     112.144 125.382 137.284  0.00  0.00    +0.000 OA
BRANCH  20  29
ATOM     21  O   UNL     1     111.563 126.593 136.795  0.00  0.00    +0.000 OA
ATOM     22  O   UNL     1     110.040 126.934 135.270  0.00  0.00    +0.000 OA
ATOM     23  O   UNL     1     110.149 125.288 135.240  0.00  0.00    +0.000 OA
ATOM     24  O   UNL     1     111.201 124.512 136.247  0.00  0.00    +0.000 OA
ATOM     25  C   UNL     1     111.037 126.981 136.291  0.00  0.00    +0.000 C 
ATOM     26  C   UNL     1     110.566 126.546 135.773  0.00  0.00    +0.000 C 
ATOM     27  C   UNL     1     110.620 125.723 135.758  0.00  0.00    +0.000 C 
ATOM     28  C   UNL     1     111.146 125.335 136.261  0.00  0.00    +0.000 C 
ATOM     29  C   UNL     1     111.618 125.770 136.781  0.00  0.00    +0.000 C 
BRANCH  25  30
ATOM     30  C   UNL     1     110.983 127.804 136.307  0.00  0.00    +0.000 C 
BRANCH  30  31
ATOM     31  O   UNL     1     111.667 128.263 136.266  0.00  0.00    +0.000 OA
BRANCH  31  37
ATOM     32  O   UNL     1     111.226 129.131 137.312  0.00  0.00    +0.000 OA
ATOM     33  O   UNL     1     112.666 129.449 135.702  0.00  0.00    +0.000 OA
ATOM     34  O   UNL     1     112.725 130.910 136.466  0.00  0.00    +0.000 OA
ATOM     35  O   UNL     1     111.785 131.186 137.794  0.00  0.00    +0.000 OA
ATOM     36  C   UNL     1     112.196 129.587 136.366  0.00  0.00    +0.000 C 
ATOM     37  C   UNL     1     111.697 128.994 136.648  0.00  0.00    +0.000 C 
ATOM     38  C   UNL     1     112.225 130.317 136.748  0.00  0.00    +0.000 C 
ATOM     39  C   UNL     1     111.756 130.456 137.412  0.00  0.00    +0.000 C 
ATOM     40  C   UNL     1     111.256 129.863 137.694  0.00  0.00    +0.000 C 
ATOM     41  C   UNL     1     110.786 130.000 138.358  0.00  0.00    +0.000 C 
ENDBRANCH  31  37
ENDBRANCH  30  31
ENDBRANCH  25  30
ENDBRANCH  20  29
ENDBRANCH   4  20
BRANCH   5  42
ATOM     42  O   UNL     1     112.835 127.440 141.398  0.00  0.00    +0.000 OA
BRANCH  42  51
ATOM     43  O   UNL     1     113.330 128.689 140.912  0.00  0.00    +0.000 OA
ATOM     44  O   UNL     1     112.030 129.880 142.649  0.00  0.00    +0.000 OA
ATOM     45  O   UNL     1     112.958 130.732 141.583  0.00  0.00    +0.000 OA
ATOM     46  O   UNL     1     111.968 128.233 142.556  0.00  0.00    +0.000 OA
ATOM     47  C   UNL     1     112.463 129.483 142.070  0.00  0.00    +0.000 C 
ATOM     48  C   UNL     1     112.927 129.909 141.538  0.00  0.00    +0.000 C 
ATOM     49  C   UNL     1     112.432 128.660 142.024  0.00  0.00    +0.000 C 
ATOM     50  C   UNL     1     113.360 129.512 140.959  0.00  0.00    +0.000 C 
ATOM     51  C   UNL     1     112.866 128.263 141.444  0.00  0.00    +0.000 C 
BRANCH  50  53
ATOM     52  O   UNL     1     114.629 129.769 140.352  0.00  0.00    +0.000 OA
ATOM     53  C   UNL     1     113.825 129.938 140.425  0.00  0.00    +0.000 C 
ENDBRANCH  50  53
ENDBRANCH  42  51
ENDBRANCH   5  42
TORSDOF 9
ENDMDL
MODEL 2
REMARK VINA RESULT:     -10.7      1.946      3.166
REMARK  Name = 21676298
REMARK  9 active torsions:
REMARK  status: ('A' for Active; 'I' for Inactive)
REMARK    1  A    between atoms: O_2  and  C_26
REMARK    2  A    between atoms: O_2  and  C_30
REMARK    3  A    between atoms: O_5  and  C_28
REMARK    4  A    between atoms: O_5  and  C_39
REMARK    5  A    between atoms: O_12  and  C_36
REMARK    6  A    between atoms: O_12  and  C_40
REMARK    7  A    between atoms: C_21  and  C_30
REMARK    8  A    between atoms: C_35  and  C_38
REMARK    9  A    between atoms: C_42  and  C_48
REMARK                            x       y       z     vdW  Elec       q    Type
REMARK                         _______ _______ _______ _____ _____    ______ ____
ROOT
ATOM      1  O   UNL     1     111.849 126.205 138.745  0.00  0.00    +0.000 OA
ATOM      2  O   UNL     1     113.314 128.116 138.172  0.00  0.00    +0.000 OA
ATOM      3  O   UNL     1     112.987 128.776 139.413  0.00  0.00    +0.000 OA
ATOM      4  C   UNL     1     112.752 126.846 137.840  0.00  0.00    +0.000 A 
ATOM      5  C   UNL     1     111.560 127.482 140.556  0.00  0.00    +0.000 A 
ATOM      6  C   UNL     1     112.826 127.479 138.363  0.00  0.00    +0.000 A 
ATOM      7  C   UNL     1     112.264 126.208 138.031  0.00  0.00    +0.000 A 
ATOM      8  C   UNL     1     112.411 127.477 139.077  0.00  0.00    +0.000 A 
ATOM      9  C   UNL     1     111.923 126.840 139.267  0.00  0.00    +0.000 A 
ATOM     10  C   UNL     1     111.487 126.824 140.007  0.00  0.00    +0.000 A 
ATOM     11  C   UNL     1     112.068 128.146 140.357  0.00  0.00    +0.000 A 
ATOM     12  C   UNL     1     112.497 128.143 139.612  0.00  0.00    +0.000 A 
ENDROOT
BRANCH   7  14
ATOM     13  O   UNL     1     111.969 123.670 135.943  0.00  0.00    +0.000 OA
ATOM     14  C   UNL     1     112.190 125.574 137.509  0.00  0.00    +0.000 A 
ATOM     15  C   UNL     1     111.496 125.476 137.074  0.00  0.00    +0.000 A 
ATOM     16  C   UNL     1     112.811 125.037 137.423  0.00  0.00    +0.000 A 
ATOM     17  C   UNL     1     111.423 124.841 136.552  0.00  0.00    +0.000 A 
ATOM     18  C   UNL     1     112.736 124.403 136.901  0.00  0.00    +0.000 A 
ATOM     19  C   UNL     1     112.042 124.305 136.465  0.00  0.00    +0.000 A 
ENDBRANCH   7  14
BRANCH   4  20
ATOM     20  O   UNL     1     113.166 126.849 137.128  0.00  0.00    +0.000 OA
BRANCH  20  29
ATOM     21  O   UNL     1     112.342 127.851 136.528  0.00  0.00    +0.000 OA
ATOM     22  O   UNL     1     112.795 129.357 135.015  0.00  0.00    +0.000 OA
ATOM     23  O   UNL     1     114.258 128.606 135.156  0.00  0.00    +0.000 OA
ATOM     24  O   UNL     1     114.443 127.352 136.213  0.00  0.00    +0.000 OA
ATOM     25  C   UNL     1     112.249 128.478 136.000  0.00  0.00    +0.000 C 
ATOM     26  C   UNL     1     112.888 128.730 135.543  0.00  0.00    +0.000 C 
ATOM     27  C   UNL     1     113.619 128.355 135.614  0.00  0.00    +0.000 C 
ATOM     28  C   UNL     1     113.712 127.728 136.142  0.00  0.00    +0.000 C 
ATOM     29  C   UNL     1     113.073 127.476 136.599  0.00  0.00    +0.000 C 
BRANCH  25  30
ATOM     30  C   UNL     1     111.519 128.853 135.930  0.00  0.00    +0.000 C 
BRANCH  30  31
ATOM     31  O   UNL     1     110.829 128.404 135.874  0.00  0.00    +0.000 OA
BRANCH  31  37
ATOM     32  O   UNL     1     110.043 129.555 136.192  0.00  0.00    +0.000 OA
ATOM     33  O   UNL     1     109.454 127.563 135.519  0.00  0.00    +0.000 OA
ATOM     34  O   UNL     1     107.981 128.293 135.660  0.00  0.00    +0.000 OA
ATOM     35  O   UNL     1     107.883 129.864 136.155  0.00  0.00    +0.000 OA
ATOM     36  C   UNL     1     109.404 128.349 135.767  0.00  0.00    +0.000 C 
ATOM     37  C   UNL     1     110.091 128.769 135.944  0.00  0.00    +0.000 C 
ATOM     38  C   UNL     1     108.668 128.714 135.837  0.00  0.00    +0.000 C 
ATOM     39  C   UNL     1     108.618 129.499 136.085  0.00  0.00    +0.000 C 
ATOM     40  C   UNL     1     109.306 129.920 136.262  0.00  0.00    +0.000 C 
ATOM     41  C   UNL     1     109.257 130.705 136.510  0.00  0.00    +0.000 C 
ENDBRANCH  31  37
ENDBRANCH  30  31
ENDBRANCH  25  30
ENDBRANCH  20  29
ENDBRANCH   4  20
BRANCH   5  42
ATOM     42  O   UNL     1     111.144 127.476 141.269  0.00  0.00    +0.000 OA
BRANCH  42  51
ATOM     43  O   UNL     1     110.042 128.301 140.886  0.00  0.00    +0.000 OA
ATOM     44  O   UNL     1     108.490 126.779 142.070  0.00  0.00    +0.000 OA
ATOM     45  O   UNL     1     107.906 128.113 141.292  0.00  0.00    +0.000 OA
ATOM     46  O   UNL     1     110.109 126.461 142.058  0.00  0.00    +0.000 OA
ATOM     47  C   UNL     1     109.007 127.287 141.675  0.00  0.00    +0.000 C 
ATOM     48  C   UNL     1     108.715 127.953 141.287  0.00  0.00    +0.000 C 
ATOM     49  C   UNL     1     109.817 127.128 141.669  0.00  0.00    +0.000 C 
ATOM     50  C   UNL     1     109.232 128.460 140.892  0.00  0.00    +0.000 C 
ATOM     51  C   UNL     1     110.334 127.635 141.275  0.00  0.00    +0.000 C 
BRANCH  50  53
ATOM     52  O   UNL     1     108.970 129.170 139.680  0.00  0.00    +0.000 OA
ATOM     53  C   UNL     1     108.941 129.128 140.503  0.00  0.00    +0.000 C 
ENDBRANCH  50  53
ENDBRANCH  42  51
ENDBRANCH   5  42
TORSDOF 9
ENDMDL
MODEL 3
REMARK VINA RESULT:     -10.6      1.330      4.533
REMARK  Name = 21676298
REMARK  9 active torsions:
REMARK  status: ('A' for Active; 'I' for Inactive)
REMARK    1  A    between atoms: O_2  and  C_26
REMARK    2  A    between atoms: O_2  and  C_30
REMARK    3  A    between atoms: O_5  and  C_28
REMARK    4  A    between atoms: O_5  and  C_39
REMARK    5  A    between atoms: O_12  and  C_36
REMARK    6  A    between atoms: O_12  and  C_40
REMARK    7  A    between atoms: C_21  and  C_30
REMARK    8  A    between atoms: C_35  and  C_38
REMARK    9  A    between atoms: C_42  and  C_48
REMARK                            x       y       z     vdW  Elec       q    Type
REMARK                         _______ _______ _______ _____ _____    ______ ____
ROOT
ATOM      1  O   UNL     1     111.279 128.586 136.188  0.00  0.00    +0.000 OA
ATOM      2  O   UNL     1     113.689 128.209 136.603  0.00  0.00    +0.000 OA
ATOM      3  O   UNL     1     113.864 129.583 137.009  0.00  0.00    +0.000 OA
ATOM      4  C   UNL     1     112.412 127.715 136.197  0.00  0.00    +0.000 A 
ATOM      5  C   UNL     1     111.887 130.627 136.865  0.00  0.00    +0.000 A 
ATOM      6  C   UNL     1     112.886 128.335 136.465  0.00  0.00    +0.000 A 
ATOM      7  C   UNL     1     111.608 127.841 136.059  0.00  0.00    +0.000 A 
ATOM      8  C   UNL     1     112.557 129.081 136.594  0.00  0.00    +0.000 A 
ATOM      9  C   UNL     1     111.753 129.206 136.455  0.00  0.00    +0.000 A 
ATOM     10  C   UNL     1     111.399 129.977 136.586  0.00  0.00    +0.000 A 
ATOM     11  C   UNL     1     112.724 130.497 137.009  0.00  0.00    +0.000 A 
ATOM     12  C   UNL     1     113.061 129.717 136.873  0.00  0.00    +0.000 A 
ENDROOT
BRANCH   7  14
ATOM     13  O   UNL     1     109.710 125.364 134.985  0.00  0.00    +0.000 OA
ATOM     14  C   UNL     1     111.134 127.222 135.791  0.00  0.00    +0.000 A 
ATOM     15  C   UNL     1     110.621 126.839 136.312  0.00  0.00    +0.000 A 
ATOM     16  C   UNL     1     111.172 126.985 135.001  0.00  0.00    +0.000 A 
ATOM     17  C   UNL     1     110.147 126.220 136.043  0.00  0.00    +0.000 A 
ATOM     18  C   UNL     1     110.697 126.366 134.733  0.00  0.00    +0.000 A 
ATOM     19  C   UNL     1     110.185 125.983 135.254  0.00  0.00    +0.000 A 
ENDBRANCH   7  14
BRANCH   4  20
ATOM     20  O   UNL     1     112.741 126.971 136.068  0.00  0.00    +0.000 OA
BRANCH  20  29
ATOM     21  O   UNL     1     112.889 126.685 137.461  0.00  0.00    +0.000 OA
ATOM     22  O   UNL     1     114.317 125.417 138.516  0.00  0.00    +0.000 OA
ATOM     23  O   UNL     1     114.810 125.210 136.955  0.00  0.00    +0.000 OA
ATOM     24  O   UNL     1     114.022 125.987 135.731  0.00  0.00    +0.000 OA
ATOM     25  C   UNL     1     113.283 126.297 138.072  0.00  0.00    +0.000 C 
ATOM     26  C   UNL     1     113.923 125.805 137.904  0.00  0.00    +0.000 C 
ATOM     27  C   UNL     1     114.170 125.702 137.123  0.00  0.00    +0.000 C 
ATOM     28  C   UNL     1     113.776 126.090 136.511  0.00  0.00    +0.000 C 
ATOM     29  C   UNL     1     113.135 126.582 136.680  0.00  0.00    +0.000 C 
BRANCH  25  30
ATOM     30  C   UNL     1     113.036 126.400 138.852  0.00  0.00    +0.000 C 
BRANCH  30  31
ATOM     31  O   UNL     1     112.233 126.380 139.037  0.00  0.00    +0.000 OA
BRANCH  31  37
ATOM     32  O   UNL     1     112.412 127.141 140.233  0.00  0.00    +0.000 OA
ATOM     33  O   UNL     1     110.849 125.730 139.658  0.00  0.00    +0.000 OA
ATOM     34  O   UNL     1     110.338 126.164 141.165  0.00  0.00    +0.000 OA
ATOM     35  O   UNL     1     111.209 127.250 142.051  0.00  0.00    +0.000 OA
ATOM     36  C   UNL     1     111.285 126.272 140.102  0.00  0.00    +0.000 C 
ATOM     37  C   UNL     1     111.976 126.598 139.791  0.00  0.00    +0.000 C 
ATOM     38  C   UNL     1     111.029 126.490 140.855  0.00  0.00    +0.000 C 
ATOM     39  C   UNL     1     111.465 127.032 141.298  0.00  0.00    +0.000 C 
ATOM     40  C   UNL     1     112.156 127.358 140.988  0.00  0.00    +0.000 C 
ATOM     41  C   UNL     1     112.592 127.901 141.430  0.00  0.00    +0.000 C 
ENDBRANCH  31  37
ENDBRANCH  30  31
ENDBRANCH  25  30
ENDBRANCH  20  29
ENDBRANCH   4  20
BRANCH   5  42
ATOM     42  O   UNL     1     111.555 131.372 136.993  0.00  0.00    +0.000 OA
BRANCH  42  51
ATOM     43  O   UNL     1     111.178 131.150 138.354  0.00  0.00    +0.000 OA
ATOM     44  O   UNL     1     109.126 132.490 138.005  0.00  0.00    +0.000 OA
ATOM     45  O   UNL     1     109.435 131.821 139.482  0.00  0.00    +0.000 OA
ATOM     46  O   UNL     1     110.187 132.264 136.760  0.00  0.00    +0.000 OA
ATOM     47  C   UNL     1     109.810 132.043 138.121  0.00  0.00    +0.000 C 
ATOM     48  C   UNL     1     109.964 131.709 138.860  0.00  0.00    +0.000 C 
ATOM     49  C   UNL     1     110.341 131.931 137.499  0.00  0.00    +0.000 C 
ATOM     50  C   UNL     1     110.648 131.263 138.976  0.00  0.00    +0.000 C 
ATOM     51  C   UNL     1     111.025 131.484 137.615  0.00  0.00    +0.000 C 
BRANCH  50  53
ATOM     52  O   UNL     1     111.557 130.989 140.045  0.00  0.00    +0.000 OA
ATOM     53  C   UNL     1     110.803 130.929 139.715  0.00  0.00    +0.000 C 
ENDBRANCH  50  53
ENDBRANCH  42  51
ENDBRANCH   5  42
TORSDOF 9
ENDMDL
MODEL 4
REMARK VINA RESULT:     -10.6      1.466      4.728
REMARK  Name = 21676298
REMARK  9 active torsions:
REMARK  status: ('A' for Active; 'I' for Inactive)
REMARK    1  A    between atoms: O_2  and  C_26
REMARK    2  A    between atoms: O_2  and  C_30
REMARK    3  A    between atoms: O_5  and  C_28
REMARK    4  A    between atoms: O_5  and  C_39
REMARK    5  A    between atoms: O_12  and  C_36
REMARK    6  A    between atoms: O_12  and  C_40
REMARK    7  A    between atoms: C_21  and  C_30
REMARK    8  A    between atoms: C_35  and  C_38
REMARK    9  A    between atoms: C_42  and  C_48
REMARK                            x       y       z     vdW  Elec       q    Type
REMARK                         _______ _______ _______ _____ _____    ______ ____
ROOT
ATOM      1  O   UNL     1     112.078 130.562 138.902  0.00  0.00    +0.000 OA
ATOM      2  O   UNL     1     114.438 130.606 138.159  0.00  0.00    +0.000 OA
ATOM      3  O   UNL     1     114.885 130.152 139.453  0.00  0.00    +0.000 OA
ATOM      4  C   UNL     1     113.051 130.809 137.885  0.00  0.00    +0.000 A 
ATOM      5  C   UNL     1     113.094 129.875 140.770  0.00  0.00    +0.000 A 
ATOM      6  C   UNL     1     113.651 130.592 138.406  0.00  0.00    +0.000 A 
ATOM      7  C   UNL     1     112.264 130.795 138.133  0.00  0.00    +0.000 A 
ATOM      8  C   UNL     1     113.466 130.359 139.176  0.00  0.00    +0.000 A 
ATOM      9  C   UNL     1     112.679 130.344 139.424  0.00  0.00    +0.000 A 
ATOM     10  C   UNL     1     112.473 130.104 140.222  0.00  0.00    +0.000 A 
ATOM     11  C   UNL     1     113.913 129.891 140.512  0.00  0.00    +0.000 A 
ATOM     12  C   UNL     1     114.101 130.134 139.709  0.00  0.00    +0.000 A 
ENDROOT
BRANCH   7  14
ATOM     13  O   UNL     1     109.858 131.663 136.048  0.00  0.00    +0.000 OA
ATOM     14  C   UNL     1     111.663 131.012 137.612  0.00  0.00    +0.000 A 
ATOM     15  C   UNL     1     111.556 131.806 137.413  0.00  0.00    +0.000 A 
ATOM     16  C   UNL     1     111.168 130.436 137.289  0.00  0.00    +0.000 A 
ATOM     17  C   UNL     1     110.954 132.023 136.892  0.00  0.00    +0.000 A 
ATOM     18  C   UNL     1     110.567 130.653 136.768  0.00  0.00    +0.000 A 
ATOM     19  C   UNL     1     110.460 131.447 136.569  0.00  0.00    +0.000 A 
ENDBRANCH   7  14
BRANCH   4  20
ATOM     20  O   UNL     1     113.237 131.042 137.116  0.00  0.00    +0.000 OA
BRANCH  20  29
ATOM     21  O   UNL     1     113.522 129.717 136.664  0.00  0.00    +0.000 OA
ATOM     22  O   UNL     1     114.893 128.994 135.128  0.00  0.00    +0.000 OA
ATOM     23  O   UNL     1     115.151 130.622 135.036  0.00  0.00    +0.000 OA
ATOM     24  O   UNL     1     114.323 131.645 136.030  0.00  0.00    +0.000 OA
ATOM     25  C   UNL     1     113.936 129.205 136.167  0.00  0.00    +0.000 C 
ATOM     26  C   UNL     1     114.479 129.506 135.625  0.00  0.00    +0.000 C 
ATOM     27  C   UNL     1     114.608 130.320 135.579  0.00  0.00    +0.000 C 
ATOM     28  C   UNL     1     114.194 130.832 136.076  0.00  0.00    +0.000 C 
ATOM     29  C   UNL     1     113.651 130.530 136.619  0.00  0.00    +0.000 C 
BRANCH  25  30
ATOM     30  C   UNL     1     113.807 128.392 136.213  0.00  0.00    +0.000 C 
BRANCH  30  31
ATOM     31  O   UNL     1     113.037 128.097 136.225  0.00  0.00    +0.000 OA
BRANCH  31  37
ATOM     32  O   UNL     1     113.440 126.890 136.877  0.00  0.00    +0.000 OA
ATOM     33  O   UNL     1     111.693 127.335 135.646  0.00  0.00    +0.000 OA
ATOM     34  O   UNL     1     111.423 125.748 136.007  0.00  0.00    +0.000 OA
ATOM     35  O   UNL     1     112.498 124.922 136.948  0.00  0.00    +0.000 OA
ATOM     36  C   UNL     1     112.230 126.922 136.116  0.00  0.00    +0.000 C 
ATOM     37  C   UNL     1     112.902 127.302 136.406  0.00  0.00    +0.000 C 
ATOM     38  C   UNL     1     112.095 126.129 136.297  0.00  0.00    +0.000 C 
ATOM     39  C   UNL     1     112.632 125.715 136.768  0.00  0.00    +0.000 C 
ATOM     40  C   UNL     1     113.305 126.096 137.057  0.00  0.00    +0.000 C 
ATOM     41  C   UNL     1     113.842 125.683 137.528  0.00  0.00    +0.000 C 
ENDBRANCH  31  37
ENDBRANCH  30  31
ENDBRANCH  25  30
ENDBRANCH  20  29
ENDBRANCH   4  20
BRANCH   5  42
ATOM     42  O   UNL     1     112.905 129.643 141.539  0.00  0.00    +0.000 OA
BRANCH  42  51
ATOM     43  O   UNL     1     112.637 128.272 141.238  0.00  0.00    +0.000 OA
ATOM     44  O   UNL     1     110.803 128.264 142.900  0.00  0.00    +0.000 OA
ATOM     45  O   UNL     1     111.147 126.896 142.043  0.00  0.00    +0.000 OA
ATOM     46  O   UNL     1     111.682 129.638 142.648  0.00  0.00    +0.000 OA
ATOM     47  C   UNL     1     111.414 128.267 142.346  0.00  0.00    +0.000 C 
ATOM     48  C   UNL     1     111.586 127.583 141.918  0.00  0.00    +0.000 C 
ATOM     49  C   UNL     1     111.854 128.954 142.220  0.00  0.00    +0.000 C 
ATOM     50  C   UNL     1     112.197 127.585 141.364  0.00  0.00    +0.000 C 
ATOM     51  C   UNL     1     112.465 128.956 141.666  0.00  0.00    +0.000 C 
BRANCH  50  53
ATOM     52  O   UNL     1     113.149 126.641 140.869  0.00  0.00    +0.000 OA
ATOM     53  C   UNL     1     112.369 126.901 140.935  0.00  0.00    +0.000 C 
ENDBRANCH  50  53
ENDBRANCH  42  51
ENDBRANCH   5  42
TORSDOF 9
ENDMDL
MODEL 5
REMARK VINA RESULT:     -10.6      2.124      5.479
REMARK  Name = 21676298
REMARK  9 active torsions:
REMARK  status: ('A' for Active; 'I' for Inactive)
REMARK    1  A    between atoms: O_2  and  C_26
REMARK    2  A    between atoms: O_2  and  C_30
REMARK    3  A    between atoms: O_5  and  C_28
REMARK    4  A    between atoms: O_5  and  C_39
REMARK    5  A    between atoms: O_12  and  C_36
REMARK    6  A    between atoms: O_12  and  C_40
REMARK    7  A    between atoms: C_21  and  C_30
REMARK    8  A    between atoms: C_35  and  C_38
REMARK    9  A    between atoms: C_42  and  C_48
REMARK                            x       y       z     vdW  Elec       q    Type
REMARK                         _______ _______ _______ _____ _____    ______ ____
ROOT
ATOM      1  O   UNL     1     111.827 129.637 137.123  0.00  0.00    +0.000 OA
ATOM      2  O   UNL     1     111.821 129.044 139.525  0.00  0.00    +0.000 OA
ATOM      3  O   UNL     1     110.385 128.898 139.516  0.00  0.00    +0.000 OA
ATOM      4  C   UNL     1     112.534 129.409 138.343  0.00  0.00    +0.000 A 
ATOM      5  C   UNL     1     109.637 129.331 137.450  0.00  0.00    +0.000 A 
ATOM      6  C   UNL     1     111.823 129.242 138.725  0.00  0.00    +0.000 A 
ATOM      7  C   UNL     1     112.536 129.607 137.542  0.00  0.00    +0.000 A 
ATOM      8  C   UNL     1     111.113 129.272 138.306  0.00  0.00    +0.000 A 
ATOM      9  C   UNL     1     111.114 129.469 137.505  0.00  0.00    +0.000 A 
ATOM     10  C   UNL     1     110.382 129.504 137.058  0.00  0.00    +0.000 A 
ATOM     11  C   UNL     1     109.635 129.125 138.284  0.00  0.00    +0.000 A 
ATOM     12  C   UNL     1     110.378 129.095 138.715  0.00  0.00    +0.000 A 
ENDROOT
BRANCH   7  14
ATOM     13  O   UNL     1     115.382 130.279 136.013  0.00  0.00    +0.000 OA
ATOM     14  C   UNL     1     113.248 129.774 137.160  0.00  0.00    +0.000 A 
ATOM     15  C   UNL     1     113.568 129.231 136.627  0.00  0.00    +0.000 A 
ATOM     16  C   UNL     1     113.639 130.486 137.310  0.00  0.00    +0.000 A 
ATOM     17  C   UNL     1     114.280 129.400 136.245  0.00  0.00    +0.000 A 
ATOM     18  C   UNL     1     114.350 130.653 136.927  0.00  0.00    +0.000 A 
ATOM     19  C   UNL     1     114.671 130.110 136.395  0.00  0.00    +0.000 A 
ENDBRANCH   7  14
BRANCH   4  20
ATOM     20  O   UNL     1     113.244 129.379 138.761  0.00  0.00    +0.000 OA
BRANCH  20  29
ATOM     21  O   UNL     1     113.252 127.954 138.867  0.00  0.00    +0.000 OA
ATOM     22  O   UNL     1     114.077 126.638 140.400  0.00  0.00    +0.000 OA
ATOM     23  O   UNL     1     114.478 128.118 141.010  0.00  0.00    +0.000 OA
ATOM     24  O   UNL     1     114.061 129.489 140.191  0.00  0.00    +0.000 OA
ATOM     25  C   UNL     1     113.461 127.268 139.277  0.00  0.00    +0.000 C 
ATOM     26  C   UNL     1     113.869 127.324 139.991  0.00  0.00    +0.000 C 
ATOM     27  C   UNL     1     114.069 128.063 140.296  0.00  0.00    +0.000 C 
ATOM     28  C   UNL     1     113.861 128.748 139.886  0.00  0.00    +0.000 C 
ATOM     29  C   UNL     1     113.452 128.694 139.171  0.00  0.00    +0.000 C 
BRANCH  25  30
ATOM     30  C   UNL     1     113.260 126.529 138.972  0.00  0.00    +0.000 C 
BRANCH  30  31
ATOM     31  O   UNL     1     113.502 126.317 138.212  0.00  0.00    +0.000 OA
BRANCH  31  37
ATOM     32  O   UNL     1     112.247 125.836 137.728  0.00  0.00    +0.000 OA
ATOM     33  O   UNL     1     114.273 125.072 137.452  0.00  0.00    +0.000 OA
ATOM     34  O   UNL     1     113.404 123.968 136.587  0.00  0.00    +0.000 OA
ATOM     35  O   UNL     1     111.763 124.109 136.483  0.00  0.00    +0.000 OA
ATOM     36  C   UNL     1     113.453 125.142 137.399  0.00  0.00    +0.000 C 
ATOM     37  C   UNL     1     113.067 125.765 137.779  0.00  0.00    +0.000 C 
ATOM     38  C   UNL     1     113.018 124.591 136.967  0.00  0.00    +0.000 C 
ATOM     39  C   UNL     1     112.198 124.661 136.915  0.00  0.00    +0.000 C 
ATOM     40  C   UNL     1     111.812 125.283 137.295  0.00  0.00    +0.000 C 
ATOM     41  C   UNL     1     110.992 125.354 137.243  0.00  0.00    +0.000 C 
ENDBRANCH  31  37
ENDBRANCH  30  31
ENDBRANCH  25  30
ENDBRANCH  20  29
ENDBRANCH   4  20
BRANCH   5  42
ATOM     42  O   UNL     1     108.928 129.362 137.028  0.00  0.00    +0.000 OA
BRANCH  42  51
ATOM     43  O   UNL     1     108.568 130.724 137.269  0.00  0.00    +0.000 OA
ATOM     44  O   UNL     1     107.950 130.982 134.886  0.00  0.00    +0.000 OA
ATOM     45  O   UNL     1     107.797 132.258 135.922  0.00  0.00    +0.000 OA
ATOM     46  O   UNL     1     108.516 129.534 135.439  0.00  0.00    +0.000 OA
ATOM     47  C   UNL     1     108.156 130.896 135.680  0.00  0.00    +0.000 C 
ATOM     48  C   UNL     1     108.079 131.534 136.198  0.00  0.00    +0.000 C 
ATOM     49  C   UNL     1     108.439 130.172 135.957  0.00  0.00    +0.000 C 
ATOM     50  C   UNL     1     108.285 131.448 136.992  0.00  0.00    +0.000 C 
ATOM     51  C   UNL     1     108.645 130.086 136.751  0.00  0.00    +0.000 C 
BRANCH  50  53
ATOM     52  O   UNL     1     107.813 131.988 138.228  0.00  0.00    +0.000 OA
ATOM     53  C   UNL     1     108.209 132.086 137.510  0.00  0.00    +0.000 C 
ENDBRANCH  50  53
ENDBRANCH  42  51
ENDBRANCH   5  42
TORSDOF 9
ENDMDL
MODEL 6
REMARK VINA RESULT:     -10.6      1.751      5.522
REMARK  Name = 21676298
REMARK  9 active torsions:
REMARK  status: ('A' for Active; 'I' for Inactive)
REMARK    1  A    between atoms: O_2  and  C_26
REMARK    2  A    between atoms: O_2  and  C_30
REMARK    3  A    between atoms: O_5  and  C_28
REMARK    4  A    between atoms: O_5  and  C_39
REMARK    5  A    between atoms: O_12  and  C_36
REMARK    6  A    between atoms: O_12  and  C_40
REMARK    7  A    between atoms: C_21  and  C_30
REMARK    8  A    between atoms: C_35  and  C_38
REMARK    9  A    between atoms: C_42  and  C_48
REMARK                            x       y       z     vdW  Elec       q    Type
REMARK                         _______ _______ _______ _____ _____    ______ ____
ROOT
ATOM      1  O   UNL     1     112.854 128.501 138.091  0.00  0.00    +0.000 OA
ATOM      2  O   UNL     1     113.829 128.446 140.365  0.00  0.00    +0.000 OA
ATOM      3  O   UNL     1     113.359 127.096 140.565  0.00  0.00    +0.000 OA
ATOM      4  C   UNL     1     113.580 129.141 139.142  0.00  0.00    +0.000 A 
ATOM      5  C   UNL     1     112.277 126.435 138.719  0.00  0.00    +0.000 A 
ATOM      6  C   UNL     1     113.504 128.465 139.607  0.00  0.00    +0.000 A 
ATOM      7  C   UNL     1     113.255 129.160 138.384  0.00  0.00    +0.000 A 
ATOM      8  C   UNL     1     113.103 127.805 139.314  0.00  0.00    +0.000 A 
ATOM      9  C   UNL     1     112.778 127.824 138.556  0.00  0.00    +0.000 A 
ATOM     10  C   UNL     1     112.359 127.144 138.240  0.00  0.00    +0.000 A 
ATOM     11  C   UNL     1     112.615 126.416 139.509  0.00  0.00    +0.000 A 
ATOM     12  C   UNL     1     113.031 127.106 139.808  0.00  0.00    +0.000 A 
ENDROOT
BRANCH   7  14
ATOM     13  O   UNL     1     113.559 131.867 136.522  0.00  0.00    +0.000 OA
ATOM     14  C   UNL     1     113.330 129.837 137.919  0.00  0.00    +0.000 A 
ATOM     15  C   UNL     1     112.678 130.326 137.793  0.00  0.00    +0.000 A 
ATOM     16  C   UNL     1     114.059 130.024 137.579  0.00  0.00    +0.000 A 
ATOM     17  C   UNL     1     112.755 131.003 137.327  0.00  0.00    +0.000 A 
ATOM     18  C   UNL     1     114.134 130.701 137.114  0.00  0.00    +0.000 A 
ATOM     19  C   UNL     1     113.482 131.190 136.988  0.00  0.00    +0.000 A 
ENDBRANCH   7  14
BRANCH   4  20
ATOM     20  O   UNL     1     113.980 129.800 139.435  0.00  0.00    +0.000 OA
BRANCH  20  29
ATOM     21  O   UNL     1     112.908 130.164 140.308  0.00  0.00    +0.000 OA
ATOM     22  O   UNL     1     112.903 131.304 142.168  0.00  0.00    +0.000 OA
ATOM     23  O   UNL     1     114.509 131.330 141.790  0.00  0.00    +0.000 OA
ATOM     24  O   UNL     1     115.048 130.578 140.424  0.00  0.00    +0.000 OA
ATOM     25  C   UNL     1     112.639 130.540 140.991  0.00  0.00    +0.000 C 
ATOM     26  C   UNL     1     113.172 130.928 141.485  0.00  0.00    +0.000 C 
ATOM     27  C   UNL     1     113.976 130.941 141.296  0.00  0.00    +0.000 C 
ATOM     28  C   UNL     1     114.245 130.565 140.613  0.00  0.00    +0.000 C 
ATOM     29  C   UNL     1     113.711 130.176 140.118  0.00  0.00    +0.000 C 
BRANCH  25  30
ATOM     30  C   UNL     1     111.836 130.527 141.179  0.00  0.00    +0.000 C 
BRANCH  30  31
ATOM     31  O   UNL     1     111.290 130.889 140.679  0.00  0.00    +0.000 OA
BRANCH  31  37
ATOM     32  O   UNL     1     110.409 129.764 140.712  0.00  0.00    +0.000 OA
ATOM     33  O   UNL     1     110.022 131.869 140.284  0.00  0.00    +0.000 OA
ATOM     34  O   UNL     1     108.508 131.235 140.119  0.00  0.00    +0.000 OA
ATOM     35  O   UNL     1     108.261 129.619 140.350  0.00  0.00    +0.000 OA
ATOM     36  C   UNL     1     109.898 131.062 140.399  0.00  0.00    +0.000 C 
ATOM     37  C   UNL     1     110.532 130.572 140.596  0.00  0.00    +0.000 C 
ATOM     38  C   UNL     1     109.142 130.744 140.317  0.00  0.00    +0.000 C 
ATOM     39  C   UNL     1     109.018 129.937 140.432  0.00  0.00    +0.000 C 
ATOM     40  C   UNL     1     109.651 129.447 140.629  0.00  0.00    +0.000 C 
ATOM     41  C   UNL     1     109.528 128.639 140.745  0.00  0.00    +0.000 C 
ENDBRANCH  31  37
ENDBRANCH  30  31
ENDBRANCH  25  30
ENDBRANCH  20  29
ENDBRANCH   4  20
BRANCH   5  42
ATOM     42  O   UNL     1     111.875 125.778 138.423  0.00  0.00    +0.000 OA
BRANCH  42  51
ATOM     43  O   UNL     1     113.040 125.155 137.878  0.00  0.00    +0.000 OA
ATOM     44  O   UNL     1     111.670 124.181 136.061  0.00  0.00    +0.000 OA
ATOM     45  O   UNL     1     113.292 123.883 136.123  0.00  0.00    +0.000 OA
ATOM     46  O   UNL     1     110.962 125.129 137.212  0.00  0.00    +0.000 OA
ATOM     47  C   UNL     1     112.126 124.506 136.667  0.00  0.00    +0.000 C 
ATOM     48  C   UNL     1     112.937 124.356 136.697  0.00  0.00    +0.000 C 
ATOM     49  C   UNL     1     111.772 124.979 137.242  0.00  0.00    +0.000 C 
ATOM     50  C   UNL     1     113.394 124.681 137.303  0.00  0.00    +0.000 C 
ATOM     51  C   UNL     1     112.229 125.304 137.848  0.00  0.00    +0.000 C 
BRANCH  50  53
ATOM     52  O   UNL     1     114.742 125.150 137.229  0.00  0.00    +0.000 OA
ATOM     53  C   UNL     1     114.205 124.532 137.334  0.00  0.00    +0.000 C 
ENDBRANCH  50  53
ENDBRANCH  42  51
ENDBRANCH   5  42
TORSDOF 9
ENDMDL
MODEL 7
REMARK VINA RESULT:     -10.6      1.937      5.322
REMARK  Name = 21676298
REMARK  9 active torsions:
REMARK  status: ('A' for Active; 'I' for Inactive)
REMARK    1  A    between atoms: O_2  and  C_26
REMARK    2  A    between atoms: O_2  and  C_30
REMARK    3  A    between atoms: O_5  and  C_28
REMARK    4  A    between atoms: O_5  and  C_39
REMARK    5  A    between atoms: O_12  and  C_36
REMARK    6  A    between atoms: O_12  and  C_40
REMARK    7  A    between atoms: C_21  and  C_30
REMARK    8  A    between atoms: C_35  and  C_38
REMARK    9  A    between atoms: C_42  and  C_48
REMARK                            x       y       z     vdW  Elec       q    Type
REMARK                         _______ _______ _______ _____ _____    ______ ____
ROOT
ATOM      1  O   UNL     1     111.900 126.576 136.388  0.00  0.00    +0.000 OA
ATOM      2  O   UNL     1     113.239 127.885 138.007  0.00  0.00    +0.000 OA
ATOM      3  O   UNL     1     112.853 129.122 137.371  0.00  0.00    +0.000 OA
ATOM      4  C   UNL     1     112.769 126.626 137.522  0.00  0.00    +0.000 A 
ATOM      5  C   UNL     1     111.500 128.647 135.649  0.00  0.00    +0.000 A 
ATOM      6  C   UNL     1     112.793 127.449 137.467  0.00  0.00    +0.000 A 
ATOM      7  C   UNL     1     112.323 126.190 136.982  0.00  0.00    +0.000 A 
ATOM      8  C   UNL     1     112.370 127.836 136.873  0.00  0.00    +0.000 A 
ATOM      9  C   UNL     1     111.924 127.400 136.334  0.00  0.00    +0.000 A 
ATOM     10  C   UNL     1     111.480 127.790 135.711  0.00  0.00    +0.000 A 
ATOM     11  C   UNL     1     111.965 129.102 136.211  0.00  0.00    +0.000 A 
ATOM     12  C   UNL     1     112.403 128.693 136.827  0.00  0.00    +0.000 A 
ENDROOT
BRANCH   7  14
ATOM     13  O   UNL     1     112.228 122.898 137.197  0.00  0.00    +0.000 OA
ATOM     14  C   UNL     1     112.298 125.367 137.036  0.00  0.00    +0.000 A 
ATOM     15  C   UNL     1     111.621 124.992 137.320  0.00  0.00    +0.000 A 
ATOM     16  C   UNL     1     112.953 124.920 136.806  0.00  0.00    +0.000 A 
ATOM     17  C   UNL     1     111.598 124.169 137.374  0.00  0.00    +0.000 A 
ATOM     18  C   UNL     1     112.928 124.097 136.860  0.00  0.00    +0.000 A 
ATOM     19  C   UNL     1     112.251 123.722 137.144  0.00  0.00    +0.000 A 
ENDBRANCH   7  14
BRANCH   4  20
ATOM     20  O   UNL     1     113.191 126.240 138.115  0.00  0.00    +0.000 OA
BRANCH  20  29
ATOM     21  O   UNL     1     112.321 126.581 139.196  0.00  0.00    +0.000 OA
ATOM     22  O   UNL     1     112.754 127.092 141.273  0.00  0.00    +0.000 OA
ATOM     23  O   UNL     1     114.277 126.836 140.691  0.00  0.00    +0.000 OA
ATOM     24  O   UNL     1     114.495 126.410 139.112  0.00  0.00    +0.000 OA
ATOM     25  C   UNL     1     112.212 126.795 139.986  0.00  0.00    +0.000 C 
ATOM     26  C   UNL     1     112.864 126.879 140.483  0.00  0.00    +0.000 C 
ATOM     27  C   UNL     1     113.625 126.751 140.193  0.00  0.00    +0.000 C 
ATOM     28  C   UNL     1     113.734 126.538 139.403  0.00  0.00    +0.000 C 
ATOM     29  C   UNL     1     113.082 126.453 138.905  0.00  0.00    +0.000 C 
BRANCH  25  30
ATOM     30  C   UNL     1     111.451 126.923 140.276  0.00  0.00    +0.000 C 
BRANCH  30  31
ATOM     31  O   UNL     1     110.879 126.333 140.208  0.00  0.00    +0.000 OA
BRANCH  31  37
ATOM     32  O   UNL     1     109.880 127.203 140.744  0.00  0.00    +0.000 OA
ATOM     33  O   UNL     1     109.878 125.041 140.440  0.00  0.00    +0.000 OA
ATOM     34  O   UNL     1     108.379 125.266 141.092  0.00  0.00    +0.000 OA
ATOM     35  O   UNL     1     107.881 126.782 141.512  0.00  0.00    +0.000 OA
ATOM     36  C   UNL     1     109.628 125.799 140.650  0.00  0.00    +0.000 C 
ATOM     37  C   UNL     1     110.129 126.445 140.534  0.00  0.00    +0.000 C 
ATOM     38  C   UNL     1     108.879 125.912 140.976  0.00  0.00    +0.000 C 
ATOM     39  C   UNL     1     108.630 126.670 141.186  0.00  0.00    +0.000 C 
ATOM     40  C   UNL     1     109.130 127.315 141.070  0.00  0.00    +0.000 C 
ATOM     41  C   UNL     1     108.882 128.073 141.280  0.00  0.00    +0.000 C 
ENDBRANCH  31  37
ENDBRANCH  30  31
ENDBRANCH  25  30
ENDBRANCH  20  29
ENDBRANCH   4  20
BRANCH   5  42
ATOM     42  O   UNL     1     111.076 129.031 135.054  0.00  0.00    +0.000 OA
BRANCH  42  51
ATOM     43  O   UNL     1     109.763 128.867 135.593  0.00  0.00    +0.000 OA
ATOM     44  O   UNL     1     109.202 131.185 134.931  0.00  0.00    +0.000 OA
ATOM     45  O   UNL     1     108.076 130.248 135.692  0.00  0.00    +0.000 OA
ATOM     46  O   UNL     1     110.702 130.576 134.612  0.00  0.00    +0.000 OA
ATOM     47  C   UNL     1     109.389 130.413 135.152  0.00  0.00    +0.000 C 
ATOM     48  C   UNL     1     108.826 129.945 135.532  0.00  0.00    +0.000 C 
ATOM     49  C   UNL     1     110.139 130.108 134.992  0.00  0.00    +0.000 C 
ATOM     50  C   UNL     1     109.013 129.172 135.753  0.00  0.00    +0.000 C 
ATOM     51  C   UNL     1     110.326 129.335 135.213  0.00  0.00    +0.000 C 
BRANCH  50  53
ATOM     52  O   UNL     1     108.193 128.002 135.783  0.00  0.00    +0.000 OA
ATOM     53  C   UNL     1     108.450 128.703 136.133  0.00  0.00    +0.000 C 
ENDBRANCH  50  53
ENDBRANCH  42  51
ENDBRANCH   5  42
TORSDOF 9
ENDMDL
MODEL 8
REMARK VINA RESULT:     -10.6      2.095      4.902
REMARK  Name = 21676298
REMARK  9 active torsions:
REMARK  status: ('A' for Active; 'I' for Inactive)
REMARK    1  A    between atoms: O_2  and  C_26
REMARK    2  A    between atoms: O_2  and  C_30
REMARK    3  A    between atoms: O_5  and  C_28
REMARK    4  A    between atoms: O_5  and  C_39
REMARK    5  A    between atoms: O_12  and  C_36
REMARK    6  A    between atoms: O_12  and  C_40
REMARK    7  A    between atoms: C_21  and  C_30
REMARK    8  A    between atoms: C_35  and  C_38
REMARK    9  A    between atoms: C_42  and  C_48
REMARK                            x       y       z     vdW  Elec       q    Type
REMARK                         _______ _______ _______ _____ _____    ______ ____
ROOT
ATOM      1  O   UNL     1     112.034 129.321 135.470  0.00  0.00    +0.000 OA
ATOM      2  O   UNL     1     111.810 126.980 136.243  0.00  0.00    +0.000 OA
ATOM      3  O   UNL     1     110.371 127.061 136.164  0.00  0.00    +0.000 OA
ATOM      4  C   UNL     1     112.632 128.097 135.900  0.00  0.00    +0.000 A 
ATOM      5  C   UNL     1     109.808 129.111 135.458  0.00  0.00    +0.000 A 
ATOM      6  C   UNL     1     111.885 127.760 135.985  0.00  0.00    +0.000 A 
ATOM      7  C   UNL     1     112.707 128.877 135.643  0.00  0.00    +0.000 A 
ATOM      8  C   UNL     1     111.210 128.203 135.813  0.00  0.00    +0.000 A 
ATOM      9  C   UNL     1     111.285 128.984 135.555  0.00  0.00    +0.000 A 
ATOM     10  C   UNL     1     110.591 129.456 135.372  0.00  0.00    +0.000 A 
ATOM     11  C   UNL     1     109.731 128.298 135.727  0.00  0.00    +0.000 A 
ATOM     12  C   UNL     1     110.437 127.841 135.905  0.00  0.00    +0.000 A 
ENDROOT
BRANCH   7  14
ATOM     13  O   UNL     1     115.699 130.227 135.304  0.00  0.00    +0.000 OA
ATOM     14  C   UNL     1     113.455 129.214 135.557  0.00  0.00    +0.000 A 
ATOM     15  C   UNL     1     113.936 128.996 134.924  0.00  0.00    +0.000 A 
ATOM     16  C   UNL     1     113.721 129.770 136.107  0.00  0.00    +0.000 A 
ATOM     17  C   UNL     1     114.684 129.334 134.840  0.00  0.00    +0.000 A 
ATOM     18  C   UNL     1     114.469 130.107 136.022  0.00  0.00    +0.000 A 
ATOM     19  C   UNL     1     114.951 129.889 135.388  0.00  0.00    +0.000 A 
ENDBRANCH   7  14
BRANCH   4  20
ATOM     20  O   UNL     1     113.306 127.654 136.073  0.00  0.00    +0.000 OA
BRANCH  20  29
ATOM     21  O   UNL     1     113.143 127.715 137.492  0.00  0.00    +0.000 OA
ATOM     22  O   UNL     1     113.658 126.280 139.053  0.00  0.00    +0.000 OA
ATOM     23  O   UNL     1     114.161 125.470 137.707  0.00  0.00    +0.000 OA
ATOM     24  O   UNL     1     113.985 126.157 136.217  0.00  0.00    +0.000 OA
ATOM     25  C   UNL     1     113.231 127.372 138.237  0.00  0.00    +0.000 C 
ATOM     26  C   UNL     1     113.570 126.624 138.308  0.00  0.00    +0.000 C 
ATOM     27  C   UNL     1     113.822 126.218 137.635  0.00  0.00    +0.000 C 
ATOM     28  C   UNL     1     113.734 126.561 136.890  0.00  0.00    +0.000 C 
ATOM     29  C   UNL     1     113.394 127.310 136.818  0.00  0.00    +0.000 C 
BRANCH  25  30
ATOM     30  C   UNL     1     112.979 127.777 138.909  0.00  0.00    +0.000 C 
BRANCH  30  31
ATOM     31  O   UNL     1     113.193 128.566 139.019  0.00  0.00    +0.000 OA
BRANCH  31  37
ATOM     32  O   UNL     1     112.063 128.822 139.856  0.00  0.00    +0.000 OA
ATOM     33  O   UNL     1     113.982 129.849 139.692  0.00  0.00    +0.000 OA
ATOM     34  O   UNL     1     113.248 130.747 140.865  0.00  0.00    +0.000 OA
ATOM     35  O   UNL     1     111.724 130.361 141.366  0.00  0.00    +0.000 OA
ATOM     36  C   UNL     1     113.220 129.657 139.943  0.00  0.00    +0.000 C 
ATOM     37  C   UNL     1     112.825 129.015 139.606  0.00  0.00    +0.000 C 
ATOM     38  C   UNL     1     112.853 130.105 140.529  0.00  0.00    +0.000 C 
ATOM     39  C   UNL     1     112.091 129.913 140.780  0.00  0.00    +0.000 C 
ATOM     40  C   UNL     1     111.696 129.271 140.444  0.00  0.00    +0.000 C 
ATOM     41  C   UNL     1     110.934 129.078 140.694  0.00  0.00    +0.000 C 
ENDBRANCH  31  37
ENDBRANCH  30  31
ENDBRANCH  25  30
ENDBRANCH  20  29
ENDBRANCH   4  20
BRANCH   5  42
ATOM     42  O   UNL     1     109.136 129.557 135.285  0.00  0.00    +0.000 OA
BRANCH  42  51
ATOM     43  O   UNL     1     109.025 130.142 136.584  0.00  0.00    +0.000 OA
ATOM     44  O   UNL     1     108.118 132.212 135.575  0.00  0.00    +0.000 OA
ATOM     45  O   UNL     1     108.309 132.106 137.211  0.00  0.00    +0.000 OA
ATOM     46  O   UNL     1     108.531 130.937 134.612  0.00  0.00    +0.000 OA
ATOM     47  C   UNL     1     108.420 131.522 135.911  0.00  0.00    +0.000 C 
ATOM     48  C   UNL     1     108.516 131.469 136.729  0.00  0.00    +0.000 C 
ATOM     49  C   UNL     1     108.627 130.885 135.430  0.00  0.00    +0.000 C 
ATOM     50  C   UNL     1     108.818 130.779 137.065  0.00  0.00    +0.000 C 
ATOM     51  C   UNL     1     108.929 130.195 135.766  0.00  0.00    +0.000 C 
BRANCH  50  53
ATOM     52  O   UNL     1     108.554 130.112 138.302  0.00  0.00    +0.000 OA
ATOM     53  C   UNL     1     108.914 130.726 137.883  0.00  0.00    +0.000 C 
ENDBRANCH  50  53
ENDBRANCH  42  51
ENDBRANCH   5  42
TORSDOF 9
ENDMDL
MODEL 9
REMARK VINA RESULT:     -10.6      1.492      3.240
REMARK  Name = 21676298
REMARK  9 active torsions:
REMARK  status: ('A' for Active; 'I' for Inactive)
REMARK    1  A    between atoms: O_2  and  C_26
REMARK    2  A    between atoms: O_2  and  C_30
REMARK    3  A    between atoms: O_5  and  C_28
REMARK    4  A    between atoms: O_5  and  C_39
REMARK    5  A    between atoms: O_12  and  C_36
REMARK    6  A    between atoms: O_12  and  C_40
REMARK    7  A    between atoms: C_21  and  C_30
REMARK    8  A    between atoms: C_35  and  C_38
REMARK    9  A    between atoms: C_42  and  C_48
REMARK                            x       y       z     vdW  Elec       q    Type
REMARK                         _______ _______ _______ _____ _____    ______ ____
ROOT
ATOM      1  O   UNL     1     113.270 127.373 138.234  0.00  0.00    +0.000 OA
ATOM      2  O   UNL     1     111.492 128.653 137.083  0.00  0.00    +0.000 OA
ATOM      3  O   UNL     1     111.718 129.793 137.938  0.00  0.00    +0.000 OA
ATOM      4  C   UNL     1     112.258 127.456 137.228  0.00  0.00    +0.000 A 
ATOM      5  C   UNL     1     113.362 129.293 139.375  0.00  0.00    +0.000 A 
ATOM      6  C   UNL     1     112.084 128.226 137.466  0.00  0.00    +0.000 A 
ATOM      7  C   UNL     1     112.851 127.030 137.612  0.00  0.00    +0.000 A 
ATOM      8  C   UNL     1     112.503 128.571 138.089  0.00  0.00    +0.000 A 
ATOM      9  C   UNL     1     113.096 128.144 138.473  0.00  0.00    +0.000 A 
ATOM     10  C   UNL     1     113.539 128.491 139.122  0.00  0.00    +0.000 A 
ATOM     11  C   UNL     1     112.745 129.737 138.975  0.00  0.00    +0.000 A 
ATOM     12  C   UNL     1     112.312 129.373 138.327  0.00  0.00    +0.000 A 
ENDROOT
BRANCH   7  14
ATOM     13  O   UNL     1     113.550 123.949 136.658  0.00  0.00    +0.000 OA
ATOM     14  C   UNL     1     113.025 126.259 137.374  0.00  0.00    +0.000 A 
ATOM     15  C   UNL     1     112.778 125.620 137.833  0.00  0.00    +0.000 A 
ATOM     16  C   UNL     1     113.447 126.129 136.677  0.00  0.00    +0.000 A 
ATOM     17  C   UNL     1     112.953 124.849 137.593  0.00  0.00    +0.000 A 
ATOM     18  C   UNL     1     113.622 125.359 136.439  0.00  0.00    +0.000 A 
ATOM     19  C   UNL     1     113.374 124.719 136.897  0.00  0.00    +0.000 A 
ENDBRANCH   7  14
BRANCH   4  20
ATOM     20  O   UNL     1     111.840 127.113 136.606  0.00  0.00    +0.000 OA
BRANCH  20  29
ATOM     21  O   UNL     1     110.655 126.951 137.389  0.00  0.00    +0.000 OA
ATOM     22  O   UNL     1     108.560 126.802 136.798  0.00  0.00    +0.000 OA
ATOM     23  O   UNL     1     109.288 126.970 135.327  0.00  0.00    +0.000 OA
ATOM     24  O   UNL     1     110.928 127.126 135.231  0.00  0.00    +0.000 OA
ATOM     25  C   UNL     1     109.835 126.873 137.437  0.00  0.00    +0.000 C 
ATOM     26  C   UNL     1     109.380 126.879 136.750  0.00  0.00    +0.000 C 
ATOM     27  C   UNL     1     109.743 126.964 136.014  0.00  0.00    +0.000 C 
ATOM     28  C   UNL     1     110.563 127.042 135.966  0.00  0.00    +0.000 C 
ATOM     29  C   UNL     1     111.020 127.035 136.654  0.00  0.00    +0.000 C 
BRANCH  25  30
ATOM     30  C   UNL     1     109.472 126.789 138.172  0.00  0.00    +0.000 C 
BRANCH  30  31
ATOM     31  O   UNL     1     109.801 126.288 138.740  0.00  0.00    +0.000 OA
BRANCH  31  37
ATOM     32  O   UNL     1     109.286 127.095 139.801  0.00  0.00    +0.000 OA
ATOM     33  O   UNL     1     110.042 125.047 139.800  0.00  0.00    +0.000 OA
ATOM     34  O   UNL     1     109.647 125.233 141.392  0.00  0.00    +0.000 OA
ATOM     35  O   UNL     1     109.011 126.660 141.923  0.00  0.00    +0.000 OA
ATOM     36  C   UNL     1     109.724 125.761 140.067  0.00  0.00    +0.000 C 
ATOM     37  C   UNL     1     109.603 126.381 139.537  0.00  0.00    +0.000 C 
ATOM     38  C   UNL     1     109.526 125.854 140.862  0.00  0.00    +0.000 C 
ATOM     39  C   UNL     1     109.209 126.567 141.128  0.00  0.00    +0.000 C 
ATOM     40  C   UNL     1     109.088 127.188 140.598  0.00  0.00    +0.000 C 
ATOM     41  C   UNL     1     108.770 127.902 140.863  0.00  0.00    +0.000 C 
ENDBRANCH  31  37
ENDBRANCH  30  31
ENDBRANCH  25  30
ENDBRANCH  20  29
ENDBRANCH   4  20
BRANCH   5  42
ATOM     42  O   UNL     1     113.783 129.634 139.998  0.00  0.00    +0.000 OA
BRANCH  42  51
ATOM     43  O   UNL     1     112.930 129.202 141.059  0.00  0.00    +0.000 OA
ATOM     44  O   UNL     1     113.232 131.383 142.190  0.00  0.00    +0.000 OA
ATOM     45  O   UNL     1     112.278 130.223 142.875  0.00  0.00    +0.000 OA
ATOM     46  O   UNL     1     113.985 131.088 140.751  0.00  0.00    +0.000 OA
ATOM     47  C   UNL     1     113.132 130.656 141.813  0.00  0.00    +0.000 C 
ATOM     48  C   UNL     1     112.654 130.076 142.156  0.00  0.00    +0.000 C 
ATOM     49  C   UNL     1     113.508 130.508 141.094  0.00  0.00    +0.000 C 
ATOM     50  C   UNL     1     112.554 129.349 141.779  0.00  0.00    +0.000 C 
ATOM     51  C   UNL     1     113.407 129.781 140.717  0.00  0.00    +0.000 C 
BRANCH  50  53
ATOM     52  O   UNL     1     112.315 127.979 142.108  0.00  0.00    +0.000 OA
ATOM     53  C   UNL     1     112.077 128.769 142.121  0.00  0.00    +0.000 C 
ENDBRANCH  50  53
ENDBRANCH  42  51
ENDBRANCH   5  42
TORSDOF 9
ENDMDL
MODEL 10
REMARK VINA RESULT:     -10.5      1.794      3.396
REMARK  Name = 21676298
REMARK  9 active torsions:
REMARK  status: ('A' for Active; 'I' for Inactive)
REMARK    1  A    between atoms: O_2  and  C_26
REMARK    2  A    between atoms: O_2  and  C_30
REMARK    3  A    between atoms: O_5  and  C_28
REMARK    4  A    between atoms: O_5  and  C_39
REMARK    5  A    between atoms: O_12  and  C_36
REMARK    6  A    between atoms: O_12  and  C_40
REMARK    7  A    between atoms: C_21  and  C_30
REMARK    8  A    between atoms: C_35  and  C_38
REMARK    9  A    between atoms: C_42  and  C_48
REMARK                            x       y       z     vdW  Elec       q    Type
REMARK                         _______ _______ _______ _____ _____    ______ ____
ROOT
ATOM      1  O   UNL     1     111.647 125.705 138.447  0.00  0.00    +0.000 OA
ATOM      2  O   UNL     1     110.746 127.432 136.921  0.00  0.00    +0.000 OA
ATOM      3  O   UNL     1     109.523 127.510 137.683  0.00  0.00    +0.000 OA
ATOM      4  C   UNL     1     111.796 126.540 137.297  0.00  0.00    +0.000 A 
ATOM      5  C   UNL     1     109.655 126.069 139.393  0.00  0.00    +0.000 A 
ATOM      6  C   UNL     1     111.047 126.856 137.429  0.00  0.00    +0.000 A 
ATOM      7  C   UNL     1     112.097 125.965 137.806  0.00  0.00    +0.000 A 
ATOM      8  C   UNL     1     110.596 126.597 138.070  0.00  0.00    +0.000 A 
ATOM      9  C   UNL     1     110.896 126.022 138.579  0.00  0.00    +0.000 A 
ATOM     10  C   UNL     1     110.438 125.744 139.250  0.00  0.00    +0.000 A 
ATOM     11  C   UNL     1     109.342 126.669 138.863  0.00  0.00    +0.000 A 
ATOM     12  C   UNL     1     109.816 126.935 138.197  0.00  0.00    +0.000 A 
ENDROOT
BRANCH   7  14
ATOM     13  O   UNL     1     115.097 124.696 137.278  0.00  0.00    +0.000 OA
ATOM     14  C   UNL     1     112.847 125.648 137.675  0.00  0.00    +0.000 A 
ATOM     15  C   UNL     1     113.478 125.866 138.159  0.00  0.00    +0.000 A 
ATOM     16  C   UNL     1     112.966 125.112 137.057  0.00  0.00    +0.000 A 
ATOM     17  C   UNL     1     114.228 125.548 138.027  0.00  0.00    +0.000 A 
ATOM     18  C   UNL     1     113.716 124.796 136.926  0.00  0.00    +0.000 A 
ATOM     19  C   UNL     1     114.347 125.013 137.411  0.00  0.00    +0.000 A 
ENDBRANCH   7  14
BRANCH   4  20
ATOM     20  O   UNL     1     112.246 126.799 136.657  0.00  0.00    +0.000 OA
BRANCH  20  29
ATOM     21  O   UNL     1     112.660 128.027 137.259  0.00  0.00    +0.000 OA
ATOM     22  O   UNL     1     113.046 129.989 136.386  0.00  0.00    +0.000 OA
ATOM     23  O   UNL     1     112.620 129.129 135.044  0.00  0.00    +0.000 OA
ATOM     24  O   UNL     1     112.220 127.534 135.180  0.00  0.00    +0.000 OA
ATOM     25  C   UNL     1     112.860 128.825 137.192  0.00  0.00    +0.000 C 
ATOM     26  C   UNL     1     112.846 129.192 136.453  0.00  0.00    +0.000 C 
ATOM     27  C   UNL     1     112.633 128.762 135.782  0.00  0.00    +0.000 C 
ATOM     28  C   UNL     1     112.433 127.964 135.850  0.00  0.00    +0.000 C 
ATOM     29  C   UNL     1     112.446 127.597 136.589  0.00  0.00    +0.000 C 
BRANCH  25  30
ATOM     30  C   UNL     1     113.073 129.255 137.862  0.00  0.00    +0.000 C 
BRANCH  30  31
ATOM     31  O   UNL     1     112.584 129.251 138.527  0.00  0.00    +0.000 OA
BRANCH  31  37
ATOM     32  O   UNL     1     113.635 129.673 139.398  0.00  0.00    +0.000 OA
ATOM     33  O   UNL     1     111.469 129.884 139.565  0.00  0.00    +0.000 OA
ATOM     34  O   UNL     1     111.962 130.622 140.956  0.00  0.00    +0.000 OA
ATOM     35  O   UNL     1     113.571 130.728 141.308  0.00  0.00    +0.000 OA
ATOM     36  C   UNL     1     112.273 129.937 139.742  0.00  0.00    +0.000 C 
ATOM     37  C   UNL     1     112.831 129.621 139.223  0.00  0.00    +0.000 C 
ATOM     38  C   UNL     1     112.520 130.306 140.437  0.00  0.00    +0.000 C 
ATOM     39  C   UNL     1     113.324 130.359 140.613  0.00  0.00    +0.000 C 
ATOM     40  C   UNL     1     113.882 130.043 140.094  0.00  0.00    +0.000 C 
ATOM     41  C   UNL     1     114.686 130.095 140.269  0.00  0.00    +0.000 C 
ENDBRANCH  31  37
ENDBRANCH  30  31
ENDBRANCH  25  30
ENDBRANCH  20  29
ENDBRANCH   4  20
BRANCH   5  42
ATOM     42  O   UNL     1     109.207 125.808 140.036  0.00  0.00    +0.000 OA
BRANCH  42  51
ATOM     43  O   UNL     1     109.689 126.770 140.976  0.00  0.00    +0.000 OA
ATOM     44  O   UNL     1     107.439 126.898 141.999  0.00  0.00    +0.000 OA
ATOM     45  O   UNL     1     108.672 127.818 142.597  0.00  0.00    +0.000 OA
ATOM     46  O   UNL     1     107.707 125.893 140.717  0.00  0.00    +0.000 OA
ATOM     47  C   UNL     1     108.189 126.855 141.658  0.00  0.00    +0.000 C 
ATOM     48  C   UNL     1     108.805 127.315 141.957  0.00  0.00    +0.000 C 
ATOM     49  C   UNL     1     108.323 126.353 141.017  0.00  0.00    +0.000 C 
ATOM     50  C   UNL     1     109.555 127.272 141.616  0.00  0.00    +0.000 C 
ATOM     51  C   UNL     1     109.073 126.310 140.676  0.00  0.00    +0.000 C 
BRANCH  50  53
ATOM     52  O   UNL     1     110.891 127.379 142.114  0.00  0.00    +0.000 OA
ATOM     53  C   UNL     1     110.172 127.732 141.916  0.00  0.00    +0.000 C 
ENDBRANCH  50  53
ENDBRANCH  42  51
ENDBRANCH   5  42
TORSDOF 9
ENDMDL
