MODEL 1
REMARK VINA RESULT:      -8.6      0.000      0.000
REMARK  Name = 14353345
REMARK  3 active torsions:
REMARK  status: ('A' for Active; 'I' for Inactive)
REMARK    1  A    between atoms: O_5  and  C_18
REMARK    2  A    between atoms: O_6  and  C_20
REMARK    3  A    between atoms: C_8  and  C_10
REMARK                            x       y       z     vdW  Elec       q    Type
REMARK                         _______ _______ _______ _____ _____    ______ ____
ROOT
ATOM      1  O   UNL     1     105.083 124.282 147.204  0.00  0.00    +0.000 OA
ATOM      2  O   UNL     1     104.785 124.683 145.080  0.00  0.00    +0.000 OA
ATOM      3  O   UNL     1     106.262 125.377 145.324  0.00  0.00    +0.000 OA
ATOM      4  O   UNL     1     107.369 125.722 146.181  0.00  0.00    +0.000 OA
ATOM      5  C   UNL     1     104.737 124.300 146.455  0.00  0.00    +0.000 C 
ATOM      6  C   UNL     1     105.130 124.665 145.828  0.00  0.00    +0.000 C 
ATOM      7  C   UNL     1     105.869 125.012 145.951  0.00  0.00    +0.000 C 
ATOM      8  C   UNL     1     106.214 124.994 146.699  0.00  0.00    +0.000 A 
ATOM      9  C   UNL     1     105.821 124.629 147.326  0.00  0.00    +0.000 A 
ATOM     10  C   UNL     1     106.984 125.360 146.814  0.00  0.00    +0.000 A 
ATOM     11  C   UNL     1     106.171 124.604 148.111  0.00  0.00    +0.000 A 
ATOM     12  C   UNL     1     106.939 124.964 148.244  0.00  0.00    +0.000 A 
ATOM     13  C   UNL     1     107.348 125.344 147.591  0.00  0.00    +0.000 A 
ENDROOT
BRANCH   5  15
ATOM     14  O   UNL     1     101.785 122.908 145.968  0.00  0.00    +0.000 OA
ATOM     15  C   UNL     1     103.999 123.953 146.333  0.00  0.00    +0.000 A 
ATOM     16  C   UNL     1     103.316 124.330 146.600  0.00  0.00    +0.000 A 
ATOM     17  C   UNL     1     103.944 123.226 145.944  0.00  0.00    +0.000 A 
ATOM     18  C   UNL     1     102.578 123.982 146.478  0.00  0.00    +0.000 A 
ATOM     19  C   UNL     1     103.206 122.879 145.823  0.00  0.00    +0.000 A 
ATOM     20  C   UNL     1     102.523 123.257 146.090  0.00  0.00    +0.000 A 
BRANCH  18  21
ATOM     21  O   UNL     1     101.895 124.360 146.745  0.00  0.00    +0.000 OA
ATOM     22  C   UNL     1     101.882 124.711 147.493  0.00  0.00    +0.000 C 
ENDBRANCH  18  21
ENDBRANCH   5  15
BRANCH  12  23
ATOM     23  O   UNL     1     107.282 124.944 148.995  0.00  0.00    +0.000 OA
ATOM     24  C   UNL     1     107.617 124.245 149.276  0.00  0.00    +0.000 C 
ENDBRANCH  12  23
TORSDOF 3
ENDMDL
MODEL 2
REMARK VINA RESULT:      -8.1     11.923     13.450
REMARK  Name = 14353345
REMARK  3 active torsions:
REMARK  status: ('A' for Active; 'I' for Inactive)
REMARK    1  A    between atoms: O_5  and  C_18
REMARK    2  A    between atoms: O_6  and  C_20
REMARK    3  A    between atoms: C_8  and  C_10
REMARK                            x       y       z     vdW  Elec       q    Type
REMARK                         _______ _______ _______ _____ _____    ______ ____
ROOT
ATOM      1  O   UNL     1     112.203 126.673 136.022  0.00  0.00    +0.000 OA
ATOM      2  O   UNL     1     111.854 124.551 136.393  0.00  0.00    +0.000 OA
ATOM      3  O   UNL     1     110.499 124.945 135.539  0.00  0.00    +0.000 OA
ATOM      4  O   UNL     1     109.684 125.904 134.834  0.00  0.00    +0.000 OA
ATOM      5  C   UNL     1     112.313 125.899 136.288  0.00  0.00    +0.000 C 
ATOM      6  C   UNL     1     111.745 125.323 136.127  0.00  0.00    +0.000 C 
ATOM      7  C   UNL     1     111.067 125.521 135.700  0.00  0.00    +0.000 C 
ATOM      8  C   UNL     1     110.957 126.294 135.434  0.00  0.00    +0.000 A 
ATOM      9  C   UNL     1     111.526 126.870 135.595  0.00  0.00    +0.000 A 
ATOM     10  C   UNL     1     110.247 126.487 134.990  0.00  0.00    +0.000 A 
ATOM     11  C   UNL     1     111.423 127.679 135.323  0.00  0.00    +0.000 A 
ATOM     12  C   UNL     1     110.719 127.890 134.878  0.00  0.00    +0.000 A 
ATOM     13  C   UNL     1     110.127 127.290 134.710  0.00  0.00    +0.000 A 
ENDROOT
BRANCH   5  15
ATOM     14  O   UNL     1     115.026 125.113 137.994  0.00  0.00    +0.000 OA
ATOM     15  C   UNL     1     112.991 125.703 136.715  0.00  0.00    +0.000 A 
ATOM     16  C   UNL     1     113.046 125.898 137.515  0.00  0.00    +0.000 A 
ATOM     17  C   UNL     1     113.614 125.311 136.341  0.00  0.00    +0.000 A 
ATOM     18  C   UNL     1     113.725 125.701 137.941  0.00  0.00    +0.000 A 
ATOM     19  C   UNL     1     114.292 125.115 136.768  0.00  0.00    +0.000 A 
ATOM     20  C   UNL     1     114.347 125.310 137.568  0.00  0.00    +0.000 A 
BRANCH  18  21
ATOM     21  O   UNL     1     113.781 125.896 138.740  0.00  0.00    +0.000 OA
ATOM     22  C   UNL     1     113.362 126.542 139.038  0.00  0.00    +0.000 C 
ENDBRANCH  18  21
ENDBRANCH   5  15
BRANCH  12  23
ATOM     23  O   UNL     1     110.613 128.664 134.613  0.00  0.00    +0.000 OA
ATOM     24  C   UNL     1     110.217 129.211 135.087  0.00  0.00    +0.000 C 
ENDBRANCH  12  23
TORSDOF 3
ENDMDL
MODEL 3
REMARK VINA RESULT:      -8.0      0.915      4.282
REMARK  Name = 14353345
REMARK  3 active torsions:
REMARK  status: ('A' for Active; 'I' for Inactive)
REMARK    1  A    between atoms: O_5  and  C_18
REMARK    2  A    between atoms: O_6  and  C_20
REMARK    3  A    between atoms: C_8  and  C_10
REMARK                            x       y       z     vdW  Elec       q    Type
REMARK                         _______ _______ _______ _____ _____    ______ ____
ROOT
ATOM      1  O   UNL     1     103.689 124.794 146.991  0.00  0.00    +0.000 OA
ATOM      2  O   UNL     1     104.565 123.379 145.579  0.00  0.00    +0.000 OA
ATOM      3  O   UNL     1     103.050 122.750 145.752  0.00  0.00    +0.000 OA
ATOM      4  O   UNL     1     101.728 122.778 146.329  0.00  0.00    +0.000 OA
ATOM      5  C   UNL     1     104.234 124.427 146.491  0.00  0.00    +0.000 C 
ATOM      6  C   UNL     1     104.021 123.746 146.078  0.00  0.00    +0.000 C 
ATOM      7  C   UNL     1     103.263 123.431 146.165  0.00  0.00    +0.000 C 
ATOM      8  C   UNL     1     102.719 123.798 146.664  0.00  0.00    +0.000 A 
ATOM      9  C   UNL     1     102.932 124.479 147.078  0.00  0.00    +0.000 A 
ATOM     10  C   UNL     1     101.932 123.460 146.746  0.00  0.00    +0.000 A 
ATOM     11  C   UNL     1     102.374 124.870 147.601  0.00  0.00    +0.000 A 
ATOM     12  C   UNL     1     101.583 124.547 147.695  0.00  0.00    +0.000 A 
ATOM     13  C   UNL     1     101.361 123.838 147.265  0.00  0.00    +0.000 A 
ENDROOT
BRANCH   5  15
ATOM     14  O   UNL     1     107.264 125.689 146.144  0.00  0.00    +0.000 OA
ATOM     15  C   UNL     1     104.992 124.742 146.405  0.00  0.00    +0.000 A 
ATOM     16  C   UNL     1     105.568 124.593 146.976  0.00  0.00    +0.000 A 
ATOM     17  C   UNL     1     105.172 125.207 145.747  0.00  0.00    +0.000 A 
ATOM     18  C   UNL     1     106.326 124.909 146.888  0.00  0.00    +0.000 A 
ATOM     19  C   UNL     1     105.929 125.523 145.661  0.00  0.00    +0.000 A 
ATOM     20  C   UNL     1     106.506 125.373 146.232  0.00  0.00    +0.000 A 
BRANCH  18  21
ATOM     21  O   UNL     1     106.903 124.760 147.459  0.00  0.00    +0.000 OA
ATOM     22  C   UNL     1     106.690 124.693 148.254  0.00  0.00    +0.000 C 
ENDBRANCH  18  21
ENDBRANCH   5  15
BRANCH  12  23
ATOM     23  O   UNL     1     101.041 124.917 148.196  0.00  0.00    +0.000 OA
ATOM     24  C   UNL     1     101.024 124.724 148.998  0.00  0.00    +0.000 C 
ENDBRANCH  12  23
TORSDOF 3
ENDMDL
MODEL 4
REMARK VINA RESULT:      -8.0      1.242      4.544
REMARK  Name = 14353345
REMARK  3 active torsions:
REMARK  status: ('A' for Active; 'I' for Inactive)
REMARK    1  A    between atoms: O_5  and  C_18
REMARK    2  A    between atoms: O_6  and  C_20
REMARK    3  A    between atoms: C_8  and  C_10
REMARK                            x       y       z     vdW  Elec       q    Type
REMARK                         _______ _______ _______ _____ _____    ______ ____
ROOT
ATOM      1  O   UNL     1     104.922 124.575 147.131  0.00  0.00    +0.000 OA
ATOM      2  O   UNL     1     105.249 125.468 149.096  0.00  0.00    +0.000 OA
ATOM      3  O   UNL     1     103.616 125.233 149.128  0.00  0.00    +0.000 OA
ATOM      4  O   UNL     1     102.392 124.782 148.512  0.00  0.00    +0.000 OA
ATOM      5  C   UNL     1     105.303 124.912 147.781  0.00  0.00    +0.000 C 
ATOM      6  C   UNL     1     104.868 125.131 148.447  0.00  0.00    +0.000 C 
ATOM      7  C   UNL     1     104.051 125.013 148.462  0.00  0.00    +0.000 C 
ATOM      8  C   UNL     1     103.670 124.677 147.813  0.00  0.00    +0.000 A 
ATOM      9  C   UNL     1     104.106 124.457 147.148  0.00  0.00    +0.000 A 
ATOM     10  C   UNL     1     102.819 124.559 147.842  0.00  0.00    +0.000 A 
ATOM     11  C   UNL     1     103.720 124.105 146.465  0.00  0.00    +0.000 A 
ATOM     12  C   UNL     1     102.870 123.980 146.476  0.00  0.00    +0.000 A 
ATOM     13  C   UNL     1     102.417 124.209 147.169  0.00  0.00    +0.000 A 
ENDROOT
BRANCH   5  15
ATOM     14  O   UNL     1     108.570 125.379 147.716  0.00  0.00    +0.000 OA
ATOM     15  C   UNL     1     106.120 125.029 147.764  0.00  0.00    +0.000 A 
ATOM     16  C   UNL     1     106.439 125.646 147.320  0.00  0.00    +0.000 A 
ATOM     17  C   UNL     1     106.617 124.529 148.193  0.00  0.00    +0.000 A 
ATOM     18  C   UNL     1     107.256 125.763 147.304  0.00  0.00    +0.000 A 
ATOM     19  C   UNL     1     107.433 124.646 148.176  0.00  0.00    +0.000 A 
ATOM     20  C   UNL     1     107.753 125.263 147.732  0.00  0.00    +0.000 A 
BRANCH  18  21
ATOM     21  O   UNL     1     107.576 126.380 146.859  0.00  0.00    +0.000 OA
ATOM     22  C   UNL     1     107.128 127.057 146.711  0.00  0.00    +0.000 C 
ENDBRANCH  18  21
ENDBRANCH   5  15
BRANCH  12  23
ATOM     23  O   UNL     1     102.492 123.643 145.824  0.00  0.00    +0.000 OA
ATOM     24  C   UNL     1     102.389 122.825 145.786  0.00  0.00    +0.000 C 
ENDBRANCH  12  23
TORSDOF 3
ENDMDL
MODEL 5
REMARK VINA RESULT:      -7.9      1.014      4.238
REMARK  Name = 14353345
REMARK  3 active torsions:
REMARK  status: ('A' for Active; 'I' for Inactive)
REMARK    1  A    between atoms: O_5  and  C_18
REMARK    2  A    between atoms: O_6  and  C_20
REMARK    3  A    between atoms: C_8  and  C_10
REMARK                            x       y       z     vdW  Elec       q    Type
REMARK                         _______ _______ _______ _____ _____    ______ ____
ROOT
ATOM      1  O   UNL     1     104.394 125.156 147.511  0.00  0.00    +0.000 OA
ATOM      2  O   UNL     1     105.362 124.111 145.857  0.00  0.00    +0.000 OA
ATOM      3  O   UNL     1     103.782 123.709 145.598  0.00  0.00    +0.000 OA
ATOM      4  O   UNL     1     102.387 123.774 145.958  0.00  0.00    +0.000 OA
ATOM      5  C   UNL     1     104.980 124.875 147.002  0.00  0.00    +0.000 C 
ATOM      6  C   UNL     1     104.776 124.392 146.365  0.00  0.00    +0.000 C 
ATOM      7  C   UNL     1     103.986 124.192 146.236  0.00  0.00    +0.000 C 
ATOM      8  C   UNL     1     103.401 124.473 146.743  0.00  0.00    +0.000 A 
ATOM      9  C   UNL     1     103.605 124.955 147.381  0.00  0.00    +0.000 A 
ATOM     10  C   UNL     1     102.581 124.257 146.598  0.00  0.00    +0.000 A 
ATOM     11  C   UNL     1     103.003 125.255 147.917  0.00  0.00    +0.000 A 
ATOM     12  C   UNL     1     102.179 125.049 147.788  0.00  0.00    +0.000 A 
ATOM     13  C   UNL     1     101.967 124.547 147.124  0.00  0.00    +0.000 A 
ENDROOT
BRANCH   5  15
ATOM     14  O   UNL     1     108.138 125.677 147.524  0.00  0.00    +0.000 OA
ATOM     15  C   UNL     1     105.769 125.076 147.132  0.00  0.00    +0.000 A 
ATOM     16  C   UNL     1     106.101 125.722 146.741  0.00  0.00    +0.000 A 
ATOM     17  C   UNL     1     106.228 124.629 147.654  0.00  0.00    +0.000 A 
ATOM     18  C   UNL     1     106.890 125.922 146.872  0.00  0.00    +0.000 A 
ATOM     19  C   UNL     1     107.017 124.830 147.784  0.00  0.00    +0.000 A 
ATOM     20  C   UNL     1     107.349 125.477 147.393  0.00  0.00    +0.000 A 
BRANCH  18  21
ATOM     21  O   UNL     1     107.222 126.569 146.481  0.00  0.00    +0.000 OA
ATOM     22  C   UNL     1     106.835 127.299 146.489  0.00  0.00    +0.000 C 
ENDBRANCH  18  21
ENDBRANCH   5  15
BRANCH  12  23
ATOM     23  O   UNL     1     101.596 125.332 148.298  0.00  0.00    +0.000 OA
ATOM     24  C   UNL     1     101.345 124.870 148.934  0.00  0.00    +0.000 C 
ENDBRANCH  12  23
TORSDOF 3
ENDMDL
MODEL 6
REMARK VINA RESULT:      -7.8     11.246     12.700
REMARK  Name = 14353345
REMARK  3 active torsions:
REMARK  status: ('A' for Active; 'I' for Inactive)
REMARK    1  A    between atoms: O_5  and  C_18
REMARK    2  A    between atoms: O_6  and  C_20
REMARK    3  A    between atoms: C_8  and  C_10
REMARK                            x       y       z     vdW  Elec       q    Type
REMARK                         _______ _______ _______ _____ _____    ______ ____
ROOT
ATOM      1  O   UNL     1     110.347 128.113 135.920  0.00  0.00    +0.000 OA
ATOM      2  O   UNL     1     108.568 126.861 135.739  0.00  0.00    +0.000 OA
ATOM      3  O   UNL     1     107.891 128.366 135.748  0.00  0.00    +0.000 OA
ATOM      4  O   UNL     1     108.005 129.803 135.812  0.00  0.00    +0.000 OA
ATOM      5  C   UNL     1     109.866 127.445 135.859  0.00  0.00    +0.000 C 
ATOM      6  C   UNL     1     109.047 127.529 135.801  0.00  0.00    +0.000 C 
ATOM      7  C   UNL     1     108.709 128.282 135.805  0.00  0.00    +0.000 C 
ATOM      8  C   UNL     1     109.189 128.950 135.867  0.00  0.00    +0.000 A 
ATOM      9  C   UNL     1     110.008 128.865 135.924  0.00  0.00    +0.000 A 
ATOM     10  C   UNL     1     108.825 129.728 135.870  0.00  0.00    +0.000 A 
ATOM     11  C   UNL     1     110.518 129.554 135.989  0.00  0.00    +0.000 A 
ATOM     12  C   UNL     1     110.172 130.340 135.994  0.00  0.00    +0.000 A 
ATOM     13  C   UNL     1     109.319 130.427 135.934  0.00  0.00    +0.000 A 
ENDROOT
BRANCH   5  15
ATOM     14  O   UNL     1     111.223 124.436 135.840  0.00  0.00    +0.000 OA
ATOM     15  C   UNL     1     110.205 126.693 135.855  0.00  0.00    +0.000 A 
ATOM     16  C   UNL     1     110.385 126.317 136.567  0.00  0.00    +0.000 A 
ATOM     17  C   UNL     1     110.364 126.316 135.137  0.00  0.00    +0.000 A 
ATOM     18  C   UNL     1     110.724 125.565 136.561  0.00  0.00    +0.000 A 
ATOM     19  C   UNL     1     110.703 125.565 135.133  0.00  0.00    +0.000 A 
ATOM     20  C   UNL     1     110.883 125.189 135.845  0.00  0.00    +0.000 A 
BRANCH  18  21
ATOM     21  O   UNL     1     110.904 125.189 137.274  0.00  0.00    +0.000 OA
ATOM     22  C   UNL     1     111.204 125.626 137.907  0.00  0.00    +0.000 C 
ENDBRANCH  18  21
ENDBRANCH   5  15
BRANCH  12  23
ATOM     23  O   UNL     1     110.655 131.006 136.056  0.00  0.00    +0.000 OA
ATOM     24  C   UNL     1     110.878 131.285 136.799  0.00  0.00    +0.000 C 
ENDBRANCH  12  23
TORSDOF 3
ENDMDL
MODEL 7
REMARK VINA RESULT:      -7.8      2.661      4.117
REMARK  Name = 14353345
REMARK  3 active torsions:
REMARK  status: ('A' for Active; 'I' for Inactive)
REMARK    1  A    between atoms: O_5  and  C_18
REMARK    2  A    between atoms: O_6  and  C_20
REMARK    3  A    between atoms: C_8  and  C_10
REMARK                            x       y       z     vdW  Elec       q    Type
REMARK                         _______ _______ _______ _____ _____    ______ ____
ROOT
ATOM      1  O   UNL     1     106.335 126.530 146.883  0.00  0.00    +0.000 OA
ATOM      2  O   UNL     1     106.761 124.560 146.046  0.00  0.00    +0.000 OA
ATOM      3  O   UNL     1     106.083 125.312 144.743  0.00  0.00    +0.000 OA
ATOM      4  O   UNL     1     105.481 126.466 144.123  0.00  0.00    +0.000 OA
ATOM      5  C   UNL     1     106.590 125.747 146.821  0.00  0.00    +0.000 C 
ATOM      6  C   UNL     1     106.506 125.341 146.108  0.00  0.00    +0.000 C 
ATOM      7  C   UNL     1     106.167 125.718 145.457  0.00  0.00    +0.000 C 
ATOM      8  C   UNL     1     105.912 126.500 145.518  0.00  0.00    +0.000 A 
ATOM      9  C   UNL     1     105.997 126.906 146.231  0.00  0.00    +0.000 A 
ATOM     10  C   UNL     1     105.561 126.881 144.832  0.00  0.00    +0.000 A 
ATOM     11  C   UNL     1     105.735 127.721 146.308  0.00  0.00    +0.000 A 
ATOM     12  C   UNL     1     105.382 128.118 145.633  0.00  0.00    +0.000 A 
ATOM     13  C   UNL     1     105.294 127.695 144.890  0.00  0.00    +0.000 A 
ENDROOT
BRANCH   5  15
ATOM     14  O   UNL     1     107.948 124.246 149.427  0.00  0.00    +0.000 OA
ATOM     15  C   UNL     1     106.929 125.372 147.472  0.00  0.00    +0.000 A 
ATOM     16  C   UNL     1     106.448 125.025 148.045  0.00  0.00    +0.000 A 
ATOM     17  C   UNL     1     107.751 125.344 147.551  0.00  0.00    +0.000 A 
ATOM     18  C   UNL     1     106.788 124.649 148.697  0.00  0.00    +0.000 A 
ATOM     19  C   UNL     1     108.089 124.969 148.203  0.00  0.00    +0.000 A 
ATOM     20  C   UNL     1     107.608 124.621 148.776  0.00  0.00    +0.000 A 
BRANCH  18  21
ATOM     21  O   UNL     1     106.307 124.302 149.270  0.00  0.00    +0.000 OA
ATOM     22  C   UNL     1     105.583 124.648 149.466  0.00  0.00    +0.000 C 
ENDBRANCH  18  21
ENDBRANCH   5  15
BRANCH  12  23
ATOM     23  O   UNL     1     105.128 128.901 145.698  0.00  0.00    +0.000 OA
ATOM     24  C   UNL     1     105.653 129.518 145.545  0.00  0.00    +0.000 C 
ENDBRANCH  12  23
TORSDOF 3
ENDMDL
MODEL 8
REMARK VINA RESULT:      -7.8      7.441      8.372
REMARK  Name = 14353345
REMARK  3 active torsions:
REMARK  status: ('A' for Active; 'I' for Inactive)
REMARK    1  A    between atoms: O_5  and  C_18
REMARK    2  A    between atoms: O_6  and  C_20
REMARK    3  A    between atoms: C_8  and  C_10
REMARK                            x       y       z     vdW  Elec       q    Type
REMARK                         _______ _______ _______ _____ _____    ______ ____
ROOT
ATOM      1  O   UNL     1     103.335 130.274 142.207  0.00  0.00    +0.000 OA
ATOM      2  O   UNL     1     102.191 130.163 140.352  0.00  0.00    +0.000 OA
ATOM      3  O   UNL     1     103.123 128.807 140.226  0.00  0.00    +0.000 OA
ATOM      4  O   UNL     1     104.133 127.915 140.742  0.00  0.00    +0.000 OA
ATOM      5  C   UNL     1     102.798 130.463 141.609  0.00  0.00    +0.000 C 
ATOM      6  C   UNL     1     102.727 129.974 140.949  0.00  0.00    +0.000 C 
ATOM      7  C   UNL     1     103.194 129.296 140.886  0.00  0.00    +0.000 C 
ATOM      8  C   UNL     1     103.730 129.107 141.483  0.00  0.00    +0.000 A 
ATOM      9  C   UNL     1     103.801 129.597 142.144  0.00  0.00    +0.000 A 
ATOM     10  C   UNL     1     104.210 128.398 141.406  0.00  0.00    +0.000 A 
ATOM     11  C   UNL     1     104.357 129.411 142.773  0.00  0.00    +0.000 A 
ATOM     12  C   UNL     1     104.844 128.706 142.713  0.00  0.00    +0.000 A 
ATOM     13  C   UNL     1     104.771 128.197 142.025  0.00  0.00    +0.000 A 
ENDROOT
BRANCH   5  15
ATOM     14  O   UNL     1     100.933 133.174 141.865  0.00  0.00    +0.000 OA
ATOM     15  C   UNL     1     102.333 131.141 141.673  0.00  0.00    +0.000 A 
ATOM     16  C   UNL     1     102.631 131.871 141.430  0.00  0.00    +0.000 A 
ATOM     17  C   UNL     1     101.568 131.088 141.979  0.00  0.00    +0.000 A 
ATOM     18  C   UNL     1     102.164 132.549 141.495  0.00  0.00    +0.000 A 
ATOM     19  C   UNL     1     101.102 131.766 142.043  0.00  0.00    +0.000 A 
ATOM     20  C   UNL     1     101.400 132.496 141.801  0.00  0.00    +0.000 A 
BRANCH  18  21
ATOM     21  O   UNL     1     102.462 133.279 141.252  0.00  0.00    +0.000 OA
ATOM     22  C   UNL     1     103.247 133.478 141.411  0.00  0.00    +0.000 C 
ENDBRANCH  18  21
ENDBRANCH   5  15
BRANCH  12  23
ATOM     23  O   UNL     1     105.380 128.520 143.312  0.00  0.00    +0.000 OA
ATOM     24  C   UNL     1     105.158 128.008 143.920  0.00  0.00    +0.000 C 
ENDBRANCH  12  23
TORSDOF 3
ENDMDL
MODEL 9
REMARK VINA RESULT:      -7.7     12.424     13.624
REMARK  Name = 14353345
REMARK  3 active torsions:
REMARK  status: ('A' for Active; 'I' for Inactive)
REMARK    1  A    between atoms: O_5  and  C_18
REMARK    2  A    between atoms: O_6  and  C_20
REMARK    3  A    between atoms: C_8  and  C_10
REMARK                            x       y       z     vdW  Elec       q    Type
REMARK                         _______ _______ _______ _____ _____    ______ ____
ROOT
ATOM      1  O   UNL     1     113.456 127.313 136.229  0.00  0.00    +0.000 OA
ATOM      2  O   UNL     1     112.809 126.830 138.257  0.00  0.00    +0.000 OA
ATOM      3  O   UNL     1     112.964 128.469 138.361  0.00  0.00    +0.000 OA
ATOM      4  O   UNL     1     113.280 129.748 137.775  0.00  0.00    +0.000 OA
ATOM      5  C   UNL     1     113.214 126.879 136.888  0.00  0.00    +0.000 C 
ATOM      6  C   UNL     1     113.050 127.264 137.599  0.00  0.00    +0.000 C 
ATOM      7  C   UNL     1     113.128 128.084 137.651  0.00  0.00    +0.000 C 
ATOM      8  C   UNL     1     113.369 128.518 136.993  0.00  0.00    +0.000 A 
ATOM      9  C   UNL     1     113.533 128.133 136.282  0.00  0.00    +0.000 A 
ATOM     10  C   UNL     1     113.446 129.372 137.060  0.00  0.00    +0.000 A 
ATOM     11  C   UNL     1     113.786 128.574 135.589  0.00  0.00    +0.000 A 
ATOM     12  C   UNL     1     113.868 129.428 135.637  0.00  0.00    +0.000 A 
ATOM     13  C   UNL     1     113.697 129.829 136.377  0.00  0.00    +0.000 A 
ENDROOT
BRANCH   5  15
ATOM     14  O   UNL     1     112.909 123.599 136.678  0.00  0.00    +0.000 OA
ATOM     15  C   UNL     1     113.137 126.059 136.835  0.00  0.00    +0.000 A 
ATOM     16  C   UNL     1     112.427 125.727 136.578  0.00  0.00    +0.000 A 
ATOM     17  C   UNL     1     113.771 125.571 137.040  0.00  0.00    +0.000 A 
ATOM     18  C   UNL     1     112.352 124.907 136.526  0.00  0.00    +0.000 A 
ATOM     19  C   UNL     1     113.694 124.752 136.987  0.00  0.00    +0.000 A 
ATOM     20  C   UNL     1     112.984 124.419 136.730  0.00  0.00    +0.000 A 
BRANCH  18  21
ATOM     21  O   UNL     1     111.642 124.574 136.268  0.00  0.00    +0.000 OA
ATOM     22  C   UNL     1     111.104 125.030 135.838  0.00  0.00    +0.000 C 
ENDBRANCH  18  21
ENDBRANCH   5  15
BRANCH  12  23
ATOM     23  O   UNL     1     114.110 129.859 134.976  0.00  0.00    +0.000 OA
ATOM     24  C   UNL     1     114.911 130.018 134.859  0.00  0.00    +0.000 C 
ENDBRANCH  12  23
TORSDOF 3
ENDMDL
MODEL 10
REMARK VINA RESULT:      -7.7      2.018      4.690
REMARK  Name = 14353345
REMARK  3 active torsions:
REMARK  status: ('A' for Active; 'I' for Inactive)
REMARK    1  A    between atoms: O_5  and  C_18
REMARK    2  A    between atoms: O_6  and  C_20
REMARK    3  A    between atoms: C_8  and  C_10
REMARK                            x       y       z     vdW  Elec       q    Type
REMARK                         _______ _______ _______ _____ _____    ______ ____
ROOT
ATOM      1  O   UNL     1     104.825 124.890 148.372  0.00  0.00    +0.000 OA
ATOM      2  O   UNL     1     105.670 126.811 148.972  0.00  0.00    +0.000 OA
ATOM      3  O   UNL     1     104.106 126.989 149.468  0.00  0.00    +0.000 OA
ATOM      4  O   UNL     1     102.762 126.488 149.612  0.00  0.00    +0.000 OA
ATOM      5  C   UNL     1     105.368 125.501 148.490  0.00  0.00    +0.000 C 
ATOM      6  C   UNL     1     105.128 126.201 148.855  0.00  0.00    +0.000 C 
ATOM      7  C   UNL     1     104.346 126.289 149.103  0.00  0.00    +0.000 C 
ATOM      8  C   UNL     1     103.804 125.679 148.985  0.00  0.00    +0.000 A 
ATOM      9  C   UNL     1     104.044 124.979 148.620  0.00  0.00    +0.000 A 
ATOM     10  C   UNL     1     102.992 125.784 149.248  0.00  0.00    +0.000 A 
ATOM     11  C   UNL     1     103.488 124.336 148.492  0.00  0.00    +0.000 A 
ATOM     12  C   UNL     1     102.673 124.423 148.748  0.00  0.00    +0.000 A 
ATOM     13  C   UNL     1     102.423 125.152 149.128  0.00  0.00    +0.000 A 
ENDROOT
BRANCH   5  15
ATOM     14  O   UNL     1     108.494 125.143 147.496  0.00  0.00    +0.000 OA
ATOM     15  C   UNL     1     106.150 125.411 148.242  0.00  0.00    +0.000 A 
ATOM     16  C   UNL     1     106.702 125.051 148.739  0.00  0.00    +0.000 A 
ATOM     17  C   UNL     1     106.379 125.682 147.497  0.00  0.00    +0.000 A 
ATOM     18  C   UNL     1     107.483 124.962 148.489  0.00  0.00    +0.000 A 
ATOM     19  C   UNL     1     107.161 125.592 147.249  0.00  0.00    +0.000 A 
ATOM     20  C   UNL     1     107.713 125.232 147.745  0.00  0.00    +0.000 A 
BRANCH  18  21
ATOM     21  O   UNL     1     108.035 124.602 148.986  0.00  0.00    +0.000 OA
ATOM     22  C   UNL     1     107.780 124.126 149.611  0.00  0.00    +0.000 C 
ENDBRANCH  18  21
ENDBRANCH   5  15
BRANCH  12  23
ATOM     23  O   UNL     1     102.133 123.810 148.629  0.00  0.00    +0.000 OA
ATOM     24  C   UNL     1     101.923 123.319 149.257  0.00  0.00    +0.000 C 
ENDBRANCH  12  23
TORSDOF 3
ENDMDL
