MODEL 1
REMARK VINA RESULT:     -10.0      0.000      0.000
REMARK  Name = 73822539
REMARK  9 active torsions:
REMARK  status: ('A' for Active; 'I' for Inactive)
REMARK    1  A    between atoms: O_3  and  C_26
REMARK    2  A    between atoms: O_3  and  C_30
REMARK    3  A    between atoms: O_6  and  C_27
REMARK    4  A    between atoms: O_6  and  C_31
REMARK    5  A    between atoms: O_11  and  C_28
REMARK    6  A    between atoms: O_11  and  C_40
REMARK    7  A    between atoms: C_20  and  C_28
REMARK    8  A    between atoms: C_25  and  C_29
REMARK    9  A    between atoms: C_34  and  C_39
REMARK                            x       y       z     vdW  Elec       q    Type
REMARK                         _______ _______ _______ _____ _____    ______ ____
ROOT
ATOM      1  O   UNL     1     113.510 126.246 138.653  0.00  0.00    +0.000 OA
ATOM      2  O   UNL     1     111.108 125.819 138.229  0.00  0.00    +0.000 OA
ATOM      3  O   UNL     1     110.750 126.415 139.494  0.00  0.00    +0.000 OA
ATOM      4  C   UNL     1     112.472 125.735 137.813  0.00  0.00    +0.000 A 
ATOM      5  C   UNL     1     112.622 127.094 140.520  0.00  0.00    +0.000 A 
ATOM      6  C   UNL     1     112.145 126.330 139.070  0.00  0.00    +0.000 A 
ATOM      7  C   UNL     1     111.909 125.961 138.371  0.00  0.00    +0.000 A 
ATOM      8  C   UNL     1     113.273 125.877 137.954  0.00  0.00    +0.000 A 
ATOM      9  C   UNL     1     112.945 126.472 139.211  0.00  0.00    +0.000 A 
ATOM     10  C   UNL     1     113.205 126.855 139.935  0.00  0.00    +0.000 A 
ATOM     11  C   UNL     1     111.788 126.946 140.373  0.00  0.00    +0.000 A 
ATOM     12  C   UNL     1     111.548 126.561 139.643  0.00  0.00    +0.000 A 
ENDROOT
BRANCH   8  14
ATOM     13  O   UNL     1     115.527 124.967 135.721  0.00  0.00    +0.000 OA
ATOM     14  C   UNL     1     113.837 125.650 137.396  0.00  0.00    +0.000 A 
ATOM     15  C   UNL     1     114.175 126.214 136.898  0.00  0.00    +0.000 A 
ATOM     16  C   UNL     1     114.062 124.858 137.336  0.00  0.00    +0.000 A 
ATOM     17  C   UNL     1     114.738 125.986 136.340  0.00  0.00    +0.000 A 
ATOM     18  C   UNL     1     114.625 124.631 136.778  0.00  0.00    +0.000 A 
ATOM     19  C   UNL     1     114.963 125.195 136.280  0.00  0.00    +0.000 A 
ENDBRANCH   8  14
BRANCH   4  20
ATOM     20  O   UNL     1     112.236 125.366 137.113  0.00  0.00    +0.000 OA
BRANCH  20  29
ATOM     21  O   UNL     1     111.724 126.572 136.542  0.00  0.00    +0.000 OA
ATOM     22  O   UNL     1     110.151 126.897 135.064  0.00  0.00    +0.000 OA
ATOM     23  O   UNL     1     110.133 125.251 135.182  0.00  0.00    +0.000 OA
ATOM     24  O   UNL     1     111.175 124.486 136.206  0.00  0.00    +0.000 OA
ATOM     25  C   UNL     1     110.673 126.514 135.577  0.00  0.00    +0.000 C 
ATOM     26  C   UNL     1     110.663 125.691 135.635  0.00  0.00    +0.000 C 
ATOM     27  C   UNL     1     111.203 126.954 136.031  0.00  0.00    +0.000 C 
ATOM     28  C   UNL     1     111.185 125.309 136.148  0.00  0.00    +0.000 C 
ATOM     29  C   UNL     1     111.715 125.749 136.602  0.00  0.00    +0.000 C 
BRANCH  27  30
ATOM     30  C   UNL     1     111.212 127.777 135.971  0.00  0.00    +0.000 C 
BRANCH  30  31
ATOM     31  O   UNL     1     111.929 128.182 135.939  0.00  0.00    +0.000 OA
BRANCH  31  33
ATOM     32  O   UNL     1     111.820 129.467 135.324  0.00  0.00    +0.000 OA
ATOM     33  C   UNL     1     111.943 129.005 135.996  0.00  0.00    +0.000 C 
ATOM     34  C   UNL     1     112.079 129.366 136.725  0.00  0.00    +0.000 C 
ENDBRANCH  31  33
ENDBRANCH  30  31
ENDBRANCH  27  30
ENDBRANCH  20  29
ENDBRANCH   4  20
BRANCH   5  35
ATOM     35  O   UNL     1     112.861 127.462 141.219  0.00  0.00    +0.000 OA
BRANCH  35  44
ATOM     36  O   UNL     1     113.185 128.751 140.692  0.00  0.00    +0.000 OA
ATOM     37  O   UNL     1     112.085 129.819 142.635  0.00  0.00    +0.000 OA
ATOM     38  O   UNL     1     112.775 130.752 141.462  0.00  0.00    +0.000 OA
ATOM     39  O   UNL     1     112.128 128.175 142.514  0.00  0.00    +0.000 OA
ATOM     40  C   UNL     1     112.451 129.463 141.987  0.00  0.00    +0.000 C 
ATOM     41  C   UNL     1     112.797 129.930 141.401  0.00  0.00    +0.000 C 
ATOM     42  C   UNL     1     112.473 128.641 141.927  0.00  0.00    +0.000 C 
ATOM     43  C   UNL     1     113.163 129.574 140.754  0.00  0.00    +0.000 C 
ATOM     44  C   UNL     1     112.840 128.285 141.279  0.00  0.00    +0.000 C 
BRANCH  43  46
ATOM     45  O   UNL     1     114.298 129.924 139.960  0.00  0.00    +0.000 OA
ATOM     46  C   UNL     1     113.508 130.040 140.167  0.00  0.00    +0.000 C 
ENDBRANCH  43  46
ENDBRANCH  35  44
ENDBRANCH   5  35
TORSDOF 9
ENDMDL
MODEL 2
REMARK VINA RESULT:      -9.5      1.666      5.855
REMARK  Name = 73822539
REMARK  9 active torsions:
REMARK  status: ('A' for Active; 'I' for Inactive)
REMARK    1  A    between atoms: O_3  and  C_26
REMARK    2  A    between atoms: O_3  and  C_30
REMARK    3  A    between atoms: O_6  and  C_27
REMARK    4  A    between atoms: O_6  and  C_31
REMARK    5  A    between atoms: O_11  and  C_28
REMARK    6  A    between atoms: O_11  and  C_40
REMARK    7  A    between atoms: C_20  and  C_28
REMARK    8  A    between atoms: C_25  and  C_29
REMARK    9  A    between atoms: C_34  and  C_39
REMARK                            x       y       z     vdW  Elec       q    Type
REMARK                         _______ _______ _______ _____ _____    ______ ____
ROOT
ATOM      1  O   UNL     1     112.812 128.628 138.232  0.00  0.00    +0.000 OA
ATOM      2  O   UNL     1     114.126 128.670 140.330  0.00  0.00    +0.000 OA
ATOM      3  O   UNL     1     113.804 127.288 140.593  0.00  0.00    +0.000 OA
ATOM      4  C   UNL     1     113.636 129.333 139.164  0.00  0.00    +0.000 A 
ATOM      5  C   UNL     1     112.508 126.527 138.931  0.00  0.00    +0.000 A 
ATOM      6  C   UNL     1     113.302 127.964 139.399  0.00  0.00    +0.000 A 
ATOM      7  C   UNL     1     113.687 128.656 139.631  0.00  0.00    +0.000 A 
ATOM      8  C   UNL     1     113.197 129.319 138.464  0.00  0.00    +0.000 A 
ATOM      9  C   UNL     1     112.864 127.950 138.701  0.00  0.00    +0.000 A 
ATOM     10  C   UNL     1     112.458 127.237 138.448  0.00  0.00    +0.000 A 
ATOM     11  C   UNL     1     112.965 126.541 139.660  0.00  0.00    +0.000 A 
ATOM     12  C   UNL     1     113.364 127.265 139.895  0.00  0.00    +0.000 A 
ENDROOT
BRANCH   8  14
ATOM     13  O   UNL     1     112.993 132.031 136.594  0.00  0.00    +0.000 OA
ATOM     14  C   UNL     1     113.146 129.997 137.997  0.00  0.00    +0.000 A 
ATOM     15  C   UNL     1     112.442 130.426 137.968  0.00  0.00    +0.000 A 
ATOM     16  C   UNL     1     113.799 130.246 137.558  0.00  0.00    +0.000 A 
ATOM     17  C   UNL     1     112.391 131.104 137.500  0.00  0.00    +0.000 A 
ATOM     18  C   UNL     1     113.748 130.924 137.091  0.00  0.00    +0.000 A 
ATOM     19  C   UNL     1     113.044 131.353 137.062  0.00  0.00    +0.000 A 
ENDBRANCH   8  14
BRANCH   4  20
ATOM     20  O   UNL     1     114.021 130.025 139.395  0.00  0.00    +0.000 OA
BRANCH  20  29
ATOM     21  O   UNL     1     113.088 130.327 140.434  0.00  0.00    +0.000 OA
ATOM     22  O   UNL     1     113.348 131.389 142.324  0.00  0.00    +0.000 OA
ATOM     23  O   UNL     1     114.877 131.467 141.710  0.00  0.00    +0.000 OA
ATOM     24  O   UNL     1     115.214 130.785 140.245  0.00  0.00    +0.000 OA
ATOM     25  C   UNL     1     113.516 131.047 141.591  0.00  0.00    +0.000 C 
ATOM     26  C   UNL     1     114.281 131.087 141.284  0.00  0.00    +0.000 C 
ATOM     27  C   UNL     1     112.920 130.667 141.166  0.00  0.00    +0.000 C 
ATOM     28  C   UNL     1     114.449 130.745 140.552  0.00  0.00    +0.000 C 
ATOM     29  C   UNL     1     113.853 130.366 140.127  0.00  0.00    +0.000 C 
BRANCH  27  30
ATOM     30  C   UNL     1     112.155 130.629 141.474  0.00  0.00    +0.000 C 
BRANCH  30  31
ATOM     31  O   UNL     1     111.512 130.858 141.011  0.00  0.00    +0.000 OA
BRANCH  31  33
ATOM     32  O   UNL     1     110.332 131.349 141.651  0.00  0.00    +0.000 OA
ATOM     33  C   UNL     1     110.743 130.735 141.284  0.00  0.00    +0.000 C 
ATOM     34  C   UNL     1     110.384 129.999 141.189  0.00  0.00    +0.000 C 
ENDBRANCH  31  33
ENDBRANCH  30  31
ENDBRANCH  27  30
ENDBRANCH  20  29
ENDBRANCH   4  20
BRANCH   5  35
ATOM     35  O   UNL     1     112.121 125.837 138.697  0.00  0.00    +0.000 OA
BRANCH  35  44
ATOM     36  O   UNL     1     113.219 125.354 137.920  0.00  0.00    +0.000 OA
ATOM     37  O   UNL     1     111.640 124.183 136.417  0.00  0.00    +0.000 OA
ATOM     38  O   UNL     1     113.264 124.090 136.141  0.00  0.00    +0.000 OA
ATOM     39  O   UNL     1     111.069 125.056 137.694  0.00  0.00    +0.000 OA
ATOM     40  C   UNL     1     112.167 124.573 136.918  0.00  0.00    +0.000 C 
ATOM     41  C   UNL     1     112.979 124.527 136.780  0.00  0.00    +0.000 C 
ATOM     42  C   UNL     1     111.881 125.010 137.556  0.00  0.00    +0.000 C 
ATOM     43  C   UNL     1     113.505 124.917 137.281  0.00  0.00    +0.000 C 
ATOM     44  C   UNL     1     112.407 125.400 138.058  0.00  0.00    +0.000 C 
BRANCH  43  46
ATOM     45  O   UNL     1     114.826 124.641 137.751  0.00  0.00    +0.000 OA
ATOM     46  C   UNL     1     114.317 124.870 137.143  0.00  0.00    +0.000 C 
ENDBRANCH  43  46
ENDBRANCH  35  44
ENDBRANCH   5  35
TORSDOF 9
ENDMDL
MODEL 3
REMARK VINA RESULT:      -9.5      1.139      2.942
REMARK  Name = 73822539
REMARK  9 active torsions:
REMARK  status: ('A' for Active; 'I' for Inactive)
REMARK    1  A    between atoms: O_3  and  C_26
REMARK    2  A    between atoms: O_3  and  C_30
REMARK    3  A    between atoms: O_6  and  C_27
REMARK    4  A    between atoms: O_6  and  C_31
REMARK    5  A    between atoms: O_11  and  C_28
REMARK    6  A    between atoms: O_11  and  C_40
REMARK    7  A    between atoms: C_20  and  C_28
REMARK    8  A    between atoms: C_25  and  C_29
REMARK    9  A    between atoms: C_34  and  C_39
REMARK                            x       y       z     vdW  Elec       q    Type
REMARK                         _______ _______ _______ _____ _____    ______ ____
ROOT
ATOM      1  O   UNL     1     112.823 128.483 138.098  0.00  0.00    +0.000 OA
ATOM      2  O   UNL     1     111.803 126.330 138.770  0.00  0.00    +0.000 OA
ATOM      3  O   UNL     1     112.468 126.380 140.049  0.00  0.00    +0.000 OA
ATOM      4  C   UNL     1     111.978 127.368 137.804  0.00  0.00    +0.000 A 
ATOM      5  C   UNL     1     113.692 128.255 140.144  0.00  0.00    +0.000 A 
ATOM      6  C   UNL     1     112.648 127.444 139.064  0.00  0.00    +0.000 A 
ATOM      7  C   UNL     1     112.143 127.048 138.546  0.00  0.00    +0.000 A 
ATOM      8  C   UNL     1     112.318 128.087 137.580  0.00  0.00    +0.000 A 
ATOM      9  C   UNL     1     112.988 128.161 138.840  0.00  0.00    +0.000 A 
ATOM     10  C   UNL     1     113.516 128.584 139.370  0.00  0.00    +0.000 A 
ATOM     11  C   UNL     1     113.337 127.506 140.378  0.00  0.00    +0.000 A 
ATOM     12  C   UNL     1     112.812 127.099 139.834  0.00  0.00    +0.000 A 
ENDROOT
BRANCH   8  14
ATOM     13  O   UNL     1     111.653 129.370 134.614  0.00  0.00    +0.000 OA
ATOM     14  C   UNL     1     112.153 128.407 136.839  0.00  0.00    +0.000 A 
ATOM     15  C   UNL     1     112.720 128.378 136.240  0.00  0.00    +0.000 A 
ATOM     16  C   UNL     1     111.419 128.758 136.695  0.00  0.00    +0.000 A 
ATOM     17  C   UNL     1     112.553 128.699 135.498  0.00  0.00    +0.000 A 
ATOM     18  C   UNL     1     111.253 129.078 135.954  0.00  0.00    +0.000 A 
ATOM     19  C   UNL     1     111.820 129.049 135.355  0.00  0.00    +0.000 A 
ENDBRANCH   8  14
BRANCH   4  20
ATOM     20  O   UNL     1     111.472 126.972 137.286  0.00  0.00    +0.000 OA
BRANCH  20  29
ATOM     21  O   UNL     1     112.448 125.963 137.016  0.00  0.00    +0.000 OA
ATOM     22  O   UNL     1     112.227 123.932 136.249  0.00  0.00    +0.000 OA
ATOM     23  O   UNL     1     110.654 124.429 136.271  0.00  0.00    +0.000 OA
ATOM     24  O   UNL     1     110.277 125.949 136.790  0.00  0.00    +0.000 OA
ATOM     25  C   UNL     1     112.038 124.692 136.508  0.00  0.00    +0.000 C 
ATOM     26  C   UNL     1     111.252 124.940 136.519  0.00  0.00    +0.000 C 
ATOM     27  C   UNL     1     112.636 125.204 136.756  0.00  0.00    +0.000 C 
ATOM     28  C   UNL     1     111.063 125.701 136.779  0.00  0.00    +0.000 C 
ATOM     29  C   UNL     1     111.661 126.213 137.027  0.00  0.00    +0.000 C 
BRANCH  27  30
ATOM     30  C   UNL     1     113.423 124.954 136.745  0.00  0.00    +0.000 C 
BRANCH  30  31
ATOM     31  O   UNL     1     114.000 125.423 136.389  0.00  0.00    +0.000 OA
BRANCH  31  33
ATOM     32  O   UNL     1     115.047 124.919 137.220  0.00  0.00    +0.000 OA
ATOM     33  C   UNL     1     114.799 125.259 136.510  0.00  0.00    +0.000 C 
ATOM     34  C   UNL     1     115.350 125.434 135.923  0.00  0.00    +0.000 C 
ENDBRANCH  31  33
ENDBRANCH  30  31
ENDBRANCH  27  30
ENDBRANCH  20  29
ENDBRANCH   4  20
BRANCH   5  35
ATOM     35  O   UNL     1     114.198 128.653 140.660  0.00  0.00    +0.000 OA
BRANCH  35  44
ATOM     36  O   UNL     1     113.239 129.412 141.400  0.00  0.00    +0.000 OA
ATOM     37  O   UNL     1     114.691 131.409 141.232  0.00  0.00    +0.000 OA
ATOM     38  O   UNL     1     113.248 131.503 142.028  0.00  0.00    +0.000 OA
ATOM     39  O   UNL     1     115.165 129.985 140.548  0.00  0.00    +0.000 OA
ATOM     40  C   UNL     1     114.206 130.743 141.288  0.00  0.00    +0.000 C 
ATOM     41  C   UNL     1     113.485 130.790 141.686  0.00  0.00    +0.000 C 
ATOM     42  C   UNL     1     114.444 130.031 140.946  0.00  0.00    +0.000 C 
ATOM     43  C   UNL     1     113.002 130.125 141.742  0.00  0.00    +0.000 C 
ATOM     44  C   UNL     1     113.960 129.365 141.002  0.00  0.00    +0.000 C 
BRANCH  43  46
ATOM     45  O   UNL     1     112.106 129.633 142.741  0.00  0.00    +0.000 OA
ATOM     46  C   UNL     1     112.281 130.171 142.140  0.00  0.00    +0.000 C 
ENDBRANCH  43  46
ENDBRANCH  35  44
ENDBRANCH   5  35
TORSDOF 9
ENDMDL
MODEL 4
REMARK VINA RESULT:      -9.5      1.802      4.951
REMARK  Name = 73822539
REMARK  9 active torsions:
REMARK  status: ('A' for Active; 'I' for Inactive)
REMARK    1  A    between atoms: O_3  and  C_26
REMARK    2  A    between atoms: O_3  and  C_30
REMARK    3  A    between atoms: O_6  and  C_27
REMARK    4  A    between atoms: O_6  and  C_31
REMARK    5  A    between atoms: O_11  and  C_28
REMARK    6  A    between atoms: O_11  and  C_40
REMARK    7  A    between atoms: C_20  and  C_28
REMARK    8  A    between atoms: C_25  and  C_29
REMARK    9  A    between atoms: C_34  and  C_39
REMARK                            x       y       z     vdW  Elec       q    Type
REMARK                         _______ _______ _______ _____ _____    ______ ____
ROOT
ATOM      1  O   UNL     1     112.434 127.451 136.736  0.00  0.00    +0.000 OA
ATOM      2  O   UNL     1     112.867 128.519 138.927  0.00  0.00    +0.000 OA
ATOM      3  O   UNL     1     112.191 129.723 138.506  0.00  0.00    +0.000 OA
ATOM      4  C   UNL     1     112.987 127.395 138.053  0.00  0.00    +0.000 A 
ATOM      5  C   UNL     1     111.466 129.438 136.406  0.00  0.00    +0.000 A 
ATOM      6  C   UNL     1     112.313 128.575 137.610  0.00  0.00    +0.000 A 
ATOM      7  C   UNL     1     112.722 128.163 138.196  0.00  0.00    +0.000 A 
ATOM      8  C   UNL     1     112.843 127.039 137.322  0.00  0.00    +0.000 A 
ATOM      9  C   UNL     1     112.169 128.219 136.881  0.00  0.00    +0.000 A 
ATOM     10  C   UNL     1     111.744 128.637 136.262  0.00  0.00    +0.000 A 
ATOM     11  C   UNL     1     111.616 129.809 137.167  0.00  0.00    +0.000 A 
ATOM     12  C   UNL     1     112.042 129.374 137.773  0.00  0.00    +0.000 A 
ENDROOT
BRANCH   8  14
ATOM     13  O   UNL     1     113.906 123.968 136.748  0.00  0.00    +0.000 OA
ATOM     14  C   UNL     1     113.108 126.271 137.179  0.00  0.00    +0.000 A 
ATOM     15  C   UNL     1     112.570 125.646 137.156  0.00  0.00    +0.000 A 
ATOM     16  C   UNL     1     113.912 126.129 137.058  0.00  0.00    +0.000 A 
ATOM     17  C   UNL     1     112.837 124.878 137.012  0.00  0.00    +0.000 A 
ATOM     18  C   UNL     1     114.177 125.361 136.914  0.00  0.00    +0.000 A 
ATOM     19  C   UNL     1     113.640 124.736 136.891  0.00  0.00    +0.000 A 
ENDBRANCH   8  14
BRANCH   4  20
ATOM     20  O   UNL     1     113.396 126.983 138.639  0.00  0.00    +0.000 OA
BRANCH  20  29
ATOM     21  O   UNL     1     112.242 126.713 139.437  0.00  0.00    +0.000 OA
ATOM     22  O   UNL     1     112.014 126.518 141.599  0.00  0.00    +0.000 OA
ATOM     23  O   UNL     1     113.631 126.826 141.483  0.00  0.00    +0.000 OA
ATOM     24  O   UNL     1     114.322 127.058 140.003  0.00  0.00    +0.000 OA
ATOM     25  C   UNL     1     112.360 126.635 140.859  0.00  0.00    +0.000 C 
ATOM     26  C   UNL     1     113.168 126.788 140.801  0.00  0.00    +0.000 C 
ATOM     27  C   UNL     1     111.897 126.597 140.177  0.00  0.00    +0.000 C 
ATOM     28  C   UNL     1     113.514 126.904 140.060  0.00  0.00    +0.000 C 
ATOM     29  C   UNL     1     113.051 126.867 139.378  0.00  0.00    +0.000 C 
BRANCH  27  30
ATOM     30  C   UNL     1     111.088 126.443 140.236  0.00  0.00    +0.000 C 
BRANCH  30  31
ATOM     31  O   UNL     1     110.737 125.885 139.742  0.00  0.00    +0.000 OA
BRANCH  31  33
ATOM     32  O   UNL     1     109.578 125.265 140.301  0.00  0.00    +0.000 OA
ATOM     33  C   UNL     1     109.919 125.779 139.754  0.00  0.00    +0.000 C 
ATOM     34  C   UNL     1     109.442 126.186 139.219  0.00  0.00    +0.000 C 
ENDBRANCH  31  33
ENDBRANCH  30  31
ENDBRANCH  27  30
ENDBRANCH  20  29
ENDBRANCH   4  20
BRANCH   5  35
ATOM     35  O   UNL     1     111.057 129.848 135.818  0.00  0.00    +0.000 OA
BRANCH  35  44
ATOM     36  O   UNL     1     109.815 129.140 135.821  0.00  0.00    +0.000 OA
ATOM     37  O   UNL     1     108.591 131.291 135.799  0.00  0.00    +0.000 OA
ATOM     38  O   UNL     1     107.756 129.867 135.810  0.00  0.00    +0.000 OA
ATOM     39  O   UNL     1     110.240 131.281 135.803  0.00  0.00    +0.000 OA
ATOM     40  C   UNL     1     108.998 130.573 135.807  0.00  0.00    +0.000 C 
ATOM     41  C   UNL     1     108.582 129.861 135.812  0.00  0.00    +0.000 C 
ATOM     42  C   UNL     1     109.823 130.569 135.809  0.00  0.00    +0.000 C 
ATOM     43  C   UNL     1     108.990 129.145 135.819  0.00  0.00    +0.000 C 
ATOM     44  C   UNL     1     110.232 129.852 135.816  0.00  0.00    +0.000 C 
BRANCH  43  46
ATOM     45  O   UNL     1     108.628 127.928 136.474  0.00  0.00    +0.000 OA
ATOM     46  C   UNL     1     108.573 128.433 135.824  0.00  0.00    +0.000 C 
ENDBRANCH  43  46
ENDBRANCH  35  44
ENDBRANCH   5  35
TORSDOF 9
ENDMDL
MODEL 5
REMARK VINA RESULT:      -9.4      7.145      9.604
REMARK  Name = 73822539
REMARK  9 active torsions:
REMARK  status: ('A' for Active; 'I' for Inactive)
REMARK    1  A    between atoms: O_3  and  C_26
REMARK    2  A    between atoms: O_3  and  C_30
REMARK    3  A    between atoms: O_6  and  C_27
REMARK    4  A    between atoms: O_6  and  C_31
REMARK    5  A    between atoms: O_11  and  C_28
REMARK    6  A    between atoms: O_11  and  C_40
REMARK    7  A    between atoms: C_20  and  C_28
REMARK    8  A    between atoms: C_25  and  C_29
REMARK    9  A    between atoms: C_34  and  C_39
REMARK                            x       y       z     vdW  Elec       q    Type
REMARK                         _______ _______ _______ _____ _____    ______ ____
ROOT
ATOM      1  O   UNL     1     105.012 127.585 142.781  0.00  0.00    +0.000 OA
ATOM      2  O   UNL     1     107.279 128.243 142.036  0.00  0.00    +0.000 OA
ATOM      3  O   UNL     1     107.820 126.977 142.469  0.00  0.00    +0.000 OA
ATOM      4  C   UNL     1     105.891 128.545 142.189  0.00  0.00    +0.000 A 
ATOM      5  C   UNL     1     106.158 125.749 143.336  0.00  0.00    +0.000 A 
ATOM      6  C   UNL     1     106.400 127.283 142.627  0.00  0.00    +0.000 A 
ATOM      7  C   UNL     1     106.523 128.023 142.284  0.00  0.00    +0.000 A 
ATOM      8  C   UNL     1     105.135 128.325 142.438  0.00  0.00    +0.000 A 
ATOM      9  C   UNL     1     105.645 127.065 142.876  0.00  0.00    +0.000 A 
ATOM     10  C   UNL     1     105.503 126.297 143.235  0.00  0.00    +0.000 A 
ATOM     11  C   UNL     1     106.946 125.977 143.077  0.00  0.00    +0.000 A 
ATOM     12  C   UNL     1     107.067 126.749 142.721  0.00  0.00    +0.000 A 
ENDROOT
BRANCH   8  14
ATOM     13  O   UNL     1     102.606 130.411 142.055  0.00  0.00    +0.000 OA
ATOM     14  C   UNL     1     104.503 128.847 142.343  0.00  0.00    +0.000 A 
ATOM     15  C   UNL     1     104.217 129.272 142.990  0.00  0.00    +0.000 A 
ATOM     16  C   UNL     1     104.156 128.943 141.600  0.00  0.00    +0.000 A 
ATOM     17  C   UNL     1     103.585 129.793 142.893  0.00  0.00    +0.000 A 
ATOM     18  C   UNL     1     103.524 129.465 141.505  0.00  0.00    +0.000 A 
ATOM     19  C   UNL     1     103.238 129.890 142.151  0.00  0.00    +0.000 A 
ENDBRANCH   8  14
BRANCH   4  20
ATOM     20  O   UNL     1     106.014 129.285 141.846  0.00  0.00    +0.000 OA
BRANCH  20  29
ATOM     21  O   UNL     1     106.685 129.829 142.984  0.00  0.00    +0.000 OA
ATOM     22  O   UNL     1     108.245 131.349 143.131  0.00  0.00    +0.000 OA
ATOM     23  O   UNL     1     108.018 131.292 141.498  0.00  0.00    +0.000 OA
ATOM     24  O   UNL     1     106.903 130.260 140.855  0.00  0.00    +0.000 OA
ATOM     25  C   UNL     1     107.687 130.832 142.810  0.00  0.00    +0.000 C 
ATOM     26  C   UNL     1     107.574 130.805 141.993  0.00  0.00    +0.000 C 
ATOM     27  C   UNL     1     107.243 130.345 143.305  0.00  0.00    +0.000 C 
ATOM     28  C   UNL     1     107.016 130.288 141.672  0.00  0.00    +0.000 C 
ATOM     29  C   UNL     1     106.571 129.800 142.167  0.00  0.00    +0.000 C 
BRANCH  27  30
ATOM     30  C   UNL     1     107.357 130.374 144.122  0.00  0.00    +0.000 C 
BRANCH  30  31
ATOM     31  O   UNL     1     106.720 130.255 144.632  0.00  0.00    +0.000 OA
BRANCH  31  33
ATOM     32  O   UNL     1     106.868 130.876 145.910  0.00  0.00    +0.000 OA
ATOM     33  C   UNL     1     106.848 130.195 145.445  0.00  0.00    +0.000 C 
ATOM     34  C   UNL     1     106.955 129.455 145.793  0.00  0.00    +0.000 C 
ENDBRANCH  31  33
ENDBRANCH  30  31
ENDBRANCH  27  30
ENDBRANCH  20  29
ENDBRANCH   4  20
BRANCH   5  35
ATOM     35  O   UNL     1     106.032 125.010 143.680  0.00  0.00    +0.000 OA
BRANCH  35  44
ATOM     36  O   UNL     1     106.352 125.382 145.022  0.00  0.00    +0.000 OA
ATOM     37  O   UNL     1     104.548 123.908 145.859  0.00  0.00    +0.000 OA
ATOM     38  O   UNL     1     105.468 124.771 146.923  0.00  0.00    +0.000 OA
ATOM     39  O   UNL     1     104.830 124.027 144.238  0.00  0.00    +0.000 OA
ATOM     40  C   UNL     1     105.149 124.400 145.580  0.00  0.00    +0.000 C 
ATOM     41  C   UNL     1     105.610 124.831 146.112  0.00  0.00    +0.000 C 
ATOM     42  C   UNL     1     105.290 124.459 144.770  0.00  0.00    +0.000 C 
ATOM     43  C   UNL     1     106.210 125.322 145.833  0.00  0.00    +0.000 C 
ATOM     44  C   UNL     1     105.891 124.950 144.490  0.00  0.00    +0.000 C 
BRANCH  43  46
ATOM     45  O   UNL     1     107.485 125.628 146.401  0.00  0.00    +0.000 OA
ATOM     46  C   UNL     1     106.670 125.754 146.364  0.00  0.00    +0.000 C 
ENDBRANCH  43  46
ENDBRANCH  35  44
ENDBRANCH   5  35
TORSDOF 9
ENDMDL
MODEL 6
REMARK VINA RESULT:      -9.4      2.284      5.328
REMARK  Name = 73822539
REMARK  9 active torsions:
REMARK  status: ('A' for Active; 'I' for Inactive)
REMARK    1  A    between atoms: O_3  and  C_26
REMARK    2  A    between atoms: O_3  and  C_30
REMARK    3  A    between atoms: O_6  and  C_27
REMARK    4  A    between atoms: O_6  and  C_31
REMARK    5  A    between atoms: O_11  and  C_28
REMARK    6  A    between atoms: O_11  and  C_40
REMARK    7  A    between atoms: C_20  and  C_28
REMARK    8  A    between atoms: C_25  and  C_29
REMARK    9  A    between atoms: C_34  and  C_39
REMARK                            x       y       z     vdW  Elec       q    Type
REMARK                         _______ _______ _______ _____ _____    ______ ____
ROOT
ATOM      1  O   UNL     1     110.211 127.668 136.912  0.00  0.00    +0.000 OA
ATOM      2  O   UNL     1     109.630 128.286 139.238  0.00  0.00    +0.000 OA
ATOM      3  O   UNL     1     110.102 127.012 139.724  0.00  0.00    +0.000 OA
ATOM      4  C   UNL     1     109.683 128.611 137.848  0.00  0.00    +0.000 A 
ATOM      5  C   UNL     1     110.848 125.814 137.984  0.00  0.00    +0.000 A 
ATOM      6  C   UNL     1     110.158 127.342 138.302  0.00  0.00    +0.000 A 
ATOM      7  C   UNL     1     109.824 128.080 138.462  0.00  0.00    +0.000 A 
ATOM      8  C   UNL     1     109.877 128.405 137.072  0.00  0.00    +0.000 A 
ATOM      9  C   UNL     1     110.351 127.137 137.528  0.00  0.00    +0.000 A 
ATOM     10  C   UNL     1     110.699 126.373 137.347  0.00  0.00    +0.000 A 
ATOM     11  C   UNL     1     110.646 126.028 138.792  0.00  0.00    +0.000 A 
ATOM     12  C   UNL     1     110.299 126.798 138.952  0.00  0.00    +0.000 A 
ENDROOT
BRANCH   8  14
ATOM     13  O   UNL     1     109.317 130.534 134.613  0.00  0.00    +0.000 OA
ATOM     14  C   UNL     1     109.736 128.937 136.457  0.00  0.00    +0.000 A 
ATOM     15  C   UNL     1     108.965 129.074 136.198  0.00  0.00    +0.000 A 
ATOM     16  C   UNL     1     110.368 129.333 136.102  0.00  0.00    +0.000 A 
ATOM     17  C   UNL     1     108.826 129.606 135.583  0.00  0.00    +0.000 A 
ATOM     18  C   UNL     1     110.227 129.865 135.487  0.00  0.00    +0.000 A 
ATOM     19  C   UNL     1     109.456 130.001 135.228  0.00  0.00    +0.000 A 
ENDBRANCH   8  14
BRANCH   4  20
ATOM     20  O   UNL     1     109.349 129.349 138.008  0.00  0.00    +0.000 OA
BRANCH  20  29
ATOM     21  O   UNL     1     110.537 129.888 138.590  0.00  0.00    +0.000 OA
ATOM     22  O   UNL     1     110.809 131.392 140.149  0.00  0.00    +0.000 OA
ATOM     23  O   UNL     1     109.163 131.335 140.053  0.00  0.00    +0.000 OA
ATOM     24  O   UNL     1     108.433 130.314 138.983  0.00  0.00    +0.000 OA
ATOM     25  C   UNL     1     110.444 130.881 139.613  0.00  0.00    +0.000 C 
ATOM     26  C   UNL     1     109.621 130.853 139.566  0.00  0.00    +0.000 C 
ATOM     27  C   UNL     1     110.902 130.398 139.125  0.00  0.00    +0.000 C 
ATOM     28  C   UNL     1     109.256 130.342 139.030  0.00  0.00    +0.000 C 
ATOM     29  C   UNL     1     109.714 129.859 138.542  0.00  0.00    +0.000 C 
BRANCH  27  30
ATOM     30  C   UNL     1     111.725 130.427 139.173  0.00  0.00    +0.000 C 
BRANCH  30  31
ATOM     31  O   UNL     1     112.179 130.431 138.485  0.00  0.00    +0.000 OA
BRANCH  31  33
ATOM     32  O   UNL     1     113.485 130.980 138.669  0.00  0.00    +0.000 OA
ATOM     33  C   UNL     1     112.997 130.330 138.529  0.00  0.00    +0.000 C 
ATOM     34  C   UNL     1     113.327 129.581 138.433  0.00  0.00    +0.000 C 
ENDBRANCH  31  33
ENDBRANCH  30  31
ENDBRANCH  27  30
ENDBRANCH  20  29
ENDBRANCH   4  20
BRANCH   5  35
ATOM     35  O   UNL     1     111.182 125.078 137.821  0.00  0.00    +0.000 OA
BRANCH  35  44
ATOM     36  O   UNL     1     112.532 125.509 138.002  0.00  0.00    +0.000 OA
ATOM     37  O   UNL     1     113.281 123.876 136.300  0.00  0.00    +0.000 OA
ATOM     38  O   UNL     1     114.383 124.852 137.048  0.00  0.00    +0.000 OA
ATOM     39  O   UNL     1     111.682 123.989 136.686  0.00  0.00    +0.000 OA
ATOM     40  C   UNL     1     113.032 124.421 136.867  0.00  0.00    +0.000 C 
ATOM     41  C   UNL     1     113.583 124.909 137.242  0.00  0.00    +0.000 C 
ATOM     42  C   UNL     1     112.232 124.477 137.060  0.00  0.00    +0.000 C 
ATOM     43  C   UNL     1     113.333 125.452 137.808  0.00  0.00    +0.000 C 
ATOM     44  C   UNL     1     111.982 125.021 137.628  0.00  0.00    +0.000 C 
BRANCH  43  46
ATOM     45  O   UNL     1     113.858 126.038 139.001  0.00  0.00    +0.000 OA
ATOM     46  C   UNL     1     113.883 125.940 138.183  0.00  0.00    +0.000 C 
ENDBRANCH  43  46
ENDBRANCH  35  44
ENDBRANCH   5  35
TORSDOF 9
ENDMDL
MODEL 7
REMARK VINA RESULT:      -9.4      1.475      2.941
REMARK  Name = 73822539
REMARK  9 active torsions:
REMARK  status: ('A' for Active; 'I' for Inactive)
REMARK    1  A    between atoms: O_3  and  C_26
REMARK    2  A    between atoms: O_3  and  C_30
REMARK    3  A    between atoms: O_6  and  C_27
REMARK    4  A    between atoms: O_6  and  C_31
REMARK    5  A    between atoms: O_11  and  C_28
REMARK    6  A    between atoms: O_11  and  C_40
REMARK    7  A    between atoms: C_20  and  C_28
REMARK    8  A    between atoms: C_25  and  C_29
REMARK    9  A    between atoms: C_34  and  C_39
REMARK                            x       y       z     vdW  Elec       q    Type
REMARK                         _______ _______ _______ _____ _____    ______ ____
ROOT
ATOM      1  O   UNL     1     113.145 128.657 138.367  0.00  0.00    +0.000 OA
ATOM      2  O   UNL     1     113.637 126.270 138.801  0.00  0.00    +0.000 OA
ATOM      3  O   UNL     1     113.908 126.549 140.190  0.00  0.00    +0.000 OA
ATOM      4  C   UNL     1     113.259 127.311 137.898  0.00  0.00    +0.000 A 
ATOM      5  C   UNL     1     113.628 128.743 140.546  0.00  0.00    +0.000 A 
ATOM      6  C   UNL     1     113.522 127.615 139.270  0.00  0.00    +0.000 A 
ATOM      7  C   UNL     1     113.473 127.066 138.656  0.00  0.00    +0.000 A 
ATOM      8  C   UNL     1     113.095 128.107 137.753  0.00  0.00    +0.000 A 
ATOM      9  C   UNL     1     113.358 128.410 139.125  0.00  0.00    +0.000 A 
ATOM     10  C   UNL     1     113.406 128.993 139.754  0.00  0.00    +0.000 A 
ATOM     11  C   UNL     1     113.799 127.914 140.698  0.00  0.00    +0.000 A 
ATOM     12  C   UNL     1     113.746 127.347 140.055  0.00  0.00    +0.000 A 
ENDROOT
BRANCH   8  14
ATOM     13  O   UNL     1     112.238 129.088 134.721  0.00  0.00    +0.000 OA
ATOM     14  C   UNL     1     112.881 128.352 136.995  0.00  0.00    +0.000 A 
ATOM     15  C   UNL     1     113.452 128.401 136.401  0.00  0.00    +0.000 A 
ATOM     16  C   UNL     1     112.096 128.548 136.832  0.00  0.00    +0.000 A 
ATOM     17  C   UNL     1     113.237 128.647 135.643  0.00  0.00    +0.000 A 
ATOM     18  C   UNL     1     111.883 128.793 136.073  0.00  0.00    +0.000 A 
ATOM     19  C   UNL     1     112.453 128.842 135.479  0.00  0.00    +0.000 A 
ENDBRANCH   8  14
BRANCH   4  20
ATOM     20  O   UNL     1     113.209 126.761 137.285  0.00  0.00    +0.000 OA
BRANCH  20  29
ATOM     21  O   UNL     1     111.995 126.173 137.757  0.00  0.00    +0.000 OA
ATOM     22  O   UNL     1     111.230 124.137 137.578  0.00  0.00    +0.000 OA
ATOM     23  O   UNL     1     112.668 124.001 136.781  0.00  0.00    +0.000 OA
ATOM     24  O   UNL     1     113.658 125.313 136.635  0.00  0.00    +0.000 OA
ATOM     25  C   UNL     1     111.725 124.794 137.505  0.00  0.00    +0.000 C 
ATOM     26  C   UNL     1     112.444 124.725 137.106  0.00  0.00    +0.000 C 
ATOM     27  C   UNL     1     111.501 125.518 137.830  0.00  0.00    +0.000 C 
ATOM     28  C   UNL     1     112.939 125.381 137.033  0.00  0.00    +0.000 C 
ATOM     29  C   UNL     1     112.715 126.106 137.358  0.00  0.00    +0.000 C 
BRANCH  27  30
ATOM     30  C   UNL     1     110.781 125.585 138.228  0.00  0.00    +0.000 C 
BRANCH  30  31
ATOM     31  O   UNL     1     110.358 126.292 138.199  0.00  0.00    +0.000 OA
BRANCH  31  33
ATOM     32  O   UNL     1     108.950 126.182 138.420  0.00  0.00    +0.000 OA
ATOM     33  C   UNL     1     109.700 126.400 138.686  0.00  0.00    +0.000 C 
ATOM     34  C   UNL     1     109.792 126.727 139.437  0.00  0.00    +0.000 C 
ENDBRANCH  31  33
ENDBRANCH  30  31
ENDBRANCH  27  30
ENDBRANCH  20  29
ENDBRANCH   4  20
BRANCH   5  35
ATOM     35  O   UNL     1     113.677 129.295 141.158  0.00  0.00    +0.000 OA
BRANCH  35  44
ATOM     36  O   UNL     1     112.411 129.035 141.767  0.00  0.00    +0.000 OA
ATOM     37  O   UNL     1     112.084 131.463 142.121  0.00  0.00    +0.000 OA
ATOM     38  O   UNL     1     110.926 130.394 142.613  0.00  0.00    +0.000 OA
ATOM     39  O   UNL     1     113.458 130.914 141.394  0.00  0.00    +0.000 OA
ATOM     40  C   UNL     1     112.192 130.653 142.003  0.00  0.00    +0.000 C 
ATOM     41  C   UNL     1     111.614 130.118 142.249  0.00  0.00    +0.000 C 
ATOM     42  C   UNL     1     112.880 130.379 141.640  0.00  0.00    +0.000 C 
ATOM     43  C   UNL     1     111.723 129.310 142.131  0.00  0.00    +0.000 C 
ATOM     44  C   UNL     1     112.990 129.570 141.522  0.00  0.00    +0.000 C 
BRANCH  43  46
ATOM     45  O   UNL     1     111.351 128.136 142.856  0.00  0.00    +0.000 OA
ATOM     46  C   UNL     1     111.145 128.776 142.377  0.00  0.00    +0.000 C 
ENDBRANCH  43  46
ENDBRANCH  35  44
ENDBRANCH   5  35
TORSDOF 9
ENDMDL
MODEL 8
REMARK VINA RESULT:      -9.4      1.766      4.699
REMARK  Name = 73822539
REMARK  9 active torsions:
REMARK  status: ('A' for Active; 'I' for Inactive)
REMARK    1  A    between atoms: O_3  and  C_26
REMARK    2  A    between atoms: O_3  and  C_30
REMARK    3  A    between atoms: O_6  and  C_27
REMARK    4  A    between atoms: O_6  and  C_31
REMARK    5  A    between atoms: O_11  and  C_28
REMARK    6  A    between atoms: O_11  and  C_40
REMARK    7  A    between atoms: C_20  and  C_28
REMARK    8  A    between atoms: C_25  and  C_29
REMARK    9  A    between atoms: C_34  and  C_39
REMARK                            x       y       z     vdW  Elec       q    Type
REMARK                         _______ _______ _______ _____ _____    ______ ____
ROOT
ATOM      1  O   UNL     1     112.020 128.360 138.344  0.00  0.00    +0.000 OA
ATOM      2  O   UNL     1     113.717 127.324 136.868  0.00  0.00    +0.000 OA
ATOM      3  O   UNL     1     113.581 128.396 135.912  0.00  0.00    +0.000 OA
ATOM      4  C   UNL     1     112.945 127.305 138.071  0.00  0.00    +0.000 A 
ATOM      5  C   UNL     1     112.055 129.847 136.676  0.00  0.00    +0.000 A 
ATOM      6  C   UNL     1     112.791 128.379 137.141  0.00  0.00    +0.000 A 
ATOM      7  C   UNL     1     113.151 127.669 137.360  0.00  0.00    +0.000 A 
ATOM      8  C   UNL     1     112.379 127.650 138.563  0.00  0.00    +0.000 A 
ATOM      9  C   UNL     1     112.226 128.724 137.632  0.00  0.00    +0.000 A 
ATOM     10  C   UNL     1     111.845 129.462 137.416  0.00  0.00    +0.000 A 
ATOM     11  C   UNL     1     112.644 129.487 136.164  0.00  0.00    +0.000 A 
ATOM     12  C   UNL     1     113.015 128.748 136.398  0.00  0.00    +0.000 A 
ENDROOT
BRANCH   8  14
ATOM     13  O   UNL     1     111.555 126.190 141.405  0.00  0.00    +0.000 OA
ATOM     14  C   UNL     1     112.174 127.285 139.274  0.00  0.00    +0.000 A 
ATOM     15  C   UNL     1     112.701 127.291 139.908  0.00  0.00    +0.000 A 
ATOM     16  C   UNL     1     111.440 126.915 139.349  0.00  0.00    +0.000 A 
ATOM     17  C   UNL     1     112.494 126.926 140.619  0.00  0.00    +0.000 A 
ATOM     18  C   UNL     1     111.235 126.550 140.060  0.00  0.00    +0.000 A 
ATOM     19  C   UNL     1     111.762 126.555 140.695  0.00  0.00    +0.000 A 
ENDBRANCH   8  14
BRANCH   4  20
ATOM     20  O   UNL     1     113.305 126.595 138.290  0.00  0.00    +0.000 OA
BRANCH  20  29
ATOM     21  O   UNL     1     112.522 125.795 137.403  0.00  0.00    +0.000 OA
ATOM     22  O   UNL     1     112.987 123.925 136.378  0.00  0.00    +0.000 OA
ATOM     23  O   UNL     1     114.395 124.191 137.196  0.00  0.00    +0.000 OA
ATOM     24  O   UNL     1     114.554 125.526 138.153  0.00  0.00    +0.000 OA
ATOM     25  C   UNL     1     113.067 124.593 136.856  0.00  0.00    +0.000 C 
ATOM     26  C   UNL     1     113.771 124.725 137.265  0.00  0.00    +0.000 C 
ATOM     27  C   UNL     1     112.442 125.128 136.925  0.00  0.00    +0.000 C 
ATOM     28  C   UNL     1     113.850 125.393 137.744  0.00  0.00    +0.000 C 
ATOM     29  C   UNL     1     113.225 125.928 137.812  0.00  0.00    +0.000 C 
BRANCH  27  30
ATOM     30  C   UNL     1     111.738 124.994 136.515  0.00  0.00    +0.000 C 
BRANCH  30  31
ATOM     31  O   UNL     1     111.410 125.592 136.053  0.00  0.00    +0.000 OA
BRANCH  31  33
ATOM     32  O   UNL     1     110.026 125.738 136.376  0.00  0.00    +0.000 OA
ATOM     33  C   UNL     1     110.616 125.554 135.830  0.00  0.00    +0.000 C 
ATOM     34  C   UNL     1     110.413 125.332 135.063  0.00  0.00    +0.000 C 
ENDBRANCH  31  33
ENDBRANCH  30  31
ENDBRANCH  27  30
ENDBRANCH  20  29
ENDBRANCH   4  20
BRANCH   5  35
ATOM     35  O   UNL     1     111.694 130.556 136.460  0.00  0.00    +0.000 OA
BRANCH  35  44
ATOM     36  O   UNL     1     110.735 130.037 135.536  0.00  0.00    +0.000 OA
ATOM     37  O   UNL     1     109.022 131.570 136.454  0.00  0.00    +0.000 OA
ATOM     38  O   UNL     1     108.633 130.540 135.224  0.00  0.00    +0.000 OA
ATOM     39  O   UNL     1     110.551 131.578 137.071  0.00  0.00    +0.000 OA
ATOM     40  C   UNL     1     109.593 131.059 136.148  0.00  0.00    +0.000 C 
ATOM     41  C   UNL     1     109.399 130.544 135.533  0.00  0.00    +0.000 C 
ATOM     42  C   UNL     1     110.358 131.063 136.457  0.00  0.00    +0.000 C 
ATOM     43  C   UNL     1     109.969 130.034 135.227  0.00  0.00    +0.000 C 
ATOM     44  C   UNL     1     110.929 130.552 136.151  0.00  0.00    +0.000 C 
BRANCH  43  46
ATOM     45  O   UNL     1     109.810 128.703 134.731  0.00  0.00    +0.000 OA
ATOM     46  C   UNL     1     109.775 129.519 134.613  0.00  0.00    +0.000 C 
ENDBRANCH  43  46
ENDBRANCH  35  44
ENDBRANCH   5  35
TORSDOF 9
ENDMDL
MODEL 9
REMARK VINA RESULT:      -9.4      2.451      4.996
REMARK  Name = 73822539
REMARK  9 active torsions:
REMARK  status: ('A' for Active; 'I' for Inactive)
REMARK    1  A    between atoms: O_3  and  C_26
REMARK    2  A    between atoms: O_3  and  C_30
REMARK    3  A    between atoms: O_6  and  C_27
REMARK    4  A    between atoms: O_6  and  C_31
REMARK    5  A    between atoms: O_11  and  C_28
REMARK    6  A    between atoms: O_11  and  C_40
REMARK    7  A    between atoms: C_20  and  C_28
REMARK    8  A    between atoms: C_25  and  C_29
REMARK    9  A    between atoms: C_34  and  C_39
REMARK                            x       y       z     vdW  Elec       q    Type
REMARK                         _______ _______ _______ _____ _____    ______ ____
ROOT
ATOM      1  O   UNL     1     111.979 129.344 135.566  0.00  0.00    +0.000 OA
ATOM      2  O   UNL     1     111.763 126.980 136.268  0.00  0.00    +0.000 OA
ATOM      3  O   UNL     1     110.324 127.060 136.194  0.00  0.00    +0.000 OA
ATOM      4  C   UNL     1     112.582 128.109 135.958  0.00  0.00    +0.000 A 
ATOM      5  C   UNL     1     109.755 129.130 135.553  0.00  0.00    +0.000 A 
ATOM      6  C   UNL     1     111.159 128.215 135.876  0.00  0.00    +0.000 A 
ATOM      7  C   UNL     1     111.835 127.768 136.034  0.00  0.00    +0.000 A 
ATOM      8  C   UNL     1     112.654 128.897 135.723  0.00  0.00    +0.000 A 
ATOM      9  C   UNL     1     111.232 129.002 135.642  0.00  0.00    +0.000 A 
ATOM     10  C   UNL     1     110.536 129.479 135.475  0.00  0.00    +0.000 A 
ATOM     11  C   UNL     1     109.679 128.308 135.797  0.00  0.00    +0.000 A 
ATOM     12  C   UNL     1     110.386 127.849 135.959  0.00  0.00    +0.000 A 
ENDROOT
BRANCH   8  14
ATOM     13  O   UNL     1     115.644 130.260 135.421  0.00  0.00    +0.000 OA
ATOM     14  C   UNL     1     113.402 129.237 135.647  0.00  0.00    +0.000 A 
ATOM     15  C   UNL     1     113.885 129.034 135.011  0.00  0.00    +0.000 A 
ATOM     16  C   UNL     1     113.666 129.782 136.209  0.00  0.00    +0.000 A 
ATOM     17  C   UNL     1     114.633 129.375 134.936  0.00  0.00    +0.000 A 
ATOM     18  C   UNL     1     114.413 130.122 136.133  0.00  0.00    +0.000 A 
ATOM     19  C   UNL     1     114.897 129.919 135.496  0.00  0.00    +0.000 A 
ENDBRANCH   8  14
BRANCH   4  20
ATOM     20  O   UNL     1     113.257 127.662 136.115  0.00  0.00    +0.000 OA
BRANCH  20  29
ATOM     21  O   UNL     1     113.084 127.675 137.534  0.00  0.00    +0.000 OA
ATOM     22  O   UNL     1     113.621 126.202 139.052  0.00  0.00    +0.000 OA
ATOM     23  O   UNL     1     114.149 125.446 137.684  0.00  0.00    +0.000 OA
ATOM     24  O   UNL     1     113.968 126.176 136.216  0.00  0.00    +0.000 OA
ATOM     25  C   UNL     1     113.530 126.567 138.318  0.00  0.00    +0.000 C 
ATOM     26  C   UNL     1     113.794 126.189 137.634  0.00  0.00    +0.000 C 
ATOM     27  C   UNL     1     113.175 127.310 138.267  0.00  0.00    +0.000 C 
ATOM     28  C   UNL     1     113.703 126.554 136.899  0.00  0.00    +0.000 C 
ATOM     29  C   UNL     1     113.348 127.297 136.849  0.00  0.00    +0.000 C 
BRANCH  27  30
ATOM     30  C   UNL     1     112.910 127.687 138.952  0.00  0.00    +0.000 C 
BRANCH  30  31
ATOM     31  O   UNL     1     113.013 128.501 139.041  0.00  0.00    +0.000 OA
BRANCH  31  33
ATOM     32  O   UNL     1     113.046 128.951 140.396  0.00  0.00    +0.000 OA
ATOM     33  C   UNL     1     112.656 128.895 139.672  0.00  0.00    +0.000 C 
ATOM     34  C   UNL     1     111.910 129.234 139.578  0.00  0.00    +0.000 C 
ENDBRANCH  31  33
ENDBRANCH  30  31
ENDBRANCH  27  30
ENDBRANCH  20  29
ENDBRANCH   4  20
BRANCH   5  35
ATOM     35  O   UNL     1     109.081 129.579 135.394  0.00  0.00    +0.000 OA
BRANCH  35  44
ATOM     36  O   UNL     1     108.995 130.149 136.702  0.00  0.00    +0.000 OA
ATOM     37  O   UNL     1     108.054 132.224 135.733  0.00  0.00    +0.000 OA
ATOM     38  O   UNL     1     108.281 132.104 137.363  0.00  0.00    +0.000 OA
ATOM     39  O   UNL     1     108.454 130.962 134.749  0.00  0.00    +0.000 OA
ATOM     40  C   UNL     1     108.367 131.533 136.056  0.00  0.00    +0.000 C 
ATOM     41  C   UNL     1     108.481 131.472 136.871  0.00  0.00    +0.000 C 
ATOM     42  C   UNL     1     108.567 130.902 135.564  0.00  0.00    +0.000 C 
ATOM     43  C   UNL     1     108.794 130.781 137.194  0.00  0.00    +0.000 C 
ATOM     44  C   UNL     1     108.881 130.210 135.887  0.00  0.00    +0.000 C 
BRANCH  43  46
ATOM     45  O   UNL     1     108.578 130.090 138.425  0.00  0.00    +0.000 OA
ATOM     46  C   UNL     1     108.908 130.721 138.009  0.00  0.00    +0.000 C 
ENDBRANCH  43  46
ENDBRANCH  35  44
ENDBRANCH   5  35
TORSDOF 9
ENDMDL
MODEL 10
REMARK VINA RESULT:      -9.4      1.717      5.851
REMARK  Name = 73822539
REMARK  9 active torsions:
REMARK  status: ('A' for Active; 'I' for Inactive)
REMARK    1  A    between atoms: O_3  and  C_26
REMARK    2  A    between atoms: O_3  and  C_30
REMARK    3  A    between atoms: O_6  and  C_27
REMARK    4  A    between atoms: O_6  and  C_31
REMARK    5  A    between atoms: O_11  and  C_28
REMARK    6  A    between atoms: O_11  and  C_40
REMARK    7  A    between atoms: C_20  and  C_28
REMARK    8  A    between atoms: C_25  and  C_29
REMARK    9  A    between atoms: C_34  and  C_39
REMARK                            x       y       z     vdW  Elec       q    Type
REMARK                         _______ _______ _______ _____ _____    ______ ____
ROOT
ATOM      1  O   UNL     1     112.578 128.570 138.283  0.00  0.00    +0.000 OA
ATOM      2  O   UNL     1     111.818 128.322 140.625  0.00  0.00    +0.000 OA
ATOM      3  O   UNL     1     112.433 127.020 140.717  0.00  0.00    +0.000 OA
ATOM      4  C   UNL     1     111.889 129.090 139.422  0.00  0.00    +0.000 A 
ATOM      5  C   UNL     1     113.408 126.550 138.756  0.00  0.00    +0.000 A 
ATOM      6  C   UNL     1     112.507 127.803 139.486  0.00  0.00    +0.000 A 
ATOM      7  C   UNL     1     112.071 128.405 139.844  0.00  0.00    +0.000 A 
ATOM      8  C   UNL     1     112.143 129.173 138.641  0.00  0.00    +0.000 A 
ATOM      9  C   UNL     1     112.760 127.886 138.706  0.00  0.00    +0.000 A 
ATOM     10  C   UNL     1     113.214 127.266 138.321  0.00  0.00    +0.000 A 
ATOM     11  C   UNL     1     113.144 126.464 139.570  0.00  0.00    +0.000 A 
ATOM     12  C   UNL     1     112.690 127.095 139.937  0.00  0.00    +0.000 A 
ENDROOT
BRANCH   8  14
ATOM     13  O   UNL     1     111.410 131.912 136.953  0.00  0.00    +0.000 OA
ATOM     14  C   UNL     1     111.960 129.857 138.219  0.00  0.00    +0.000 A 
ATOM     15  C   UNL     1     112.550 130.409 138.052  0.00  0.00    +0.000 A 
ATOM     16  C   UNL     1     111.186 129.991 137.964  0.00  0.00    +0.000 A 
ATOM     17  C   UNL     1     112.366 131.094 137.629  0.00  0.00    +0.000 A 
ATOM     18  C   UNL     1     111.004 130.675 137.542  0.00  0.00    +0.000 A 
ATOM     19  C   UNL     1     111.594 131.227 137.375  0.00  0.00    +0.000 A 
ENDBRANCH   8  14
BRANCH   4  20
ATOM     20  O   UNL     1     111.453 129.692 139.780  0.00  0.00    +0.000 OA
BRANCH  20  29
ATOM     21  O   UNL     1     112.530 130.162 140.594  0.00  0.00    +0.000 OA
ATOM     22  O   UNL     1     112.531 131.067 142.580  0.00  0.00    +0.000 OA
ATOM     23  O   UNL     1     110.916 130.814 142.353  0.00  0.00    +0.000 OA
ATOM     24  O   UNL     1     110.377 130.126 140.954  0.00  0.00    +0.000 OA
ATOM     25  C   UNL     1     112.261 130.723 141.880  0.00  0.00    +0.000 C 
ATOM     26  C   UNL     1     111.454 130.597 141.767  0.00  0.00    +0.000 C 
ATOM     27  C   UNL     1     112.799 130.505 141.293  0.00  0.00    +0.000 C 
ATOM     28  C   UNL     1     111.185 130.253 141.066  0.00  0.00    +0.000 C 
ATOM     29  C   UNL     1     111.722 130.035 140.480  0.00  0.00    +0.000 C 
BRANCH  27  30
ATOM     30  C   UNL     1     113.607 130.632 141.407  0.00  0.00    +0.000 C 
BRANCH  30  31
ATOM     31  O   UNL     1     114.066 130.944 140.798  0.00  0.00    +0.000 OA
BRANCH  31  33
ATOM     32  O   UNL     1     115.262 131.624 141.183  0.00  0.00    +0.000 OA
ATOM     33  C   UNL     1     114.888 130.961 140.866  0.00  0.00    +0.000 C 
ATOM     34  C   UNL     1     115.336 130.314 140.619  0.00  0.00    +0.000 C 
ENDBRANCH  31  33
ENDBRANCH  30  31
ENDBRANCH  27  30
ENDBRANCH  20  29
ENDBRANCH   4  20
BRANCH   5  35
ATOM     35  O   UNL     1     113.844 125.950 138.395  0.00  0.00    +0.000 OA
BRANCH  35  44
ATOM     36  O   UNL     1     112.685 125.259 137.922  0.00  0.00    +0.000 OA
ATOM     37  O   UNL     1     114.000 124.349 136.033  0.00  0.00    +0.000 OA
ATOM     38  O   UNL     1     112.403 123.962 136.189  0.00  0.00    +0.000 OA
ATOM     39  O   UNL     1     114.719 125.343 137.135  0.00  0.00    +0.000 OA
ATOM     40  C   UNL     1     113.561 124.652 136.663  0.00  0.00    +0.000 C 
ATOM     41  C   UNL     1     112.763 124.459 136.741  0.00  0.00    +0.000 C 
ATOM     42  C   UNL     1     113.921 125.149 137.214  0.00  0.00    +0.000 C 
ATOM     43  C   UNL     1     112.325 124.762 137.370  0.00  0.00    +0.000 C 
ATOM     44  C   UNL     1     113.483 125.453 137.844  0.00  0.00    +0.000 C 
BRANCH  43  46
ATOM     45  O   UNL     1     111.248 124.248 138.156  0.00  0.00    +0.000 OA
ATOM     46  C   UNL     1     111.527 124.568 137.449  0.00  0.00    +0.000 C 
ENDBRANCH  43  46
ENDBRANCH  35  44
ENDBRANCH   5  35
TORSDOF 9
ENDMDL
