MODEL 1
REMARK VINA RESULT:     -10.2      0.000      0.000
REMARK  Name = 44259442
REMARK  4 active torsions:
REMARK  status: ('A' for Active; 'I' for Inactive)
REMARK    1  A    between atoms: O_2  and  C_18
REMARK    2  A    between atoms: O_2  and  C_21
REMARK    3  A    between atoms: C_19  and  C_20
REMARK    4  A    between atoms: C_22  and  C_26
REMARK                            x       y       z     vdW  Elec       q    Type
REMARK                         _______ _______ _______ _____ _____    ______ ____
ROOT
ATOM      1  O   UNL     1     105.673 124.437 147.755  0.00  0.00    +0.000 OA
ATOM      2  O   UNL     1     107.085 125.652 146.124  0.00  0.00    +0.000 OA
ATOM      3  O   UNL     1     108.216 125.596 147.018  0.00  0.00    +0.000 OA
ATOM      4  O   UNL     1     107.912 124.285 149.611  0.00  0.00    +0.000 OA
ATOM      5  C   UNL     1     105.827 125.079 146.487  0.00  0.00    +0.000 A 
ATOM      6  C   UNL     1     105.357 124.674 147.031  0.00  0.00    +0.000 A 
ATOM      7  C   UNL     1     106.614 125.247 146.668  0.00  0.00    +0.000 A 
ATOM      8  C   UNL     1     106.931 125.009 147.392  0.00  0.00    +0.000 A 
ATOM      9  C   UNL     1     106.461 124.605 147.935  0.00  0.00    +0.000 A 
ATOM     10  C   UNL     1     107.753 125.190 147.568  0.00  0.00    +0.000 A 
ATOM     11  C   UNL     1     106.779 124.352 148.692  0.00  0.00    +0.000 A 
ATOM     12  C   UNL     1     108.088 124.945 148.320  0.00  0.00    +0.000 A 
ATOM     13  C   UNL     1     107.598 124.523 148.886  0.00  0.00    +0.000 A 
ENDROOT
BRANCH   6  17
ATOM     14  O   UNL     1     102.569 125.197 147.384  0.00  0.00    +0.000 OA
ATOM     15  O   UNL     1     103.421 123.144 145.588  0.00  0.00    +0.000 OA
ATOM     16  O   UNL     1     102.208 124.002 146.305  0.00  0.00    +0.000 OA
ATOM     17  C   UNL     1     104.569 124.507 146.850  0.00  0.00    +0.000 A 
ATOM     18  C   UNL     1     104.389 123.909 146.309  0.00  0.00    +0.000 A 
ATOM     19  C   UNL     1     103.963 124.936 147.208  0.00  0.00    +0.000 A 
ATOM     20  C   UNL     1     103.176 124.767 147.026  0.00  0.00    +0.000 A 
ATOM     21  C   UNL     1     103.602 123.741 146.128  0.00  0.00    +0.000 A 
ATOM     22  C   UNL     1     102.995 124.171 146.487  0.00  0.00    +0.000 A 
ENDBRANCH   6  17
BRANCH   5  23
ATOM     23  O   UNL     1     105.511 125.317 145.763  0.00  0.00    +0.000 OA
BRANCH  23  31
ATOM     24  O   UNL     1     105.411 126.692 146.137  0.00  0.00    +0.000 OA
ATOM     25  O   UNL     1     105.696 127.357 143.770  0.00  0.00    +0.000 OA
ATOM     26  O   UNL     1     105.701 125.760 144.185  0.00  0.00    +0.000 OA
ATOM     27  O   UNL     1     105.502 128.510 144.933  0.00  0.00    +0.000 OA
ATOM     28  C   UNL     1     105.601 127.135 144.559  0.00  0.00    +0.000 C 
ATOM     29  C   UNL     1     105.603 126.336 144.767  0.00  0.00    +0.000 C 
ATOM     30  C   UNL     1     105.504 127.712 145.141  0.00  0.00    +0.000 C 
ATOM     31  C   UNL     1     105.508 126.115 145.556  0.00  0.00    +0.000 C 
ATOM     32  C   UNL     1     105.409 127.490 145.930  0.00  0.00    +0.000 C 
BRANCH  32  35
ATOM     33  O   UNL     1     104.558 128.243 146.797  0.00  0.00    +0.000 OA
ATOM     34  O   UNL     1     105.969 128.468 146.808  0.00  0.00    +0.000 OA
ATOM     35  C   UNL     1     105.312 128.067 146.511  0.00  0.00    +0.000 C 
ENDBRANCH  32  35
ENDBRANCH  23  31
ENDBRANCH   5  23
TORSDOF 4
ENDMDL
MODEL 2
REMARK VINA RESULT:      -9.7     10.932     12.503
REMARK  Name = 44259442
REMARK  4 active torsions:
REMARK  status: ('A' for Active; 'I' for Inactive)
REMARK    1  A    between atoms: O_2  and  C_18
REMARK    2  A    between atoms: O_2  and  C_21
REMARK    3  A    between atoms: C_19  and  C_20
REMARK    4  A    between atoms: C_22  and  C_26
REMARK                            x       y       z     vdW  Elec       q    Type
REMARK                         _______ _______ _______ _____ _____    ______ ____
ROOT
ATOM      1  O   UNL     1     111.820 129.528 135.887  0.00  0.00    +0.000 OA
ATOM      2  O   UNL     1     112.327 130.875 137.901  0.00  0.00    +0.000 OA
ATOM      3  O   UNL     1     113.721 130.947 137.537  0.00  0.00    +0.000 OA
ATOM      4  O   UNL     1     114.619 129.631 135.088  0.00  0.00    +0.000 OA
ATOM      5  C   UNL     1     111.386 130.173 137.086  0.00  0.00    +0.000 A 
ATOM      6  C   UNL     1     111.217 129.724 136.414  0.00  0.00    +0.000 A 
ATOM      7  C   UNL     1     112.158 130.425 137.229  0.00  0.00    +0.000 A 
ATOM      8  C   UNL     1     112.761 130.229 136.702  0.00  0.00    +0.000 A 
ATOM      9  C   UNL     1     112.592 129.780 136.031  0.00  0.00    +0.000 A 
ATOM     10  C   UNL     1     113.561 130.498 136.863  0.00  0.00    +0.000 A 
ATOM     11  C   UNL     1     113.211 129.569 135.474  0.00  0.00    +0.000 A 
ATOM     12  C   UNL     1     114.193 130.297 136.317  0.00  0.00    +0.000 A 
ATOM     13  C   UNL     1     114.017 129.829 135.617  0.00  0.00    +0.000 A 
ENDROOT
BRANCH   6  17
ATOM     14  O   UNL     1     108.762 129.961 134.971  0.00  0.00    +0.000 OA
ATOM     15  O   UNL     1     109.038 127.970 137.003  0.00  0.00    +0.000 OA
ATOM     16  O   UNL     1     108.128 128.713 135.844  0.00  0.00    +0.000 OA
ATOM     17  C   UNL     1     110.445 129.472 136.271  0.00  0.00    +0.000 A 
ATOM     18  C   UNL     1     110.127 128.847 136.708  0.00  0.00    +0.000 A 
ATOM     19  C   UNL     1     109.989 129.843 135.692  0.00  0.00    +0.000 A 
ATOM     20  C   UNL     1     109.217 129.590 135.550  0.00  0.00    +0.000 A 
ATOM     21  C   UNL     1     109.355 128.595 136.565  0.00  0.00    +0.000 A 
ATOM     22  C   UNL     1     108.900 128.966 135.986  0.00  0.00    +0.000 A 
ENDBRANCH   6  17
BRANCH   5  23
ATOM     23  O   UNL     1     110.783 130.369 137.614  0.00  0.00    +0.000 OA
BRANCH  23  31
ATOM     24  O   UNL     1     110.647 131.718 137.162  0.00  0.00    +0.000 OA
ATOM     25  O   UNL     1     110.037 132.424 139.455  0.00  0.00    +0.000 OA
ATOM     26  O   UNL     1     110.376 130.840 139.142  0.00  0.00    +0.000 OA
ATOM     27  O   UNL     1     110.105 133.537 138.240  0.00  0.00    +0.000 OA
ATOM     28  C   UNL     1     110.240 132.189 138.691  0.00  0.00    +0.000 C 
ATOM     29  C   UNL     1     110.410 131.396 138.534  0.00  0.00    +0.000 C 
ATOM     30  C   UNL     1     110.274 132.745 138.083  0.00  0.00    +0.000 C 
ATOM     31  C   UNL     1     110.613 131.161 137.770  0.00  0.00    +0.000 C 
ATOM     32  C   UNL     1     110.478 132.510 137.319  0.00  0.00    +0.000 C 
BRANCH  32  35
ATOM     33  O   UNL     1     111.183 133.537 136.619  0.00  0.00    +0.000 OA
ATOM     34  O   UNL     1     109.873 133.154 136.196  0.00  0.00    +0.000 OA
ATOM     35  C   UNL     1     110.511 133.067 136.711  0.00  0.00    +0.000 C 
ENDBRANCH  32  35
ENDBRANCH  23  31
ENDBRANCH   5  23
TORSDOF 4
ENDMDL
MODEL 3
REMARK VINA RESULT:      -9.6      0.971      1.934
REMARK  Name = 44259442
REMARK  4 active torsions:
REMARK  status: ('A' for Active; 'I' for Inactive)
REMARK    1  A    between atoms: O_2  and  C_18
REMARK    2  A    between atoms: O_2  and  C_21
REMARK    3  A    between atoms: C_19  and  C_20
REMARK    4  A    between atoms: C_22  and  C_26
REMARK                            x       y       z     vdW  Elec       q    Type
REMARK                         _______ _______ _______ _____ _____    ______ ____
ROOT
ATOM      1  O   UNL     1     105.499 124.862 148.445  0.00  0.00    +0.000 OA
ATOM      2  O   UNL     1     106.787 126.246 146.847  0.00  0.00    +0.000 OA
ATOM      3  O   UNL     1     108.034 125.776 147.400  0.00  0.00    +0.000 OA
ATOM      4  O   UNL     1     107.976 123.869 149.612  0.00  0.00    +0.000 OA
ATOM      5  C   UNL     1     105.533 125.795 147.363  0.00  0.00    +0.000 A 
ATOM      6  C   UNL     1     105.104 125.334 147.896  0.00  0.00    +0.000 A 
ATOM      7  C   UNL     1     106.358 125.785 147.380  0.00  0.00    +0.000 A 
ATOM      8  C   UNL     1     106.753 125.313 147.929  0.00  0.00    +0.000 A 
ATOM      9  C   UNL     1     106.324 124.852 148.461  0.00  0.00    +0.000 A 
ATOM     10  C   UNL     1     107.613 125.311 147.937  0.00  0.00    +0.000 A 
ATOM     11  C   UNL     1     106.724 124.357 149.039  0.00  0.00    +0.000 A 
ATOM     12  C   UNL     1     108.030 124.822 148.506  0.00  0.00    +0.000 A 
ATOM     13  C   UNL     1     107.583 124.342 149.061  0.00  0.00    +0.000 A 
ENDROOT
BRANCH   6  17
ATOM     14  O   UNL     1     102.631 126.641 148.483  0.00  0.00    +0.000 OA
ATOM     15  O   UNL     1     102.627 124.086 147.203  0.00  0.00    +0.000 OA
ATOM     16  O   UNL     1     101.805 125.374 147.825  0.00  0.00    +0.000 OA
ATOM     17  C   UNL     1     104.279 125.344 147.878  0.00  0.00    +0.000 A 
ATOM     18  C   UNL     1     103.866 124.710 147.549  0.00  0.00    +0.000 A 
ATOM     19  C   UNL     1     103.868 125.988 148.190  0.00  0.00    +0.000 A 
ATOM     20  C   UNL     1     103.043 125.997 148.172  0.00  0.00    +0.000 A 
ATOM     21  C   UNL     1     103.041 124.721 147.532  0.00  0.00    +0.000 A 
ATOM     22  C   UNL     1     102.630 125.364 147.843  0.00  0.00    +0.000 A 
ENDBRANCH   6  17
BRANCH   5  23
ATOM     23  O   UNL     1     105.138 126.267 146.813  0.00  0.00    +0.000 OA
BRANCH  23  31
ATOM     24  O   UNL     1     105.382 125.416 145.691  0.00  0.00    +0.000 OA
ATOM     25  O   UNL     1     105.532 127.401 144.220  0.00  0.00    +0.000 OA
ATOM     26  O   UNL     1     105.237 127.590 145.832  0.00  0.00    +0.000 OA
ATOM     27  O   UNL     1     105.726 125.890 143.589  0.00  0.00    +0.000 OA
ATOM     28  C   UNL     1     105.482 126.740 144.710  0.00  0.00    +0.000 C 
ATOM     29  C   UNL     1     105.334 126.834 145.517  0.00  0.00    +0.000 C 
ATOM     30  C   UNL     1     105.579 125.984 144.395  0.00  0.00    +0.000 C 
ATOM     31  C   UNL     1     105.285 126.172 146.008  0.00  0.00    +0.000 C 
ATOM     32  C   UNL     1     105.529 125.322 144.885  0.00  0.00    +0.000 C 
BRANCH  32  35
ATOM     33  O   UNL     1     106.384 124.254 144.472  0.00  0.00    +0.000 OA
ATOM     34  O   UNL     1     104.966 124.123 144.351  0.00  0.00    +0.000 OA
ATOM     35  C   UNL     1     105.627 124.567 144.570  0.00  0.00    +0.000 C 
ENDBRANCH  32  35
ENDBRANCH  23  31
ENDBRANCH   5  23
TORSDOF 4
ENDMDL
MODEL 4
REMARK VINA RESULT:      -9.6      1.856      3.811
REMARK  Name = 44259442
REMARK  4 active torsions:
REMARK  status: ('A' for Active; 'I' for Inactive)
REMARK    1  A    between atoms: O_2  and  C_18
REMARK    2  A    between atoms: O_2  and  C_21
REMARK    3  A    between atoms: C_19  and  C_20
REMARK    4  A    between atoms: C_22  and  C_26
REMARK                            x       y       z     vdW  Elec       q    Type
REMARK                         _______ _______ _______ _____ _____    ______ ____
ROOT
ATOM      1  O   UNL     1     103.644 126.531 147.663  0.00  0.00    +0.000 OA
ATOM      2  O   UNL     1     105.491 126.463 149.310  0.00  0.00    +0.000 OA
ATOM      3  O   UNL     1     105.361 127.878 149.557  0.00  0.00    +0.000 OA
ATOM      4  O   UNL     1     103.324 129.391 148.111  0.00  0.00    +0.000 OA
ATOM      5  C   UNL     1     104.642 125.795 148.374  0.00  0.00    +0.000 A 
ATOM      6  C   UNL     1     104.026 125.818 147.824  0.00  0.00    +0.000 A 
ATOM      7  C   UNL     1     104.875 126.486 148.761  0.00  0.00    +0.000 A 
ATOM      8  C   UNL     1     104.492 127.199 148.599  0.00  0.00    +0.000 A 
ATOM      9  C   UNL     1     103.877 127.221 148.051  0.00  0.00    +0.000 A 
ATOM     10  C   UNL     1     104.745 127.910 149.010  0.00  0.00    +0.000 A 
ATOM     11  C   UNL     1     103.471 127.957 147.874  0.00  0.00    +0.000 A 
ATOM     12  C   UNL     1     104.350 128.656 148.846  0.00  0.00    +0.000 A 
ATOM     13  C   UNL     1     103.708 128.680 148.274  0.00  0.00    +0.000 A 
ENDROOT
BRANCH   6  17
ATOM     14  O   UNL     1     104.048 124.155 145.500  0.00  0.00    +0.000 OA
ATOM     15  O   UNL     1     102.606 123.338 147.829  0.00  0.00    +0.000 OA
ATOM     16  O   UNL     1     103.094 123.056 146.278  0.00  0.00    +0.000 OA
ATOM     17  C   UNL     1     103.794 125.128 147.437  0.00  0.00    +0.000 A 
ATOM     18  C   UNL     1     103.316 124.578 147.827  0.00  0.00    +0.000 A 
ATOM     19  C   UNL     1     104.037 124.987 146.662  0.00  0.00    +0.000 A 
ATOM     20  C   UNL     1     103.804 124.296 146.276  0.00  0.00    +0.000 A 
ATOM     21  C   UNL     1     103.084 123.888 147.440  0.00  0.00    +0.000 A 
ATOM     22  C   UNL     1     103.328 123.747 146.664  0.00  0.00    +0.000 A 
ENDBRANCH   6  17
BRANCH   5  23
ATOM     23  O   UNL     1     105.025 125.082 148.535  0.00  0.00    +0.000 OA
BRANCH  23  31
ATOM     24  O   UNL     1     106.201 125.383 147.780  0.00  0.00    +0.000 OA
ATOM     25  O   UNL     1     107.565 124.097 149.396  0.00  0.00    +0.000 OA
ATOM     26  O   UNL     1     105.935 124.225 149.612  0.00  0.00    +0.000 OA
ATOM     27  O   UNL     1     108.286 124.825 148.103  0.00  0.00    +0.000 OA
ATOM     28  C   UNL     1     107.111 124.525 148.857  0.00  0.00    +0.000 C 
ATOM     29  C   UNL     1     106.294 124.590 148.965  0.00  0.00    +0.000 C 
ATOM     30  C   UNL     1     107.470 124.890 148.211  0.00  0.00    +0.000 C 
ATOM     31  C   UNL     1     105.840 125.018 148.427  0.00  0.00    +0.000 C 
ATOM     32  C   UNL     1     107.015 125.319 147.672  0.00  0.00    +0.000 C 
BRANCH  32  35
ATOM     33  O   UNL     1     107.364 125.318 146.287  0.00  0.00    +0.000 OA
ATOM     34  O   UNL     1     107.748 126.413 147.120  0.00  0.00    +0.000 OA
ATOM     35  C   UNL     1     107.376 125.683 147.026  0.00  0.00    +0.000 C 
ENDBRANCH  32  35
ENDBRANCH  23  31
ENDBRANCH   5  23
TORSDOF 4
ENDMDL
MODEL 5
REMARK VINA RESULT:      -9.5     10.282     12.428
REMARK  Name = 44259442
REMARK  4 active torsions:
REMARK  status: ('A' for Active; 'I' for Inactive)
REMARK    1  A    between atoms: O_2  and  C_18
REMARK    2  A    between atoms: O_2  and  C_21
REMARK    3  A    between atoms: C_19  and  C_20
REMARK    4  A    between atoms: C_22  and  C_26
REMARK                            x       y       z     vdW  Elec       q    Type
REMARK                         _______ _______ _______ _____ _____    ______ ____
ROOT
ATOM      1  O   UNL     1     113.174 128.393 138.287  0.00  0.00    +0.000 OA
ATOM      2  O   UNL     1     112.157 126.166 138.652  0.00  0.00    +0.000 OA
ATOM      3  O   UNL     1     112.452 126.230 140.062  0.00  0.00    +0.000 OA
ATOM      4  O   UNL     1     113.802 128.593 141.124  0.00  0.00    +0.000 OA
ATOM      5  C   UNL     1     112.513 127.235 137.772  0.00  0.00    +0.000 A 
ATOM      6  C   UNL     1     112.852 127.977 137.651  0.00  0.00    +0.000 A 
ATOM      7  C   UNL     1     112.496 126.909 138.530  0.00  0.00    +0.000 A 
ATOM      8  C   UNL     1     112.817 127.325 139.166  0.00  0.00    +0.000 A 
ATOM      9  C   UNL     1     113.156 128.066 139.044  0.00  0.00    +0.000 A 
ATOM     10  C   UNL     1     112.793 126.974 139.950  0.00  0.00    +0.000 A 
ATOM     11  C   UNL     1     113.494 128.510 139.698  0.00  0.00    +0.000 A 
ATOM     12  C   UNL     1     113.126 127.402 140.616  0.00  0.00    +0.000 A 
ATOM     13  C   UNL     1     113.479 128.175 140.490  0.00  0.00    +0.000 A 
ENDROOT
BRANCH   6  17
ATOM     14  O   UNL     1     114.297 128.662 135.282  0.00  0.00    +0.000 OA
ATOM     15  O   UNL     1     111.506 129.249 135.474  0.00  0.00    +0.000 OA
ATOM     16  O   UNL     1     112.918 129.282 134.620  0.00  0.00    +0.000 OA
ATOM     17  C   UNL     1     112.869 128.303 136.893  0.00  0.00    +0.000 A 
ATOM     18  C   UNL     1     112.179 128.613 136.563  0.00  0.00    +0.000 A 
ATOM     19  C   UNL     1     113.575 128.319 136.466  0.00  0.00    +0.000 A 
ATOM     20  C   UNL     1     113.591 128.646 135.709  0.00  0.00    +0.000 A 
ATOM     21  C   UNL     1     112.196 128.939 135.805  0.00  0.00    +0.000 A 
ATOM     22  C   UNL     1     112.902 128.955 135.378  0.00  0.00    +0.000 A 
ENDBRANCH   6  17
BRANCH   5  23
ATOM     23  O   UNL     1     112.192 126.819 137.137  0.00  0.00    +0.000 OA
BRANCH  23  31
ATOM     24  O   UNL     1     113.288 125.911 137.008  0.00  0.00    +0.000 OA
ATOM     25  O   UNL     1     111.733 124.142 136.246  0.00  0.00    +0.000 OA
ATOM     26  O   UNL     1     111.155 125.640 136.629  0.00  0.00    +0.000 OA
ATOM     27  O   UNL     1     113.346 123.824 136.371  0.00  0.00    +0.000 OA
ATOM     28  C   UNL     1     112.251 124.732 136.500  0.00  0.00    +0.000 C 
ATOM     29  C   UNL     1     111.962 125.481 136.691  0.00  0.00    +0.000 C 
ATOM     30  C   UNL     1     113.058 124.573 136.562  0.00  0.00    +0.000 C 
ATOM     31  C   UNL     1     112.480 126.071 136.945  0.00  0.00    +0.000 C 
ATOM     32  C   UNL     1     113.576 125.163 136.816  0.00  0.00    +0.000 C 
BRANCH  32  35
ATOM     33  O   UNL     1     114.682 124.649 137.561  0.00  0.00    +0.000 OA
ATOM     34  O   UNL     1     114.891 125.198 136.259  0.00  0.00    +0.000 OA
ATOM     35  C   UNL     1     114.383 125.003 136.879  0.00  0.00    +0.000 C 
ENDBRANCH  32  35
ENDBRANCH  23  31
ENDBRANCH   5  23
TORSDOF 4
ENDMDL
MODEL 6
REMARK VINA RESULT:      -9.5      9.878     11.997
REMARK  Name = 44259442
REMARK  4 active torsions:
REMARK  status: ('A' for Active; 'I' for Inactive)
REMARK    1  A    between atoms: O_2  and  C_18
REMARK    2  A    between atoms: O_2  and  C_21
REMARK    3  A    between atoms: C_19  and  C_20
REMARK    4  A    between atoms: C_22  and  C_26
REMARK                            x       y       z     vdW  Elec       q    Type
REMARK                         _______ _______ _______ _____ _____    ______ ____
ROOT
ATOM      1  O   UNL     1     113.463 127.338 136.691  0.00  0.00    +0.000 OA
ATOM      2  O   UNL     1     112.074 128.204 138.548  0.00  0.00    +0.000 OA
ATOM      3  O   UNL     1     112.230 129.557 138.072  0.00  0.00    +0.000 OA
ATOM      4  O   UNL     1     113.821 130.042 135.671  0.00  0.00    +0.000 OA
ATOM      5  C   UNL     1     112.683 127.105 137.866  0.00  0.00    +0.000 A 
ATOM      6  C   UNL     1     113.147 126.817 137.247  0.00  0.00    +0.000 A 
ATOM      7  C   UNL     1     112.537 127.915 137.929  0.00  0.00    +0.000 A 
ATOM      8  C   UNL     1     112.854 128.436 137.373  0.00  0.00    +0.000 A 
ATOM      9  C   UNL     1     113.317 128.147 136.754  0.00  0.00    +0.000 A 
ATOM     10  C   UNL     1     112.694 129.277 137.449  0.00  0.00    +0.000 A 
ATOM     11  C   UNL     1     113.652 128.679 136.169  0.00  0.00    +0.000 A 
ATOM     12  C   UNL     1     113.021 129.824 136.873  0.00  0.00    +0.000 A 
ATOM     13  C   UNL     1     113.503 129.523 136.228  0.00  0.00    +0.000 A 
ENDROOT
BRANCH   6  17
ATOM     14  O   UNL     1     114.911 124.589 137.548  0.00  0.00    +0.000 OA
ATOM     15  O   UNL     1     112.256 124.187 136.571  0.00  0.00    +0.000 OA
ATOM     16  O   UNL     1     113.729 123.578 136.997  0.00  0.00    +0.000 OA
ATOM     17  C   UNL     1     113.293 126.007 137.185  0.00  0.00    +0.000 A 
ATOM     18  C   UNL     1     112.701 125.502 136.909  0.00  0.00    +0.000 A 
ATOM     19  C   UNL     1     114.030 125.703 137.398  0.00  0.00    +0.000 A 
ATOM     20  C   UNL     1     114.174 124.893 137.335  0.00  0.00    +0.000 A 
ATOM     21  C   UNL     1     112.847 124.692 136.847  0.00  0.00    +0.000 A 
ATOM     22  C   UNL     1     113.584 124.388 137.060  0.00  0.00    +0.000 A 
ENDBRANCH   6  17
BRANCH   5  23
ATOM     23  O   UNL     1     112.367 126.585 138.422  0.00  0.00    +0.000 OA
BRANCH  23  31
ATOM     24  O   UNL     1     113.292 126.955 139.447  0.00  0.00    +0.000 OA
ATOM     25  O   UNL     1     111.612 126.380 141.171  0.00  0.00    +0.000 OA
ATOM     26  O   UNL     1     111.247 126.201 139.572  0.00  0.00    +0.000 OA
ATOM     27  O   UNL     1     113.096 126.942 141.620  0.00  0.00    +0.000 OA
ATOM     28  C   UNL     1     112.172 126.572 140.596  0.00  0.00    +0.000 C 
ATOM     29  C   UNL     1     111.990 126.482 139.796  0.00  0.00    +0.000 C 
ATOM     30  C   UNL     1     112.915 126.853 140.821  0.00  0.00    +0.000 C 
ATOM     31  C   UNL     1     112.549 126.674 139.221  0.00  0.00    +0.000 C 
ATOM     32  C   UNL     1     113.474 127.044 140.246  0.00  0.00    +0.000 C 
BRANCH  32  35
ATOM     33  O   UNL     1     114.321 128.127 140.637  0.00  0.00    +0.000 OA
ATOM     34  O   UNL     1     114.854 126.805 140.529  0.00  0.00    +0.000 OA
ATOM     35  C   UNL     1     114.216 127.325 140.470  0.00  0.00    +0.000 C 
ENDBRANCH  32  35
ENDBRANCH  23  31
ENDBRANCH   5  23
TORSDOF 4
ENDMDL
MODEL 7
REMARK VINA RESULT:      -9.4     10.149     12.354
REMARK  Name = 44259442
REMARK  4 active torsions:
REMARK  status: ('A' for Active; 'I' for Inactive)
REMARK    1  A    between atoms: O_2  and  C_18
REMARK    2  A    between atoms: O_2  and  C_21
REMARK    3  A    between atoms: C_19  and  C_20
REMARK    4  A    between atoms: C_22  and  C_26
REMARK                            x       y       z     vdW  Elec       q    Type
REMARK                         _______ _______ _______ _____ _____    ______ ____
ROOT
ATOM      1  O   UNL     1     113.514 126.772 136.824  0.00  0.00    +0.000 OA
ATOM      2  O   UNL     1     111.591 125.480 135.950  0.00  0.00    +0.000 OA
ATOM      3  O   UNL     1     112.227 124.236 136.311  0.00  0.00    +0.000 OA
ATOM      4  O   UNL     1     114.857 124.301 137.580  0.00  0.00    +0.000 OA
ATOM      5  C   UNL     1     112.226 126.734 136.203  0.00  0.00    +0.000 A 
ATOM      6  C   UNL     1     112.868 127.165 136.494  0.00  0.00    +0.000 A 
ATOM      7  C   UNL     1     112.232 125.911 136.242  0.00  0.00    +0.000 A 
ATOM      8  C   UNL     1     112.878 125.517 136.571  0.00  0.00    +0.000 A 
ATOM      9  C   UNL     1     113.518 125.948 136.862  0.00  0.00    +0.000 A 
ATOM     10  C   UNL     1     112.872 124.658 136.605  0.00  0.00    +0.000 A 
ATOM     11  C   UNL     1     114.197 125.550 137.207  0.00  0.00    +0.000 A 
ATOM     12  C   UNL     1     113.542 124.243 136.947  0.00  0.00    +0.000 A 
ATOM     13  C   UNL     1     114.209 124.692 137.250  0.00  0.00    +0.000 A 
ENDROOT
BRANCH   6  17
ATOM     14  O   UNL     1     112.558 129.702 137.774  0.00  0.00    +0.000 OA
ATOM     15  O   UNL     1     113.141 129.573 134.979  0.00  0.00    +0.000 OA
ATOM     16  O   UNL     1     112.844 130.462 136.337  0.00  0.00    +0.000 OA
ATOM     17  C   UNL     1     112.862 127.989 136.456  0.00  0.00    +0.000 A 
ATOM     18  C   UNL     1     113.005 128.369 135.737  0.00  0.00    +0.000 A 
ATOM     19  C   UNL     1     112.713 128.434 137.135  0.00  0.00    +0.000 A 
ATOM     20  C   UNL     1     112.707 129.258 137.095  0.00  0.00    +0.000 A 
ATOM     21  C   UNL     1     112.998 129.193 135.698  0.00  0.00    +0.000 A 
ATOM     22  C   UNL     1     112.850 129.637 136.377  0.00  0.00    +0.000 A 
ENDBRANCH   6  17
BRANCH   5  23
ATOM     23  O   UNL     1     111.580 127.128 135.874  0.00  0.00    +0.000 OA
BRANCH  23  31
ATOM     24  O   UNL     1     110.728 126.952 137.007  0.00  0.00    +0.000 OA
ATOM     25  O   UNL     1     108.761 126.832 135.509  0.00  0.00    +0.000 OA
ATOM     26  O   UNL     1     110.269 127.047 134.875  0.00  0.00    +0.000 OA
ATOM     27  O   UNL     1     108.565 126.696 137.141  0.00  0.00    +0.000 OA
ATOM     28  C   UNL     1     109.417 126.872 136.008  0.00  0.00    +0.000 C 
ATOM     29  C   UNL     1     110.171 126.980 135.691  0.00  0.00    +0.000 C 
ATOM     30  C   UNL     1     109.319 126.804 136.824  0.00  0.00    +0.000 C 
ATOM     31  C   UNL     1     110.827 127.020 136.191  0.00  0.00    +0.000 C 
ATOM     32  C   UNL     1     109.974 126.844 137.324  0.00  0.00    +0.000 C 
BRANCH  32  35
ATOM     33  O   UNL     1     109.863 126.032 138.494  0.00  0.00    +0.000 OA
ATOM     34  O   UNL     1     109.789 127.454 138.602  0.00  0.00    +0.000 OA
ATOM     35  C   UNL     1     109.876 126.777 138.139  0.00  0.00    +0.000 C 
ENDBRANCH  32  35
ENDBRANCH  23  31
ENDBRANCH   5  23
TORSDOF 4
ENDMDL
MODEL 8
REMARK VINA RESULT:      -9.4      9.692     11.867
REMARK  Name = 44259442
REMARK  4 active torsions:
REMARK  status: ('A' for Active; 'I' for Inactive)
REMARK    1  A    between atoms: O_2  and  C_18
REMARK    2  A    between atoms: O_2  and  C_21
REMARK    3  A    between atoms: C_19  and  C_20
REMARK    4  A    between atoms: C_22  and  C_26
REMARK                            x       y       z     vdW  Elec       q    Type
REMARK                         _______ _______ _______ _____ _____    ______ ____
ROOT
ATOM      1  O   UNL     1     111.963 128.256 138.313  0.00  0.00    +0.000 OA
ATOM      2  O   UNL     1     113.705 127.261 136.863  0.00  0.00    +0.000 OA
ATOM      3  O   UNL     1     113.477 128.265 135.852  0.00  0.00    +0.000 OA
ATOM      4  O   UNL     1     111.449 130.314 136.318  0.00  0.00    +0.000 OA
ATOM      5  C   UNL     1     112.957 127.255 138.080  0.00  0.00    +0.000 A 
ATOM      6  C   UNL     1     112.376 127.587 138.564  0.00  0.00    +0.000 A 
ATOM      7  C   UNL     1     113.124 127.593 137.346  0.00  0.00    +0.000 A 
ATOM      8  C   UNL     1     112.711 128.262 137.096  0.00  0.00    +0.000 A 
ATOM      9  C   UNL     1     112.131 128.593 137.579  0.00  0.00    +0.000 A 
ATOM     10  C   UNL     1     112.895 128.603 136.329  0.00  0.00    +0.000 A 
ATOM     11  C   UNL     1     111.694 129.289 137.330  0.00  0.00    +0.000 A 
ATOM     12  C   UNL     1     112.468 129.300 136.063  0.00  0.00    +0.000 A 
ATOM     13  C   UNL     1     111.864 129.645 136.566  0.00  0.00    +0.000 A 
ENDROOT
BRANCH   6  17
ATOM     14  O   UNL     1     113.079 127.127 141.296  0.00  0.00    +0.000 OA
ATOM     15  O   UNL     1     110.668 126.019 140.234  0.00  0.00    +0.000 OA
ATOM     16  O   UNL     1     111.705 126.235 141.499  0.00  0.00    +0.000 OA
ATOM     17  C   UNL     1     112.209 127.249 139.298  0.00  0.00    +0.000 A 
ATOM     18  C   UNL     1     111.522 126.803 139.399  0.00  0.00    +0.000 A 
ATOM     19  C   UNL     1     112.728 127.357 139.930  0.00  0.00    +0.000 A 
ATOM     20  C   UNL     1     112.560 127.019 140.663  0.00  0.00    +0.000 A 
ATOM     21  C   UNL     1     111.355 126.465 140.133  0.00  0.00    +0.000 A 
ATOM     22  C   UNL     1     111.874 126.573 140.765  0.00  0.00    +0.000 A 
ENDBRANCH   6  17
BRANCH   5  23
ATOM     23  O   UNL     1     113.370 126.586 138.331  0.00  0.00    +0.000 OA
BRANCH  23  31
ATOM     24  O   UNL     1     112.649 125.674 137.500  0.00  0.00    +0.000 OA
ATOM     25  O   UNL     1     114.672 124.262 137.296  0.00  0.00    +0.000 OA
ATOM     26  O   UNL     1     114.718 125.645 138.194  0.00  0.00    +0.000 OA
ATOM     27  O   UNL     1     113.277 123.821 136.534  0.00  0.00    +0.000 OA
ATOM     28  C   UNL     1     113.997 124.733 137.364  0.00  0.00    +0.000 C 
ATOM     29  C   UNL     1     114.021 125.425 137.814  0.00  0.00    +0.000 C 
ATOM     30  C   UNL     1     113.300 124.512 136.983  0.00  0.00    +0.000 C 
ATOM     31  C   UNL     1     113.347 125.895 137.882  0.00  0.00    +0.000 C 
ATOM     32  C   UNL     1     112.626 124.983 137.051  0.00  0.00    +0.000 C 
BRANCH  32  35
ATOM     33  O   UNL     1     111.796 124.988 135.888  0.00  0.00    +0.000 OA
ATOM     34  O   UNL     1     111.364 124.315 137.071  0.00  0.00    +0.000 OA
ATOM     35  C   UNL     1     111.929 124.762 136.670  0.00  0.00    +0.000 C 
ENDBRANCH  32  35
ENDBRANCH  23  31
ENDBRANCH   5  23
TORSDOF 4
ENDMDL
MODEL 9
REMARK VINA RESULT:      -9.4     11.237     12.837
REMARK  Name = 44259442
REMARK  4 active torsions:
REMARK  status: ('A' for Active; 'I' for Inactive)
REMARK    1  A    between atoms: O_2  and  C_18
REMARK    2  A    between atoms: O_2  and  C_21
REMARK    3  A    between atoms: C_19  and  C_20
REMARK    4  A    between atoms: C_22  and  C_26
REMARK                            x       y       z     vdW  Elec       q    Type
REMARK                         _______ _______ _______ _____ _____    ______ ____
ROOT
ATOM      1  O   UNL     1     111.815 125.982 136.116  0.00  0.00    +0.000 OA
ATOM      2  O   UNL     1     111.973 128.303 135.269  0.00  0.00    +0.000 OA
ATOM      3  O   UNL     1     110.695 128.181 134.612  0.00  0.00    +0.000 OA
ATOM      4  O   UNL     1     109.229 125.663 134.816  0.00  0.00    +0.000 OA
ATOM      5  C   UNL     1     112.529 127.217 136.013  0.00  0.00    +0.000 A 
ATOM      6  C   UNL     1     112.476 126.443 136.296  0.00  0.00    +0.000 A 
ATOM      7  C   UNL     1     111.921 127.529 135.552  0.00  0.00    +0.000 A 
ATOM      8  C   UNL     1     111.260 127.069 135.372  0.00  0.00    +0.000 A 
ATOM      9  C   UNL     1     111.208 126.296 135.654  0.00  0.00    +0.000 A 
ATOM     10  C   UNL     1     110.633 127.406 134.890  0.00  0.00    +0.000 A 
ATOM     11  C   UNL     1     110.525 125.806 135.475  0.00  0.00    +0.000 A 
ATOM     12  C   UNL     1     109.943 126.931 134.700  0.00  0.00    +0.000 A 
ATOM     13  C   UNL     1     109.888 126.126 134.994  0.00  0.00    +0.000 A 
ENDROOT
BRANCH   6  17
ATOM     14  O   UNL     1     113.536 125.757 138.859  0.00  0.00    +0.000 OA
ATOM     15  O   UNL     1     115.067 125.255 136.499  0.00  0.00    +0.000 OA
ATOM     16  O   UNL     1     114.910 125.193 138.140  0.00  0.00    +0.000 OA
ATOM     17  C   UNL     1     113.084 126.131 136.757  0.00  0.00    +0.000 A 
ATOM     18  C   UNL     1     113.772 125.849 136.397  0.00  0.00    +0.000 A 
ATOM     19  C   UNL     1     113.006 126.100 137.578  0.00  0.00    +0.000 A 
ATOM     20  C   UNL     1     113.615 125.787 138.039  0.00  0.00    +0.000 A 
ATOM     21  C   UNL     1     114.380 125.537 136.859  0.00  0.00    +0.000 A 
ATOM     22  C   UNL     1     114.301 125.506 137.679  0.00  0.00    +0.000 A 
ENDBRANCH   6  17
BRANCH   5  23
ATOM     23  O   UNL     1     113.189 127.678 136.193  0.00  0.00    +0.000 OA
BRANCH  23  31
ATOM     24  O   UNL     1     112.521 128.478 137.170  0.00  0.00    +0.000 OA
ATOM     25  O   UNL     1     113.965 130.400 136.584  0.00  0.00    +0.000 OA
ATOM     26  O   UNL     1     114.152 128.959 135.802  0.00  0.00    +0.000 OA
ATOM     27  O   UNL     1     112.816 130.559 137.756  0.00  0.00    +0.000 OA
ATOM     28  C   UNL     1     113.484 129.759 136.779  0.00  0.00    +0.000 C 
ATOM     29  C   UNL     1     113.577 129.038 136.388  0.00  0.00    +0.000 C 
ATOM     30  C   UNL     1     112.909 129.839 137.365  0.00  0.00    +0.000 C 
ATOM     31  C   UNL     1     113.096 128.398 136.583  0.00  0.00    +0.000 C 
ATOM     32  C   UNL     1     112.427 129.198 137.561  0.00  0.00    +0.000 C 
BRANCH  32  35
ATOM     33  O   UNL     1     112.013 129.033 138.918  0.00  0.00    +0.000 OA
ATOM     34  O   UNL     1     111.117 129.602 137.961  0.00  0.00    +0.000 OA
ATOM     35  C   UNL     1     111.853 129.278 138.146  0.00  0.00    +0.000 C 
ENDBRANCH  32  35
ENDBRANCH  23  31
ENDBRANCH   5  23
TORSDOF 4
ENDMDL
MODEL 10
REMARK VINA RESULT:      -9.4      9.118     11.159
REMARK  Name = 44259442
REMARK  4 active torsions:
REMARK  status: ('A' for Active; 'I' for Inactive)
REMARK    1  A    between atoms: O_2  and  C_18
REMARK    2  A    between atoms: O_2  and  C_21
REMARK    3  A    between atoms: C_19  and  C_20
REMARK    4  A    between atoms: C_22  and  C_26
REMARK                            x       y       z     vdW  Elec       q    Type
REMARK                         _______ _______ _______ _____ _____    ______ ____
ROOT
ATOM      1  O   UNL     1     113.795 126.216 138.241  0.00  0.00    +0.000 OA
ATOM      2  O   UNL     1     111.720 124.920 137.863  0.00  0.00    +0.000 OA
ATOM      3  O   UNL     1     112.327 124.215 136.760  0.00  0.00    +0.000 OA
ATOM      4  O   UNL     1     115.086 124.834 136.027  0.00  0.00    +0.000 OA
ATOM      5  C   UNL     1     112.444 125.910 138.596  0.00  0.00    +0.000 A 
ATOM      6  C   UNL     1     113.136 126.342 138.722  0.00  0.00    +0.000 A 
ATOM      7  C   UNL     1     112.412 125.352 137.989  0.00  0.00    +0.000 A 
ATOM      8  C   UNL     1     113.070 125.227 137.508  0.00  0.00    +0.000 A 
ATOM      9  C   UNL     1     113.761 125.658 137.634  0.00  0.00    +0.000 A 
ATOM     10  C   UNL     1     113.023 124.643 136.879  0.00  0.00    +0.000 A 
ATOM     11  C   UNL     1     114.454 125.537 137.141  0.00  0.00    +0.000 A 
ATOM     12  C   UNL     1     113.706 124.507 136.376  0.00  0.00    +0.000 A 
ATOM     13  C   UNL     1     114.426 124.957 136.507  0.00  0.00    +0.000 A 
ENDROOT
BRANCH   6  17
ATOM     14  O   UNL     1     113.129 129.067 139.585  0.00  0.00    +0.000 OA
ATOM     15  O   UNL     1     113.337 126.961 141.505  0.00  0.00    +0.000 OA
ATOM     16  O   UNL     1     113.265 128.571 141.152  0.00  0.00    +0.000 OA
ATOM     17  C   UNL     1     113.168 126.900 139.329  0.00  0.00    +0.000 A 
ATOM     18  C   UNL     1     113.236 126.651 140.114  0.00  0.00    +0.000 A 
ATOM     19  C   UNL     1     113.132 127.705 139.153  0.00  0.00    +0.000 A 
ATOM     20  C   UNL     1     113.165 128.262 139.761  0.00  0.00    +0.000 A 
ATOM     21  C   UNL     1     113.269 127.209 140.721  0.00  0.00    +0.000 A 
ATOM     22  C   UNL     1     113.233 128.014 140.544  0.00  0.00    +0.000 A 
ENDBRANCH   6  17
BRANCH   5  23
ATOM     23  O   UNL     1     111.785 126.036 139.077  0.00  0.00    +0.000 OA
BRANCH  23  31
ATOM     24  O   UNL     1     111.077 126.791 138.092  0.00  0.00    +0.000 OA
ATOM     25  O   UNL     1     108.928 126.018 139.046  0.00  0.00    +0.000 OA
ATOM     26  O   UNL     1     110.353 125.521 139.713  0.00  0.00    +0.000 OA
ATOM     27  O   UNL     1     108.936 127.030 137.744  0.00  0.00    +0.000 OA
ATOM     28  C   UNL     1     109.644 126.275 138.728  0.00  0.00    +0.000 C 
ATOM     29  C   UNL     1     110.357 126.027 139.062  0.00  0.00    +0.000 C 
ATOM     30  C   UNL     1     109.648 126.782 138.077  0.00  0.00    +0.000 C 
ATOM     31  C   UNL     1     111.074 126.284 138.744  0.00  0.00    +0.000 C 
ATOM     32  C   UNL     1     110.365 127.039 137.759  0.00  0.00    +0.000 C 
BRANCH  32  35
ATOM     33  O   UNL     1     110.301 127.238 136.345  0.00  0.00    +0.000 OA
ATOM     34  O   UNL     1     110.439 128.359 137.219  0.00  0.00    +0.000 OA
ATOM     35  C   UNL     1     110.368 127.545 137.108  0.00  0.00    +0.000 C 
ENDBRANCH  32  35
ENDBRANCH  23  31
ENDBRANCH   5  23
TORSDOF 4
ENDMDL
