MODEL 1
REMARK VINA RESULT:     -11.3      0.000      0.000
REMARK  Name = 134159946
REMARK  8 active torsions:
REMARK  status: ('A' for Active; 'I' for Inactive)
REMARK    1  A    between atoms: S_1  and  O_15
REMARK    2  A    between atoms: O_3  and  C_26
REMARK    3  A    between atoms: O_3  and  C_30
REMARK    4  A    between atoms: O_6  and  C_27
REMARK    5  A    between atoms: O_6  and  C_33
REMARK    6  A    between atoms: O_15  and  C_50
REMARK    7  A    between atoms: C_21  and  C_30
REMARK    8  A    between atoms: C_35  and  C_40
REMARK                            x       y       z     vdW  Elec       q    Type
REMARK                         _______ _______ _______ _____ _____    ______ ____
ROOT
ATOM      1  O   UNL     1     112.955 126.480 136.652  0.00  0.00    +0.000 OA
ATOM      2  O   UNL     1     110.729 124.996 135.607  0.00  0.00    +0.000 OA
ATOM      3  O   UNL     1     112.930 123.578 136.911  0.00  0.00    +0.000 OA
ATOM      4  C   UNL     1     111.873 127.157 136.012  0.00  0.00    +0.000 A 
ATOM      5  C   UNL     1     111.497 126.435 135.881  0.00  0.00    +0.000 A 
ATOM      6  C   UNL     1     112.602 127.180 136.398  0.00  0.00    +0.000 A 
ATOM      7  C   UNL     1     111.852 125.734 136.135  0.00  0.00    +0.000 A 
ATOM      8  C   UNL     1     112.581 125.756 136.521  0.00  0.00    +0.000 A 
ATOM      9  C   UNL     1     110.774 126.414 135.498  0.00  0.00    +0.000 A 
ATOM     10  C   UNL     1     111.451 124.988 135.992  0.00  0.00    +0.000 A 
ATOM     11  C   UNL     1     110.395 125.702 135.363  0.00  0.00    +0.000 A 
ATOM     12  C   UNL     1     112.959 125.034 136.790  0.00  0.00    +0.000 A 
ATOM     13  C   UNL     1     111.815 124.254 136.255  0.00  0.00    +0.000 A 
ATOM     14  C   UNL     1     112.574 124.277 136.656  0.00  0.00    +0.000 A 
ATOM     15  C   UNL     1     109.666 125.695 134.977  0.00  0.00    +0.000 C 
ENDROOT
BRANCH   6  18
ATOM     16  O   UNL     1     114.001 129.459 135.391  0.00  0.00    +0.000 OA
ATOM     17  O   UNL     1     113.451 129.241 138.186  0.00  0.00    +0.000 OA
ATOM     18  C   UNL     1     112.976 127.903 136.529  0.00  0.00    +0.000 A 
ATOM     19  C   UNL     1     113.026 128.210 137.292  0.00  0.00    +0.000 A 
ATOM     20  C   UNL     1     113.302 128.320 135.895  0.00  0.00    +0.000 A 
ATOM     21  C   UNL     1     113.676 129.043 136.024  0.00  0.00    +0.000 A 
ATOM     22  C   UNL     1     113.401 128.934 137.423  0.00  0.00    +0.000 A 
ATOM     23  C   UNL     1     113.726 129.350 136.789  0.00  0.00    +0.000 A 
BRANCH  23  24
ATOM     24  O   UNL     1     114.101 130.073 136.919  0.00  0.00    +0.000 OA
BRANCH  24  25
ATOM     25  S   UNL     1     113.651 130.752 137.057  0.00  0.00    +0.000 S 
ATOM     26  O   UNL     1     113.202 131.429 137.195  0.00  0.00    +0.000 OA
ATOM     27  O   UNL     1     113.941 130.787 137.828  0.00  0.00    +0.000 OA
ATOM     28  O   UNL     1     113.361 130.716 136.285  0.00  0.00    +0.000 OA
ENDBRANCH  24  25
ENDBRANCH  23  24
ENDBRANCH   6  18
BRANCH   4  29
ATOM     29  O   UNL     1     111.518 127.858 135.758  0.00  0.00    +0.000 OA
BRANCH  29  38
ATOM     30  O   UNL     1     110.742 127.940 136.954  0.00  0.00    +0.000 OA
ATOM     31  O   UNL     1     108.964 129.117 137.425  0.00  0.00    +0.000 OA
ATOM     32  O   UNL     1     109.241 129.582 135.867  0.00  0.00    +0.000 OA
ATOM     33  O   UNL     1     110.518 128.953 135.033  0.00  0.00    +0.000 OA
ATOM     34  C   UNL     1     110.103 128.254 137.371  0.00  0.00    +0.000 C 
ATOM     35  C   UNL     1     109.602 128.802 137.008  0.00  0.00    +0.000 C 
ATOM     36  C   UNL     1     109.742 129.034 136.229  0.00  0.00    +0.000 C 
ATOM     37  C   UNL     1     110.380 128.720 135.812  0.00  0.00    +0.000 C 
ATOM     38  C   UNL     1     110.880 128.173 136.175  0.00  0.00    +0.000 C 
BRANCH  34  39
ATOM     39  C   UNL     1     109.964 128.022 138.150  0.00  0.00    +0.000 C 
BRANCH  39  40
ATOM     40  O   UNL     1     109.708 127.255 138.313  0.00  0.00    +0.000 OA
BRANCH  40  46
ATOM     41  O   UNL     1     110.602 127.095 139.416  0.00  0.00    +0.000 OA
ATOM     42  O   UNL     1     108.673 126.165 138.993  0.00  0.00    +0.000 OA
ATOM     43  O   UNL     1     109.050 125.459 140.436  0.00  0.00    +0.000 OA
ATOM     44  O   UNL     1     110.462 125.843 141.199  0.00  0.00    +0.000 OA
ATOM     45  C   UNL     1     109.380 126.357 139.375  0.00  0.00    +0.000 C 
ATOM     46  C   UNL     1     109.897 126.903 139.035  0.00  0.00    +0.000 C 
ATOM     47  C   UNL     1     109.567 126.004 140.096  0.00  0.00    +0.000 C 
ATOM     48  C   UNL     1     110.273 126.197 140.477  0.00  0.00    +0.000 C 
ATOM     49  C   UNL     1     110.791 126.742 140.137  0.00  0.00    +0.000 C 
ATOM     50  C   UNL     1     111.496 126.934 140.519  0.00  0.00    +0.000 C 
ENDBRANCH  40  46
ENDBRANCH  39  40
ENDBRANCH  34  39
ENDBRANCH  29  38
ENDBRANCH   4  29
TORSDOF 8
ENDMDL
MODEL 2
REMARK VINA RESULT:     -11.2      1.580      4.755
REMARK  Name = 134159946
REMARK  8 active torsions:
REMARK  status: ('A' for Active; 'I' for Inactive)
REMARK    1  A    between atoms: S_1  and  O_15
REMARK    2  A    between atoms: O_3  and  C_26
REMARK    3  A    between atoms: O_3  and  C_30
REMARK    4  A    between atoms: O_6  and  C_27
REMARK    5  A    between atoms: O_6  and  C_33
REMARK    6  A    between atoms: O_15  and  C_50
REMARK    7  A    between atoms: C_21  and  C_30
REMARK    8  A    between atoms: C_35  and  C_40
REMARK                            x       y       z     vdW  Elec       q    Type
REMARK                         _______ _______ _______ _____ _____    ______ ____
ROOT
ATOM      1  O   UNL     1     113.422 127.885 136.499  0.00  0.00    +0.000 OA
ATOM      2  O   UNL     1     113.411 129.957 138.487  0.00  0.00    +0.000 OA
ATOM      3  O   UNL     1     114.045 130.619 135.709  0.00  0.00    +0.000 OA
ATOM      4  C   UNL     1     113.115 127.578 137.859  0.00  0.00    +0.000 A 
ATOM      5  C   UNL     1     113.215 128.371 138.062  0.00  0.00    +0.000 A 
ATOM      6  C   UNL     1     113.218 127.335 137.078  0.00  0.00    +0.000 A 
ATOM      7  C   UNL     1     113.419 128.922 137.481  0.00  0.00    +0.000 A 
ATOM      8  C   UNL     1     113.522 128.679 136.700  0.00  0.00    +0.000 A 
ATOM      9  C   UNL     1     113.112 128.612 138.837  0.00  0.00    +0.000 A 
ATOM     10  C   UNL     1     113.521 129.745 137.704  0.00  0.00    +0.000 A 
ATOM     11  C   UNL     1     113.209 129.396 139.047  0.00  0.00    +0.000 A 
ATOM     12  C   UNL     1     113.735 129.242 136.087  0.00  0.00    +0.000 A 
ATOM     13  C   UNL     1     113.733 130.324 137.105  0.00  0.00    +0.000 A 
ATOM     14  C   UNL     1     113.841 130.071 136.291  0.00  0.00    +0.000 A 
ATOM     15  C   UNL     1     113.102 129.624 139.833  0.00  0.00    +0.000 C 
ENDROOT
BRANCH   6  18
ATOM     16  O   UNL     1     114.133 124.628 137.154  0.00  0.00    +0.000 OA
ATOM     17  O   UNL     1     111.703 125.277 135.797  0.00  0.00    +0.000 OA
ATOM     18  C   UNL     1     113.118 126.541 136.877  0.00  0.00    +0.000 A 
ATOM     19  C   UNL     1     112.461 126.306 136.437  0.00  0.00    +0.000 A 
ATOM     20  C   UNL     1     113.675 125.982 137.116  0.00  0.00    +0.000 A 
ATOM     21  C   UNL     1     113.576 125.188 136.915  0.00  0.00    +0.000 A 
ATOM     22  C   UNL     1     112.360 125.512 136.236  0.00  0.00    +0.000 A 
ATOM     23  C   UNL     1     112.918 124.953 136.475  0.00  0.00    +0.000 A 
BRANCH  23  24
ATOM     24  O   UNL     1     112.818 124.159 136.275  0.00  0.00    +0.000 OA
BRANCH  24  25
ATOM     25  S   UNL     1     112.360 123.667 136.754  0.00  0.00    +0.000 S 
ATOM     26  O   UNL     1     111.903 123.176 137.233  0.00  0.00    +0.000 OA
ATOM     27  O   UNL     1     113.018 123.518 137.229  0.00  0.00    +0.000 OA
ATOM     28  O   UNL     1     111.703 123.817 136.279  0.00  0.00    +0.000 OA
ENDBRANCH  24  25
ENDBRANCH  23  24
ENDBRANCH   6  18
BRANCH   4  29
ATOM     29  O   UNL     1     112.911 127.027 138.440  0.00  0.00    +0.000 OA
BRANCH  29  38
ATOM     30  O   UNL     1     111.542 127.429 138.366  0.00  0.00    +0.000 OA
ATOM     31  O   UNL     1     109.850 126.986 139.673  0.00  0.00    +0.000 OA
ATOM     32  O   UNL     1     111.059 126.163 140.438  0.00  0.00    +0.000 OA
ATOM     33  O   UNL     1     112.589 126.183 139.821  0.00  0.00    +0.000 OA
ATOM     34  C   UNL     1     110.776 127.419 138.674  0.00  0.00    +0.000 C 
ATOM     35  C   UNL     1     110.615 126.997 139.365  0.00  0.00    +0.000 C 
ATOM     36  C   UNL     1     111.220 126.585 139.746  0.00  0.00    +0.000 C 
ATOM     37  C   UNL     1     111.985 126.595 139.438  0.00  0.00    +0.000 C 
ATOM     38  C   UNL     1     112.145 127.017 138.748  0.00  0.00    +0.000 C 
BRANCH  34  39
ATOM     39  C   UNL     1     110.172 127.830 138.292  0.00  0.00    +0.000 C 
BRANCH  39  40
ATOM     40  O   UNL     1     109.968 127.639 137.516  0.00  0.00    +0.000 OA
BRANCH  40  46
ATOM     41  O   UNL     1     109.913 128.981 137.029  0.00  0.00    +0.000 OA
ATOM     42  O   UNL     1     108.703 127.232 136.538  0.00  0.00    +0.000 OA
ATOM     43  O   UNL     1     108.016 128.371 135.561  0.00  0.00    +0.000 OA
ATOM     44  O   UNL     1     108.594 129.916 135.562  0.00  0.00    +0.000 OA
ATOM     45  C   UNL     1     108.992 128.005 136.539  0.00  0.00    +0.000 C 
ATOM     46  C   UNL     1     109.625 128.209 137.028  0.00  0.00    +0.000 C 
ATOM     47  C   UNL     1     108.648 128.574 136.050  0.00  0.00    +0.000 C 
ATOM     48  C   UNL     1     108.938 129.346 136.051  0.00  0.00    +0.000 C 
ATOM     49  C   UNL     1     109.570 129.550 136.541  0.00  0.00    +0.000 C 
ATOM     50  C   UNL     1     109.859 130.323 136.541  0.00  0.00    +0.000 C 
ENDBRANCH  40  46
ENDBRANCH  39  40
ENDBRANCH  34  39
ENDBRANCH  29  38
ENDBRANCH   4  29
TORSDOF 8
ENDMDL
MODEL 3
REMARK VINA RESULT:     -11.2      1.683      4.281
REMARK  Name = 134159946
REMARK  8 active torsions:
REMARK  status: ('A' for Active; 'I' for Inactive)
REMARK    1  A    between atoms: S_1  and  O_15
REMARK    2  A    between atoms: O_3  and  C_26
REMARK    3  A    between atoms: O_3  and  C_30
REMARK    4  A    between atoms: O_6  and  C_27
REMARK    5  A    between atoms: O_6  and  C_33
REMARK    6  A    between atoms: O_15  and  C_50
REMARK    7  A    between atoms: C_21  and  C_30
REMARK    8  A    between atoms: C_35  and  C_40
REMARK                            x       y       z     vdW  Elec       q    Type
REMARK                         _______ _______ _______ _____ _____    ______ ____
ROOT
ATOM      1  O   UNL     1     113.419 126.059 138.795  0.00  0.00    +0.000 OA
ATOM      2  O   UNL     1     112.541 125.111 136.230  0.00  0.00    +0.000 OA
ATOM      3  O   UNL     1     115.328 124.736 137.036  0.00  0.00    +0.000 OA
ATOM      4  C   UNL     1     112.062 126.235 138.387  0.00  0.00    +0.000 A 
ATOM      5  C   UNL     1     112.228 125.860 137.671  0.00  0.00    +0.000 A 
ATOM      6  C   UNL     1     112.658 126.334 138.949  0.00  0.00    +0.000 A 
ATOM      7  C   UNL     1     112.991 125.585 137.518  0.00  0.00    +0.000 A 
ATOM      8  C   UNL     1     113.587 125.684 138.080  0.00  0.00    +0.000 A 
ATOM      9  C   UNL     1     111.637 125.762 137.115  0.00  0.00    +0.000 A 
ATOM     10  C   UNL     1     113.152 125.196 136.769  0.00  0.00    +0.000 A 
ATOM     11  C   UNL     1     111.792 125.392 136.402  0.00  0.00    +0.000 A 
ATOM     12  C   UNL     1     114.384 125.402 137.932  0.00  0.00    +0.000 A 
ATOM     13  C   UNL     1     113.944 124.907 136.602  0.00  0.00    +0.000 A 
ATOM     14  C   UNL     1     114.564 125.010 137.188  0.00  0.00    +0.000 A 
ATOM     15  C   UNL     1     111.186 125.299 135.850  0.00  0.00    +0.000 C 
ENDROOT
BRANCH   6  18
ATOM     16  O   UNL     1     112.984 128.561 140.711  0.00  0.00    +0.000 OA
ATOM     17  O   UNL     1     111.330 126.361 141.480  0.00  0.00    +0.000 OA
ATOM     18  C   UNL     1     112.490 126.709 139.665  0.00  0.00    +0.000 A 
ATOM     19  C   UNL     1     111.994 126.348 140.215  0.00  0.00    +0.000 A 
ATOM     20  C   UNL     1     112.821 127.447 139.831  0.00  0.00    +0.000 A 
ATOM     21  C   UNL     1     112.654 127.823 140.546  0.00  0.00    +0.000 A 
ATOM     22  C   UNL     1     111.826 126.723 140.930  0.00  0.00    +0.000 A 
ATOM     23  C   UNL     1     112.156 127.460 141.096  0.00  0.00    +0.000 A 
BRANCH  23  24
ATOM     24  O   UNL     1     111.990 127.836 141.811  0.00  0.00    +0.000 OA
BRANCH  24  25
ATOM     25  S   UNL     1     111.264 128.215 141.918  0.00  0.00    +0.000 S 
ATOM     26  O   UNL     1     110.540 128.594 142.025  0.00  0.00    +0.000 OA
ATOM     27  O   UNL     1     111.476 128.778 141.353  0.00  0.00    +0.000 OA
ATOM     28  O   UNL     1     111.054 127.652 142.483  0.00  0.00    +0.000 OA
ENDBRANCH  24  25
ENDBRANCH  23  24
ENDBRANCH   6  18
BRANCH   4  29
ATOM     29  O   UNL     1     111.299 126.510 138.541  0.00  0.00    +0.000 OA
BRANCH  29  38
ATOM     30  O   UNL     1     111.565 127.745 137.873  0.00  0.00    +0.000 OA
ATOM     31  O   UNL     1     110.208 129.256 137.071  0.00  0.00    +0.000 OA
ATOM     32  O   UNL     1     109.132 128.159 137.673  0.00  0.00    +0.000 OA
ATOM     33  O   UNL     1     109.678 126.786 138.407  0.00  0.00    +0.000 OA
ATOM     34  C   UNL     1     111.292 128.432 137.506  0.00  0.00    +0.000 C 
ATOM     35  C   UNL     1     110.481 128.570 137.439  0.00  0.00    +0.000 C 
ATOM     36  C   UNL     1     109.943 128.021 137.740  0.00  0.00    +0.000 C 
ATOM     37  C   UNL     1     110.216 127.334 138.107  0.00  0.00    +0.000 C 
ATOM     38  C   UNL     1     111.026 127.197 138.174  0.00  0.00    +0.000 C 
BRANCH  34  39
ATOM     39  C   UNL     1     111.829 128.980 137.205  0.00  0.00    +0.000 C 
BRANCH  39  40
ATOM     40  O   UNL     1     112.377 128.751 136.632  0.00  0.00    +0.000 OA
BRANCH  40  46
ATOM     41  O   UNL     1     113.230 129.835 137.004  0.00  0.00    +0.000 OA
ATOM     42  O   UNL     1     113.364 128.413 135.354  0.00  0.00    +0.000 OA
ATOM     43  O   UNL     1     114.711 129.327 135.087  0.00  0.00    +0.000 OA
ATOM     44  O   UNL     1     115.071 130.581 136.099  0.00  0.00    +0.000 OA
ATOM     45  C   UNL     1     113.544 129.040 135.860  0.00  0.00    +0.000 C 
ATOM     46  C   UNL     1     113.050 129.209 136.499  0.00  0.00    +0.000 C 
ATOM     47  C   UNL     1     114.218 129.497 135.726  0.00  0.00    +0.000 C 
ATOM     48  C   UNL     1     114.397 130.123 136.232  0.00  0.00    +0.000 C 
ATOM     49  C   UNL     1     113.903 130.292 136.871  0.00  0.00    +0.000 C 
ATOM     50  C   UNL     1     114.084 130.919 137.376  0.00  0.00    +0.000 C 
ENDBRANCH  40  46
ENDBRANCH  39  40
ENDBRANCH  34  39
ENDBRANCH  29  38
ENDBRANCH   4  29
TORSDOF 8
ENDMDL
MODEL 4
REMARK VINA RESULT:     -10.8      1.531      4.917
REMARK  Name = 134159946
REMARK  8 active torsions:
REMARK  status: ('A' for Active; 'I' for Inactive)
REMARK    1  A    between atoms: S_1  and  O_15
REMARK    2  A    between atoms: O_3  and  C_26
REMARK    3  A    between atoms: O_3  and  C_30
REMARK    4  A    between atoms: O_6  and  C_27
REMARK    5  A    between atoms: O_6  and  C_33
REMARK    6  A    between atoms: O_15  and  C_50
REMARK    7  A    between atoms: C_21  and  C_30
REMARK    8  A    between atoms: C_35  and  C_40
REMARK                            x       y       z     vdW  Elec       q    Type
REMARK                         _______ _______ _______ _____ _____    ______ ____
ROOT
ATOM      1  O   UNL     1     112.036 128.655 138.626  0.00  0.00    +0.000 OA
ATOM      2  O   UNL     1     113.889 128.401 136.446  0.00  0.00    +0.000 OA
ATOM      3  O   UNL     1     113.328 131.043 137.570  0.00  0.00    +0.000 OA
ATOM      4  C   UNL     1     112.321 127.372 138.066  0.00  0.00    +0.000 A 
ATOM      5  C   UNL     1     112.841 127.721 137.530  0.00  0.00    +0.000 A 
ATOM      6  C   UNL     1     111.918 127.839 138.614  0.00  0.00    +0.000 A 
ATOM      7  C   UNL     1     112.959 128.538 137.542  0.00  0.00    +0.000 A 
ATOM      8  C   UNL     1     112.557 129.005 138.090  0.00  0.00    +0.000 A 
ATOM      9  C   UNL     1     113.240 127.257 136.987  0.00  0.00    +0.000 A 
ATOM     10  C   UNL     1     113.504 128.890 136.978  0.00  0.00    +0.000 A 
ATOM     11  C   UNL     1     113.758 127.594 136.451  0.00  0.00    +0.000 A 
ATOM     12  C   UNL     1     112.671 129.856 138.112  0.00  0.00    +0.000 A 
ATOM     13  C   UNL     1     113.631 129.740 136.986  0.00  0.00    +0.000 A 
ATOM     14  C   UNL     1     113.212 130.226 137.556  0.00  0.00    +0.000 A 
ATOM     15  C   UNL     1     114.154 127.114 135.909  0.00  0.00    +0.000 C 
ENDROOT
BRANCH   6  18
ATOM     16  O   UNL     1     109.252 127.388 139.539  0.00  0.00    +0.000 OA
ATOM     17  O   UNL     1     111.459 126.191 140.904  0.00  0.00    +0.000 OA
ATOM     18  C   UNL     1     111.398 127.489 139.151  0.00  0.00    +0.000 A 
ATOM     19  C   UNL     1     111.688 127.015 139.759  0.00  0.00    +0.000 A 
ATOM     20  C   UNL     1     110.585 127.613 139.077  0.00  0.00    +0.000 A 
ATOM     21  C   UNL     1     110.064 127.264 139.612  0.00  0.00    +0.000 A 
ATOM     22  C   UNL     1     111.168 126.665 140.295  0.00  0.00    +0.000 A 
ATOM     23  C   UNL     1     110.356 126.789 140.222  0.00  0.00    +0.000 A 
BRANCH  23  24
ATOM     24  O   UNL     1     109.834 126.440 140.757  0.00  0.00    +0.000 OA
BRANCH  24  25
ATOM     25  S   UNL     1     109.638 125.642 140.680  0.00  0.00    +0.000 S 
ATOM     26  O   UNL     1     109.443 124.844 140.604  0.00  0.00    +0.000 OA
ATOM     27  O   UNL     1     110.046 125.475 141.378  0.00  0.00    +0.000 OA
ATOM     28  O   UNL     1     109.231 125.809 139.983  0.00  0.00    +0.000 OA
ENDBRANCH  24  25
ENDBRANCH  23  24
ENDBRANCH   6  18
BRANCH   4  29
ATOM     29  O   UNL     1     112.203 126.555 138.054  0.00  0.00    +0.000 OA
BRANCH  29  38
ATOM     30  O   UNL     1     111.313 126.679 136.943  0.00  0.00    +0.000 OA
ATOM     31  O   UNL     1     110.492 125.170 135.595  0.00  0.00    +0.000 OA
ATOM     32  O   UNL     1     111.417 124.231 136.589  0.00  0.00    +0.000 OA
ATOM     33  O   UNL     1     112.272 124.923 137.818  0.00  0.00    +0.000 OA
ATOM     34  C   UNL     1     110.885 126.333 136.329  0.00  0.00    +0.000 C 
ATOM     35  C   UNL     1     110.920 125.516 136.210  0.00  0.00    +0.000 C 
ATOM     36  C   UNL     1     111.382 125.047 136.707  0.00  0.00    +0.000 C 
ATOM     37  C   UNL     1     111.810 125.393 137.322  0.00  0.00    +0.000 C 
ATOM     38  C   UNL     1     111.775 126.209 137.440  0.00  0.00    +0.000 C 
BRANCH  34  39
ATOM     39  C   UNL     1     110.423 126.801 135.832  0.00  0.00    +0.000 C 
BRANCH  39  40
ATOM     40  O   UNL     1     109.769 127.203 136.134  0.00  0.00    +0.000 OA
BRANCH  40  46
ATOM     41  O   UNL     1     110.137 128.397 135.441  0.00  0.00    +0.000 OA
ATOM     42  O   UNL     1     108.247 127.802 136.357  0.00  0.00    +0.000 OA
ATOM     43  O   UNL     1     107.855 129.295 135.775  0.00  0.00    +0.000 OA
ATOM     44  O   UNL     1     108.985 130.190 134.971  0.00  0.00    +0.000 OA
ATOM     45  C   UNL     1     108.813 128.249 135.954  0.00  0.00    +0.000 C 
ATOM     46  C   UNL     1     109.573 127.950 135.843  0.00  0.00    +0.000 C 
ATOM     47  C   UNL     1     108.616 128.996 135.664  0.00  0.00    +0.000 C 
ATOM     48  C   UNL     1     109.181 129.443 135.262  0.00  0.00    +0.000 C 
ATOM     49  C   UNL     1     109.942 129.143 135.150  0.00  0.00    +0.000 C 
ATOM     50  C   UNL     1     110.506 129.591 134.748  0.00  0.00    +0.000 C 
ENDBRANCH  40  46
ENDBRANCH  39  40
ENDBRANCH  34  39
ENDBRANCH  29  38
ENDBRANCH   4  29
TORSDOF 8
ENDMDL
MODEL 5
REMARK VINA RESULT:     -10.7      1.815      4.329
REMARK  Name = 134159946
REMARK  8 active torsions:
REMARK  status: ('A' for Active; 'I' for Inactive)
REMARK    1  A    between atoms: S_1  and  O_15
REMARK    2  A    between atoms: O_3  and  C_26
REMARK    3  A    between atoms: O_3  and  C_30
REMARK    4  A    between atoms: O_6  and  C_27
REMARK    5  A    between atoms: O_6  and  C_33
REMARK    6  A    between atoms: O_15  and  C_50
REMARK    7  A    between atoms: C_21  and  C_30
REMARK    8  A    between atoms: C_35  and  C_40
REMARK                            x       y       z     vdW  Elec       q    Type
REMARK                         _______ _______ _______ _____ _____    ______ ____
ROOT
ATOM      1  O   UNL     1     111.791 129.839 135.554  0.00  0.00    +0.000 OA
ATOM      2  O   UNL     1     113.625 129.169 137.660  0.00  0.00    +0.000 OA
ATOM      3  O   UNL     1     114.464 128.904 134.870  0.00  0.00    +0.000 OA
ATOM      4  C   UNL     1     111.396 129.963 136.922  0.00  0.00    +0.000 A 
ATOM      5  C   UNL     1     112.140 129.698 137.161  0.00  0.00    +0.000 A 
ATOM      6  C   UNL     1     111.222 130.033 136.119  0.00  0.00    +0.000 A 
ATOM      7  C   UNL     1     112.710 129.503 136.596  0.00  0.00    +0.000 A 
ATOM      8  C   UNL     1     112.535 129.574 135.792  0.00  0.00    +0.000 A 
ATOM      9  C   UNL     1     112.313 129.628 137.957  0.00  0.00    +0.000 A 
ATOM     10  C   UNL     1     113.481 129.229 136.857  0.00  0.00    +0.000 A 
ATOM     11  C   UNL     1     113.047 129.367 138.204  0.00  0.00    +0.000 A 
ATOM     12  C   UNL     1     113.119 129.374 135.195  0.00  0.00    +0.000 A 
ATOM     13  C   UNL     1     114.078 129.025 136.273  0.00  0.00    +0.000 A 
ATOM     14  C   UNL     1     113.896 129.098 135.437  0.00  0.00    +0.000 A 
ATOM     15  C   UNL     1     113.207 129.302 139.011  0.00  0.00    +0.000 C 
ENDROOT
BRANCH   6  18
ATOM     16  O   UNL     1     109.327 132.152 135.827  0.00  0.00    +0.000 OA
ATOM     17  O   UNL     1     108.652 129.506 134.984  0.00  0.00    +0.000 OA
ATOM     18  C   UNL     1     110.477 130.298 135.881  0.00  0.00    +0.000 A 
ATOM     19  C   UNL     1     109.937 129.770 135.551  0.00  0.00    +0.000 A 
ATOM     20  C   UNL     1     110.274 131.092 135.972  0.00  0.00    +0.000 A 
ATOM     21  C   UNL     1     109.530 131.358 135.735  0.00  0.00    +0.000 A 
ATOM     22  C   UNL     1     109.192 130.035 135.313  0.00  0.00    +0.000 A 
ATOM     23  C   UNL     1     108.989 130.829 135.405  0.00  0.00    +0.000 A 
BRANCH  23  24
ATOM     24  O   UNL     1     108.245 131.095 135.168  0.00  0.00    +0.000 OA
BRANCH  24  25
ATOM     25  S   UNL     1     107.681 131.299 135.734  0.00  0.00    +0.000 S 
ATOM     26  O   UNL     1     107.117 131.503 136.300  0.00  0.00    +0.000 OA
ATOM     27  O   UNL     1     107.594 130.503 135.934  0.00  0.00    +0.000 OA
ATOM     28  O   UNL     1     107.768 132.095 135.533  0.00  0.00    +0.000 OA
ENDBRANCH  24  25
ENDBRANCH  23  24
ENDBRANCH   6  18
BRANCH   4  29
ATOM     29  O   UNL     1     110.827 130.157 137.487  0.00  0.00    +0.000 OA
BRANCH  29  38
ATOM     30  O   UNL     1     110.441 128.787 137.606  0.00  0.00    +0.000 OA
ATOM     31  O   UNL     1     109.230 127.769 139.111  0.00  0.00    +0.000 OA
ATOM     32  O   UNL     1     109.204 129.316 139.684  0.00  0.00    +0.000 OA
ATOM     33  O   UNL     1     110.003 130.510 138.872  0.00  0.00    +0.000 OA
ATOM     34  C   UNL     1     110.042 128.189 138.012  0.00  0.00    +0.000 C 
ATOM     35  C   UNL     1     109.629 128.366 138.705  0.00  0.00    +0.000 C 
ATOM     36  C   UNL     1     109.617 129.140 138.991  0.00  0.00    +0.000 C 
ATOM     37  C   UNL     1     110.016 129.737 138.585  0.00  0.00    +0.000 C 
ATOM     38  C   UNL     1     110.428 129.560 137.893  0.00  0.00    +0.000 C 
BRANCH  34  39
ATOM     39  C   UNL     1     110.054 127.416 137.726  0.00  0.00    +0.000 C 
BRANCH  39  40
ATOM     40  O   UNL     1     110.747 126.970 137.771  0.00  0.00    +0.000 OA
BRANCH  40  46
ATOM     41  O   UNL     1     110.550 126.347 136.500  0.00  0.00    +0.000 OA
ATOM     42  O   UNL     1     111.582 125.645 138.291  0.00  0.00    +0.000 OA
ATOM     43  O   UNL     1     111.802 124.360 137.281  0.00  0.00    +0.000 OA
ATOM     44  O   UNL     1     111.188 124.398 135.750  0.00  0.00    +0.000 OA
ATOM     45  C   UNL     1     111.274 125.665 137.525  0.00  0.00    +0.000 C 
ATOM     46  C   UNL     1     110.857 126.327 137.265  0.00  0.00    +0.000 C 
ATOM     47  C   UNL     1     111.385 125.022 137.021  0.00  0.00    +0.000 C 
ATOM     48  C   UNL     1     111.077 125.042 136.256  0.00  0.00    +0.000 C 
ATOM     49  C   UNL     1     110.660 125.704 135.995  0.00  0.00    +0.000 C 
ATOM     50  C   UNL     1     110.353 125.723 135.229  0.00  0.00    +0.000 C 
ENDBRANCH  40  46
ENDBRANCH  39  40
ENDBRANCH  34  39
ENDBRANCH  29  38
ENDBRANCH   4  29
TORSDOF 8
ENDMDL
MODEL 6
REMARK VINA RESULT:     -10.7      1.440      3.174
REMARK  Name = 134159946
REMARK  8 active torsions:
REMARK  status: ('A' for Active; 'I' for Inactive)
REMARK    1  A    between atoms: S_1  and  O_15
REMARK    2  A    between atoms: O_3  and  C_26
REMARK    3  A    between atoms: O_3  and  C_30
REMARK    4  A    between atoms: O_6  and  C_27
REMARK    5  A    between atoms: O_6  and  C_33
REMARK    6  A    between atoms: O_15  and  C_50
REMARK    7  A    between atoms: C_21  and  C_30
REMARK    8  A    between atoms: C_35  and  C_40
REMARK                            x       y       z     vdW  Elec       q    Type
REMARK                         _______ _______ _______ _____ _____    ______ ____
ROOT
ATOM      1  O   UNL     1     111.088 125.428 136.577  0.00  0.00    +0.000 OA
ATOM      2  O   UNL     1     113.912 124.909 136.668  0.00  0.00    +0.000 OA
ATOM      3  O   UNL     1     112.022 122.740 137.197  0.00  0.00    +0.000 OA
ATOM      4  C   UNL     1     112.024 126.477 136.321  0.00  0.00    +0.000 A 
ATOM      5  C   UNL     1     112.647 125.950 136.438  0.00  0.00    +0.000 A 
ATOM      6  C   UNL     1     111.244 126.216 136.391  0.00  0.00    +0.000 A 
ATOM      7  C   UNL     1     112.491 125.161 136.624  0.00  0.00    +0.000 A 
ATOM      8  C   UNL     1     111.711 124.900 136.694  0.00  0.00    +0.000 A 
ATOM      9  C   UNL     1     113.420 126.210 136.369  0.00  0.00    +0.000 A 
ATOM     10  C   UNL     1     113.149 124.622 136.744  0.00  0.00    +0.000 A 
ATOM     11  C   UNL     1     114.045 125.695 136.483  0.00  0.00    +0.000 A 
ATOM     12  C   UNL     1     111.536 124.082 136.887  0.00  0.00    +0.000 A 
ATOM     13  C   UNL     1     112.993 123.799 136.938  0.00  0.00    +0.000 A 
ATOM     14  C   UNL     1     112.181 123.527 137.010  0.00  0.00    +0.000 A 
ATOM     15  C   UNL     1     114.819 125.970 136.410  0.00  0.00    +0.000 C 
ENDROOT
BRANCH   6  18
ATOM     16  O   UNL     1     109.733 127.915 134.659  0.00  0.00    +0.000 OA
ATOM     17  O   UNL     1     109.018 127.686 137.416  0.00  0.00    +0.000 OA
ATOM     18  C   UNL     1     110.621 126.744 136.274  0.00  0.00    +0.000 A 
ATOM     19  C   UNL     1     110.131 126.951 136.903  0.00  0.00    +0.000 A 
ATOM     20  C   UNL     1     110.488 127.066 135.525  0.00  0.00    +0.000 A 
ATOM     21  C   UNL     1     109.866 127.594 135.407  0.00  0.00    +0.000 A 
ATOM     22  C   UNL     1     109.508 127.479 136.786  0.00  0.00    +0.000 A 
ATOM     23  C   UNL     1     109.375 127.800 136.038  0.00  0.00    +0.000 A 
BRANCH  23  24
ATOM     24  O   UNL     1     108.753 128.328 135.920  0.00  0.00    +0.000 OA
BRANCH  24  25
ATOM     25  S   UNL     1     108.895 129.142 135.928  0.00  0.00    +0.000 S 
ATOM     26  O   UNL     1     109.037 129.954 135.936  0.00  0.00    +0.000 OA
ATOM     27  O   UNL     1     108.957 129.122 136.750  0.00  0.00    +0.000 OA
ATOM     28  O   UNL     1     108.833 129.160 135.105  0.00  0.00    +0.000 OA
ENDBRANCH  24  25
ENDBRANCH  23  24
ENDBRANCH   6  18
BRANCH   4  29
ATOM     29  O   UNL     1     112.180 127.266 136.135  0.00  0.00    +0.000 OA
BRANCH  29  38
ATOM     30  O   UNL     1     112.404 127.581 137.510  0.00  0.00    +0.000 OA
ATOM     31  O   UNL     1     113.368 129.304 138.443  0.00  0.00    +0.000 OA
ATOM     32  O   UNL     1     113.513 129.692 136.846  0.00  0.00    +0.000 OA
ATOM     33  O   UNL     1     112.919 128.674 135.692  0.00  0.00    +0.000 OA
ATOM     34  C   UNL     1     112.701 128.090 138.087  0.00  0.00    +0.000 C 
ATOM     35  C   UNL     1     113.071 128.794 137.866  0.00  0.00    +0.000 C 
ATOM     36  C   UNL     1     113.143 128.988 137.067  0.00  0.00    +0.000 C 
ATOM     37  C   UNL     1     112.846 128.479 136.490  0.00  0.00    +0.000 C 
ATOM     38  C   UNL     1     112.477 127.776 136.712  0.00  0.00    +0.000 C 
BRANCH  34  39
ATOM     39  C   UNL     1     112.629 127.896 138.886  0.00  0.00    +0.000 C 
BRANCH  39  40
ATOM     40  O   UNL     1     111.958 127.498 139.156  0.00  0.00    +0.000 OA
BRANCH  40  46
ATOM     41  O   UNL     1     111.819 128.160 140.415  0.00  0.00    +0.000 OA
ATOM     42  O   UNL     1     111.577 126.060 139.868  0.00  0.00    +0.000 OA
ATOM     43  O   UNL     1     111.246 126.002 141.484  0.00  0.00    +0.000 OA
ATOM     44  O   UNL     1     111.298 127.382 142.387  0.00  0.00    +0.000 OA
ATOM     45  C   UNL     1     111.602 126.751 140.320  0.00  0.00    +0.000 C 
ATOM     46  C   UNL     1     111.793 127.470 139.964  0.00  0.00    +0.000 C 
ATOM     47  C   UNL     1     111.437 126.721 141.128  0.00  0.00    +0.000 C 
ATOM     48  C   UNL     1     111.463 127.412 141.578  0.00  0.00    +0.000 C 
ATOM     49  C   UNL     1     111.654 128.131 141.222  0.00  0.00    +0.000 C 
ATOM     50  C   UNL     1     111.679 128.821 141.674  0.00  0.00    +0.000 C 
ENDBRANCH  40  46
ENDBRANCH  39  40
ENDBRANCH  34  39
ENDBRANCH  29  38
ENDBRANCH   4  29
TORSDOF 8
ENDMDL
MODEL 7
REMARK VINA RESULT:     -10.5      1.560      4.106
REMARK  Name = 134159946
REMARK  8 active torsions:
REMARK  status: ('A' for Active; 'I' for Inactive)
REMARK    1  A    between atoms: S_1  and  O_15
REMARK    2  A    between atoms: O_3  and  C_26
REMARK    3  A    between atoms: O_3  and  C_30
REMARK    4  A    between atoms: O_6  and  C_27
REMARK    5  A    between atoms: O_6  and  C_33
REMARK    6  A    between atoms: O_15  and  C_50
REMARK    7  A    between atoms: C_21  and  C_30
REMARK    8  A    between atoms: C_35  and  C_40
REMARK                            x       y       z     vdW  Elec       q    Type
REMARK                         _______ _______ _______ _____ _____    ______ ____
ROOT
ATOM      1  O   UNL     1     111.656 126.555 138.225  0.00  0.00    +0.000 OA
ATOM      2  O   UNL     1     111.527 125.334 135.628  0.00  0.00    +0.000 OA
ATOM      3  O   UNL     1     113.775 124.734 137.401  0.00  0.00    +0.000 OA
ATOM      4  C   UNL     1     110.565 126.838 137.347  0.00  0.00    +0.000 A 
ATOM      5  C   UNL     1     110.890 126.336 136.779  0.00  0.00    +0.000 A 
ATOM      6  C   UNL     1     110.948 126.948 138.070  0.00  0.00    +0.000 A 
ATOM      7  C   UNL     1     111.600 125.943 136.935  0.00  0.00    +0.000 A 
ATOM      8  C   UNL     1     111.982 126.053 137.657  0.00  0.00    +0.000 A 
ATOM      9  C   UNL     1     110.510 126.228 136.063  0.00  0.00    +0.000 A 
ATOM     10  C   UNL     1     111.929 125.423 136.336  0.00  0.00    +0.000 A 
ATOM     11  C   UNL     1     110.825 125.733 135.494  0.00  0.00    +0.000 A 
ATOM     12  C   UNL     1     112.721 125.650 137.831  0.00  0.00    +0.000 A 
ATOM     13  C   UNL     1     112.667 125.011 136.491  0.00  0.00    +0.000 A 
ATOM     14  C   UNL     1     113.066 125.125 137.244  0.00  0.00    +0.000 A 
ATOM     15  C   UNL     1     110.431 125.633 134.776  0.00  0.00    +0.000 C 
ENDROOT
BRANCH   6  18
ATOM     16  O   UNL     1     108.911 127.516 139.992  0.00  0.00    +0.000 OA
ATOM     17  O   UNL     1     111.022 129.391 139.551  0.00  0.00    +0.000 OA
ATOM     18  C   UNL     1     110.621 127.450 138.637  0.00  0.00    +0.000 A 
ATOM     19  C   UNL     1     110.985 128.170 138.810  0.00  0.00    +0.000 A 
ATOM     20  C   UNL     1     109.930 127.232 139.031  0.00  0.00    +0.000 A 
ATOM     21  C   UNL     1     109.602 127.734 139.598  0.00  0.00    +0.000 A 
ATOM     22  C   UNL     1     110.658 128.672 139.378  0.00  0.00    +0.000 A 
ATOM     23  C   UNL     1     109.967 128.454 139.772  0.00  0.00    +0.000 A 
BRANCH  23  24
ATOM     24  O   UNL     1     109.639 128.955 140.339  0.00  0.00    +0.000 OA
BRANCH  24  25
ATOM     25  S   UNL     1     108.985 129.422 140.148  0.00  0.00    +0.000 S 
ATOM     26  O   UNL     1     108.331 129.887 139.958  0.00  0.00    +0.000 OA
ATOM     27  O   UNL     1     108.511 128.956 140.639  0.00  0.00    +0.000 OA
ATOM     28  O   UNL     1     109.459 129.886 139.658  0.00  0.00    +0.000 OA
ENDBRANCH  24  25
ENDBRANCH  23  24
ENDBRANCH   6  18
BRANCH   4  29
ATOM     29  O   UNL     1     109.855 127.231 137.192  0.00  0.00    +0.000 OA
BRANCH  29  38
ATOM     30  O   UNL     1     110.544 128.240 136.450  0.00  0.00    +0.000 OA
ATOM     31  O   UNL     1     109.798 129.755 135.067  0.00  0.00    +0.000 OA
ATOM     32  O   UNL     1     108.393 128.999 135.488  0.00  0.00    +0.000 OA
ATOM     33  O   UNL     1     108.422 127.737 136.551  0.00  0.00    +0.000 OA
ATOM     34  C   UNL     1     110.529 128.871 135.919  0.00  0.00    +0.000 C 
ATOM     35  C   UNL     1     109.812 129.124 135.598  0.00  0.00    +0.000 C 
ATOM     36  C   UNL     1     109.110 128.746 135.809  0.00  0.00    +0.000 C 
ATOM     37  C   UNL     1     109.125 128.115 136.340  0.00  0.00    +0.000 C 
ATOM     38  C   UNL     1     109.841 127.862 136.661  0.00  0.00    +0.000 C 
BRANCH  34  39
ATOM     39  C   UNL     1     111.231 129.249 135.708  0.00  0.00    +0.000 C 
BRANCH  39  40
ATOM     40  O   UNL     1     111.645 129.694 136.267  0.00  0.00    +0.000 OA
BRANCH  40  46
ATOM     41  O   UNL     1     112.918 129.184 135.863  0.00  0.00    +0.000 OA
ATOM     42  O   UNL     1     112.369 131.077 136.800  0.00  0.00    +0.000 OA
ATOM     43  O   UNL     1     114.003 131.259 136.663  0.00  0.00    +0.000 OA
ATOM     44  O   UNL     1     114.914 130.058 135.992  0.00  0.00    +0.000 OA
ATOM     45  C   UNL     1     112.824 130.476 136.464  0.00  0.00    +0.000 C 
ATOM     46  C   UNL     1     112.463 129.784 136.198  0.00  0.00    +0.000 C 
ATOM     47  C   UNL     1     113.641 130.568 136.396  0.00  0.00    +0.000 C 
ATOM     48  C   UNL     1     114.096 129.967 136.061  0.00  0.00    +0.000 C 
ATOM     49  C   UNL     1     113.734 129.275 135.794  0.00  0.00    +0.000 C 
ATOM     50  C   UNL     1     114.190 128.674 135.459  0.00  0.00    +0.000 C 
ENDBRANCH  40  46
ENDBRANCH  39  40
ENDBRANCH  34  39
ENDBRANCH  29  38
ENDBRANCH   4  29
TORSDOF 8
ENDMDL
MODEL 8
REMARK VINA RESULT:     -10.5      1.271      3.050
REMARK  Name = 134159946
REMARK  8 active torsions:
REMARK  status: ('A' for Active; 'I' for Inactive)
REMARK    1  A    between atoms: S_1  and  O_15
REMARK    2  A    between atoms: O_3  and  C_26
REMARK    3  A    between atoms: O_3  and  C_30
REMARK    4  A    between atoms: O_6  and  C_27
REMARK    5  A    between atoms: O_6  and  C_33
REMARK    6  A    between atoms: O_15  and  C_50
REMARK    7  A    between atoms: C_21  and  C_30
REMARK    8  A    between atoms: C_35  and  C_40
REMARK                            x       y       z     vdW  Elec       q    Type
REMARK                         _______ _______ _______ _____ _____    ______ ____
ROOT
ATOM      1  O   UNL     1     111.428 128.364 136.192  0.00  0.00    +0.000 OA
ATOM      2  O   UNL     1     110.363 125.698 136.109  0.00  0.00    +0.000 OA
ATOM      3  O   UNL     1     108.540 127.985 136.174  0.00  0.00    +0.000 OA
ATOM      4  C   UNL     1     112.305 127.237 136.159  0.00  0.00    +0.000 A 
ATOM      5  C   UNL     1     111.654 126.730 136.143  0.00  0.00    +0.000 A 
ATOM      6  C   UNL     1     112.192 128.054 136.184  0.00  0.00    +0.000 A 
ATOM      7  C   UNL     1     110.889 127.042 136.150  0.00  0.00    +0.000 A 
ATOM      8  C   UNL     1     110.776 127.858 136.175  0.00  0.00    +0.000 A 
ATOM      9  C   UNL     1     111.767 125.921 136.118  0.00  0.00    +0.000 A 
ATOM     10  C   UNL     1     110.220 126.504 136.133  0.00  0.00    +0.000 A 
ATOM     11  C   UNL     1     111.128 125.411 136.101  0.00  0.00    +0.000 A 
ATOM     12  C   UNL     1     109.986 128.194 136.183  0.00  0.00    +0.000 A 
ATOM     13  C   UNL     1     109.421 126.821 136.141  0.00  0.00    +0.000 A 
ATOM     14  C   UNL     1     109.303 127.672 136.166  0.00  0.00    +0.000 A 
ATOM     15  C   UNL     1     111.257 124.596 136.077  0.00  0.00    +0.000 C 
ENDROOT
BRANCH   6  18
ATOM     16  O   UNL     1     113.814 129.954 137.572  0.00  0.00    +0.000 OA
ATOM     17  O   UNL     1     114.479 129.189 134.900  0.00  0.00    +0.000 OA
ATOM     18  C   UNL     1     112.844 128.560 136.201  0.00  0.00    +0.000 A 
ATOM     19  C   UNL     1     113.335 128.622 135.542  0.00  0.00    +0.000 A 
ATOM     20  C   UNL     1     113.003 129.004 136.878  0.00  0.00    +0.000 A 
ATOM     21  C   UNL     1     113.655 129.510 136.896  0.00  0.00    +0.000 A 
ATOM     22  C   UNL     1     113.987 129.127 135.559  0.00  0.00    +0.000 A 
ATOM     23  C   UNL     1     114.147 129.571 136.236  0.00  0.00    +0.000 A 
BRANCH  23  24
ATOM     24  O   UNL     1     114.798 130.077 136.254  0.00  0.00    +0.000 OA
BRANCH  24  25
ATOM     25  S   UNL     1     114.773 130.796 135.847  0.00  0.00    +0.000 S 
ATOM     26  O   UNL     1     114.749 131.512 135.441  0.00  0.00    +0.000 OA
ATOM     27  O   UNL     1     115.335 130.512 135.313  0.00  0.00    +0.000 OA
ATOM     28  O   UNL     1     114.212 131.078 136.381  0.00  0.00    +0.000 OA
ENDBRANCH  24  25
ENDBRANCH  23  24
ENDBRANCH   6  18
BRANCH   4  29
ATOM     29  O   UNL     1     113.070 126.926 136.152  0.00  0.00    +0.000 OA
BRANCH  29  38
ATOM     30  O   UNL     1     113.057 126.746 137.569  0.00  0.00    +0.000 OA
ATOM     31  O   UNL     1     114.301 125.503 138.863  0.00  0.00    +0.000 OA
ATOM     32  O   UNL     1     114.941 125.152 137.383  0.00  0.00    +0.000 OA
ATOM     33  O   UNL     1     114.326 125.863 136.028  0.00  0.00    +0.000 OA
ATOM     34  C   UNL     1     113.364 126.391 138.247  0.00  0.00    +0.000 C 
ATOM     35  C   UNL     1     113.993 125.859 138.185  0.00  0.00    +0.000 C 
ATOM     36  C   UNL     1     114.313 125.684 137.445  0.00  0.00    +0.000 C 
ATOM     37  C   UNL     1     114.005 126.039 136.767  0.00  0.00    +0.000 C 
ATOM     38  C   UNL     1     113.378 126.570 136.829  0.00  0.00    +0.000 C 
BRANCH  34  39
ATOM     39  C   UNL     1     113.044 126.566 138.987  0.00  0.00    +0.000 C 
BRANCH  39  40
ATOM     40  O   UNL     1     112.248 126.414 139.139  0.00  0.00    +0.000 OA
BRANCH  40  46
ATOM     41  O   UNL     1     112.293 127.186 140.340  0.00  0.00    +0.000 OA
ATOM     42  O   UNL     1     110.845 125.708 139.645  0.00  0.00    +0.000 OA
ATOM     43  O   UNL     1     110.188 126.128 141.099  0.00  0.00    +0.000 OA
ATOM     44  O   UNL     1     110.935 127.254 142.047  0.00  0.00    +0.000 OA
ATOM     45  C   UNL     1     111.219 126.271 140.119  0.00  0.00    +0.000 C 
ATOM     46  C   UNL     1     111.920 126.624 139.866  0.00  0.00    +0.000 C 
ATOM     47  C   UNL     1     110.890 126.481 140.846  0.00  0.00    +0.000 C 
ATOM     48  C   UNL     1     111.263 127.044 141.320  0.00  0.00    +0.000 C 
ATOM     49  C   UNL     1     111.965 127.396 141.067  0.00  0.00    +0.000 C 
ATOM     50  C   UNL     1     112.338 127.959 141.541  0.00  0.00    +0.000 C 
ENDBRANCH  40  46
ENDBRANCH  39  40
ENDBRANCH  34  39
ENDBRANCH  29  38
ENDBRANCH   4  29
TORSDOF 8
ENDMDL
MODEL 9
REMARK VINA RESULT:     -10.4      1.915      4.913
REMARK  Name = 134159946
REMARK  8 active torsions:
REMARK  status: ('A' for Active; 'I' for Inactive)
REMARK    1  A    between atoms: S_1  and  O_15
REMARK    2  A    between atoms: O_3  and  C_26
REMARK    3  A    between atoms: O_3  and  C_30
REMARK    4  A    between atoms: O_6  and  C_27
REMARK    5  A    between atoms: O_6  and  C_33
REMARK    6  A    between atoms: O_15  and  C_50
REMARK    7  A    between atoms: C_21  and  C_30
REMARK    8  A    between atoms: C_35  and  C_40
REMARK                            x       y       z     vdW  Elec       q    Type
REMARK                         _______ _______ _______ _____ _____    ______ ____
ROOT
ATOM      1  O   UNL     1     110.625 125.791 138.010  0.00  0.00    +0.000 OA
ATOM      2  O   UNL     1     113.291 125.219 137.109  0.00  0.00    +0.000 OA
ATOM      3  O   UNL     1     111.023 124.714 135.333  0.00  0.00    +0.000 OA
ATOM      4  C   UNL     1     111.743 126.032 138.865  0.00  0.00    +0.000 A 
ATOM      5  C   UNL     1     112.253 125.760 138.277  0.00  0.00    +0.000 A 
ATOM      6  C   UNL     1     110.929 126.047 138.732  0.00  0.00    +0.000 A 
ATOM      7  C   UNL     1     111.948 125.503 137.553  0.00  0.00    +0.000 A 
ATOM      8  C   UNL     1     111.134 125.519 137.420  0.00  0.00    +0.000 A 
ATOM      9  C   UNL     1     113.060 125.745 138.410  0.00  0.00    +0.000 A 
ATOM     10  C   UNL     1     112.489 125.222 136.948  0.00  0.00    +0.000 A 
ATOM     11  C   UNL     1     113.573 125.477 137.832  0.00  0.00    +0.000 A 
ATOM     12  C   UNL     1     110.805 125.254 136.672  0.00  0.00    +0.000 A 
ATOM     13  C   UNL     1     112.178 124.954 136.193  0.00  0.00    +0.000 A 
ATOM     14  C   UNL     1     111.330 124.970 136.054  0.00  0.00    +0.000 A 
ATOM     15  C   UNL     1     114.385 125.468 137.980  0.00  0.00    +0.000 C 
ENDROOT
BRANCH   6  18
ATOM     16  O   UNL     1     109.135 128.037 139.726  0.00  0.00    +0.000 OA
ATOM     17  O   UNL     1     109.669 125.693 141.273  0.00  0.00    +0.000 OA
ATOM     18  C   UNL     1     110.420 126.319 139.322  0.00  0.00    +0.000 A 
ATOM     19  C   UNL     1     110.299 125.870 140.002  0.00  0.00    +0.000 A 
ATOM     20  C   UNL     1     110.032 127.041 139.230  0.00  0.00    +0.000 A 
ATOM     21  C   UNL     1     109.523 127.315 139.818  0.00  0.00    +0.000 A 
ATOM     22  C   UNL     1     109.790 126.142 140.592  0.00  0.00    +0.000 A 
ATOM     23  C   UNL     1     109.402 126.864 140.500  0.00  0.00    +0.000 A 
BRANCH  23  24
ATOM     24  O   UNL     1     108.893 127.138 141.089  0.00  0.00    +0.000 OA
BRANCH  24  25
ATOM     25  S   UNL     1     109.201 127.465 141.781  0.00  0.00    +0.000 S 
ATOM     26  O   UNL     1     109.509 127.792 142.472  0.00  0.00    +0.000 OA
ATOM     27  O   UNL     1     108.886 126.839 142.217  0.00  0.00    +0.000 OA
ATOM     28  O   UNL     1     109.516 128.090 141.344  0.00  0.00    +0.000 OA
ENDBRANCH  24  25
ENDBRANCH  23  24
ENDBRANCH   6  18
BRANCH   4  29
ATOM     29  O   UNL     1     112.048 126.288 139.588  0.00  0.00    +0.000 OA
BRANCH  29  38
ATOM     30  O   UNL     1     112.396 127.549 139.013  0.00  0.00    +0.000 OA
ATOM     31  O   UNL     1     113.635 129.176 139.779  0.00  0.00    +0.000 OA
ATOM     32  O   UNL     1     113.731 128.097 141.024  0.00  0.00    +0.000 OA
ATOM     33  O   UNL     1     112.938 126.654 140.929  0.00  0.00    +0.000 OA
ATOM     34  C   UNL     1     112.792 128.271 139.061  0.00  0.00    +0.000 C 
ATOM     35  C   UNL     1     113.238 128.454 139.731  0.00  0.00    +0.000 C 
ATOM     36  C   UNL     1     113.286 127.914 140.353  0.00  0.00    +0.000 C 
ATOM     37  C   UNL     1     112.889 127.193 140.306  0.00  0.00    +0.000 C 
ATOM     38  C   UNL     1     112.445 127.010 139.636  0.00  0.00    +0.000 C 
BRANCH  34  39
ATOM     39  C   UNL     1     112.744 128.810 138.438  0.00  0.00    +0.000 C 
BRANCH  39  40
ATOM     40  O   UNL     1     112.019 129.149 138.241  0.00  0.00    +0.000 OA
BRANCH  40  46
ATOM     41  O   UNL     1     112.194 128.917 136.842  0.00  0.00    +0.000 OA
ATOM     42  O   UNL     1     111.023 130.421 137.904  0.00  0.00    +0.000 OA
ATOM     43  O   UNL     1     110.701 130.825 136.337  0.00  0.00    +0.000 OA
ATOM     44  O   UNL     1     111.374 129.956 135.106  0.00  0.00    +0.000 OA
ATOM     45  C   UNL     1     111.360 129.987 137.288  0.00  0.00    +0.000 C 
ATOM     46  C   UNL     1     111.858 129.351 137.457  0.00  0.00    +0.000 C 
ATOM     47  C   UNL     1     111.199 130.189 136.505  0.00  0.00    +0.000 C 
ATOM     48  C   UNL     1     111.536 129.754 135.890  0.00  0.00    +0.000 C 
ATOM     49  C   UNL     1     112.034 129.118 136.059  0.00  0.00    +0.000 C 
ATOM     50  C   UNL     1     112.370 128.684 135.443  0.00  0.00    +0.000 C 
ENDBRANCH  40  46
ENDBRANCH  39  40
ENDBRANCH  34  39
ENDBRANCH  29  38
ENDBRANCH   4  29
TORSDOF 8
ENDMDL
MODEL 10
REMARK VINA RESULT:     -10.3      1.572      3.309
REMARK  Name = 134159946
REMARK  8 active torsions:
REMARK  status: ('A' for Active; 'I' for Inactive)
REMARK    1  A    between atoms: S_1  and  O_15
REMARK    2  A    between atoms: O_3  and  C_26
REMARK    3  A    between atoms: O_3  and  C_30
REMARK    4  A    between atoms: O_6  and  C_27
REMARK    5  A    between atoms: O_6  and  C_33
REMARK    6  A    between atoms: O_15  and  C_50
REMARK    7  A    between atoms: C_21  and  C_30
REMARK    8  A    between atoms: C_35  and  C_40
REMARK                            x       y       z     vdW  Elec       q    Type
REMARK                         _______ _______ _______ _____ _____    ______ ____
ROOT
ATOM      1  O   UNL     1     110.343 127.488 136.007  0.00  0.00    +0.000 OA
ATOM      2  O   UNL     1     113.074 126.660 136.327  0.00  0.00    +0.000 OA
ATOM      3  O   UNL     1     110.979 124.646 135.998  0.00  0.00    +0.000 OA
ATOM      4  C   UNL     1     111.377 128.460 136.169  0.00  0.00    +0.000 A 
ATOM      5  C   UNL     1     111.937 127.856 136.221  0.00  0.00    +0.000 A 
ATOM      6  C   UNL     1     110.580 128.276 136.062  0.00  0.00    +0.000 A 
ATOM      7  C   UNL     1     111.699 127.067 136.166  0.00  0.00    +0.000 A 
ATOM      8  C   UNL     1     110.902 126.883 136.059  0.00  0.00    +0.000 A 
ATOM      9  C   UNL     1     112.727 128.039 136.327  0.00  0.00    +0.000 A 
ATOM     10  C   UNL     1     112.291 126.448 136.221  0.00  0.00    +0.000 A 
ATOM     11  C   UNL     1     113.289 127.448 136.379  0.00  0.00    +0.000 A 
ATOM     12  C   UNL     1     110.641 126.067 136.000  0.00  0.00    +0.000 A 
ATOM     13  C   UNL     1     112.049 125.624 136.164  0.00  0.00    +0.000 A 
ATOM     14  C   UNL     1     111.219 125.433 136.053  0.00  0.00    +0.000 A 
ATOM     15  C   UNL     1     114.083 127.647 136.486  0.00  0.00    +0.000 C 
ENDROOT
BRANCH   6  18
ATOM     16  O   UNL     1     109.403 130.439 134.612  0.00  0.00    +0.000 OA
ATOM     17  O   UNL     1     108.405 129.741 137.198  0.00  0.00    +0.000 OA
ATOM     18  C   UNL     1     110.021 128.881 136.010  0.00  0.00    +0.000 A 
ATOM     19  C   UNL     1     109.492 129.009 136.630  0.00  0.00    +0.000 A 
ATOM     20  C   UNL     1     109.991 129.358 135.338  0.00  0.00    +0.000 A 
ATOM     21  C   UNL     1     109.433 129.962 135.285  0.00  0.00    +0.000 A 
ATOM     22  C   UNL     1     108.933 129.613 136.578  0.00  0.00    +0.000 A 
ATOM     23  C   UNL     1     108.904 130.090 135.906  0.00  0.00    +0.000 A 
BRANCH  23  24
ATOM     24  O   UNL     1     108.345 130.695 135.853  0.00  0.00    +0.000 OA
BRANCH  24  25
ATOM     25  S   UNL     1     108.464 131.403 136.262  0.00  0.00    +0.000 S 
ATOM     26  O   UNL     1     108.583 132.109 136.670  0.00  0.00    +0.000 OA
ATOM     27  O   UNL     1     109.084 131.592 135.752  0.00  0.00    +0.000 OA
ATOM     28  O   UNL     1     107.844 131.212 136.771  0.00  0.00    +0.000 OA
ENDBRANCH  24  25
ENDBRANCH  23  24
ENDBRANCH   6  18
BRANCH   4  29
ATOM     29  O   UNL     1     111.615 129.248 136.224  0.00  0.00    +0.000 OA
BRANCH  29  38
ATOM     30  O   UNL     1     111.594 129.187 137.651  0.00  0.00    +0.000 OA
ATOM     31  O   UNL     1     112.455 130.518 139.152  0.00  0.00    +0.000 OA
ATOM     32  O   UNL     1     112.918 131.275 137.761  0.00  0.00    +0.000 OA
ATOM     33  O   UNL     1     112.498 130.641 136.297  0.00  0.00    +0.000 OA
ATOM     34  C   UNL     1     111.804 129.504 138.383  0.00  0.00    +0.000 C 
ATOM     35  C   UNL     1     112.245 130.201 138.420  0.00  0.00    +0.000 C 
ATOM     36  C   UNL     1     112.476 130.579 137.724  0.00  0.00    +0.000 C 
ATOM     37  C   UNL     1     112.266 130.261 136.992  0.00  0.00    +0.000 C 
ATOM     38  C   UNL     1     111.825 129.566 136.956  0.00  0.00    +0.000 C 
BRANCH  34  39
ATOM     39  C   UNL     1     111.573 129.126 139.079  0.00  0.00    +0.000 C 
BRANCH  39  40
ATOM     40  O   UNL     1     111.835 128.360 139.240  0.00  0.00    +0.000 OA
BRANCH  40  46
ATOM     41  O   UNL     1     110.846 128.225 140.263  0.00  0.00    +0.000 OA
ATOM     42  O   UNL     1     112.534 126.948 139.728  0.00  0.00    +0.000 OA
ATOM     43  O   UNL     1     111.896 126.106 140.996  0.00  0.00    +0.000 OA
ATOM     44  O   UNL     1     110.558 126.677 141.775  0.00  0.00    +0.000 OA
ATOM     45  C   UNL     1     111.865 127.234 140.118  0.00  0.00    +0.000 C 
ATOM     46  C   UNL     1     111.515 127.940 139.874  0.00  0.00    +0.000 C 
ATOM     47  C   UNL     1     111.546 126.812 140.751  0.00  0.00    +0.000 C 
ATOM     48  C   UNL     1     110.877 127.098 141.140  0.00  0.00    +0.000 C 
ATOM     49  C   UNL     1     110.527 127.804 140.896  0.00  0.00    +0.000 C 
ATOM     50  C   UNL     1     109.858 128.089 141.286  0.00  0.00    +0.000 C 
ENDBRANCH  40  46
ENDBRANCH  39  40
ENDBRANCH  34  39
ENDBRANCH  29  38
ENDBRANCH   4  29
TORSDOF 8
ENDMDL
