MODEL 1
REMARK VINA RESULT:      -9.6      0.000      0.000
REMARK  Name = 42608017
REMARK  4 active torsions:
REMARK  status: ('A' for Active; 'I' for Inactive)
REMARK    1  A    between atoms: O_2  and  C_16
REMARK    2  A    between atoms: O_2  and  C_19
REMARK    3  A    between atoms: C_15  and  C_17
REMARK    4  A    between atoms: C_18  and  C_20
REMARK                            x       y       z     vdW  Elec       q    Type
REMARK                         _______ _______ _______ _____ _____    ______ ____
ROOT
ATOM      1  O   UNL     1     110.248 126.238 137.207  0.00  0.00    +0.000 OA
ATOM      2  C   UNL     1     109.793 127.438 135.442  0.00  0.00    +0.000 A 
ATOM      3  C   UNL     1     110.892 126.310 135.934  0.00  0.00    +0.000 A 
ATOM      4  C   UNL     1     109.746 127.120 136.201  0.00  0.00    +0.000 A 
ATOM      5  C   UNL     1     110.391 127.192 134.928  0.00  0.00    +0.000 A 
ATOM      6  C   UNL     1     110.296 126.556 136.447  0.00  0.00    +0.000 A 
ATOM      7  C   UNL     1     110.940 126.628 135.174  0.00  0.00    +0.000 A 
ENDROOT
BRANCH   3  12
ATOM      8  O   UNL     1     112.170 125.985 136.485  0.00  0.00    +0.000 OA
ATOM      9  O   UNL     1     111.634 123.576 136.307  0.00  0.00    +0.000 OA
ATOM     10  O   UNL     1     112.918 123.220 136.862  0.00  0.00    +0.000 OA
ATOM     11  O   UNL     1     114.778 125.342 137.610  0.00  0.00    +0.000 OA
ATOM     12  C   UNL     1     111.442 125.746 136.180  0.00  0.00    +0.000 C 
ATOM     13  C   UNL     1     111.264 124.943 136.120  0.00  0.00    +0.000 C 
ATOM     14  C   UNL     1     111.813 124.379 136.366  0.00  0.00    +0.000 C 
ATOM     15  C   UNL     1     112.541 124.618 136.672  0.00  0.00    +0.000 A 
ATOM     16  C   UNL     1     112.720 125.421 136.731  0.00  0.00    +0.000 A 
ATOM     17  C   UNL     1     113.105 124.021 136.925  0.00  0.00    +0.000 A 
ATOM     18  C   UNL     1     113.475 125.683 137.048  0.00  0.00    +0.000 A 
ATOM     19  C   UNL     1     114.051 125.100 137.305  0.00  0.00    +0.000 A 
ATOM     20  C   UNL     1     113.865 124.264 137.244  0.00  0.00    +0.000 A 
ENDBRANCH   3  12
BRANCH   2  21
ATOM     21  O   UNL     1     109.244 128.003 135.195  0.00  0.00    +0.000 OA
BRANCH  21  30
ATOM     22  O   UNL     1     110.013 129.174 135.477  0.00  0.00    +0.000 OA
ATOM     23  O   UNL     1     107.985 130.298 136.342  0.00  0.00    +0.000 OA
ATOM     24  O   UNL     1     109.430 131.093 136.335  0.00  0.00    +0.000 OA
ATOM     25  O   UNL     1     107.892 128.752 135.773  0.00  0.00    +0.000 OA
ATOM     26  C   UNL     1     108.661 129.923 136.054  0.00  0.00    +0.000 C 
ATOM     27  C   UNL     1     109.384 130.321 136.050  0.00  0.00    +0.000 C 
ATOM     28  C   UNL     1     108.615 129.150 135.769  0.00  0.00    +0.000 C 
ATOM     29  C   UNL     1     110.060 129.946 135.761  0.00  0.00    +0.000 C 
ATOM     30  C   UNL     1     109.291 128.775 135.480  0.00  0.00    +0.000 C 
BRANCH  29  32
ATOM     31  O   UNL     1     111.406 130.073 136.225  0.00  0.00    +0.000 OA
ATOM     32  C   UNL     1     110.782 130.344 135.758  0.00  0.00    +0.000 C 
ENDBRANCH  29  32
ENDBRANCH  21  30
ENDBRANCH   2  21
TORSDOF 4
ENDMDL
MODEL 2
REMARK VINA RESULT:      -9.6      6.751      8.430
REMARK  Name = 42608017
REMARK  4 active torsions:
REMARK  status: ('A' for Active; 'I' for Inactive)
REMARK    1  A    between atoms: O_2  and  C_16
REMARK    2  A    between atoms: O_2  and  C_19
REMARK    3  A    between atoms: C_15  and  C_17
REMARK    4  A    between atoms: C_18  and  C_20
REMARK                            x       y       z     vdW  Elec       q    Type
REMARK                         _______ _______ _______ _____ _____    ______ ____
ROOT
ATOM      1  O   UNL     1     104.414 125.369 138.936  0.00  0.00    +0.000 OA
ATOM      2  C   UNL     1     105.121 124.505 140.812  0.00  0.00    +0.000 A 
ATOM      3  C   UNL     1     104.382 124.024 139.418  0.00  0.00    +0.000 A 
ATOM      4  C   UNL     1     104.952 125.057 140.222  0.00  0.00    +0.000 A 
ATOM      5  C   UNL     1     104.920 123.712 140.704  0.00  0.00    +0.000 A 
ATOM      6  C   UNL     1     104.582 124.816 139.525  0.00  0.00    +0.000 A 
ATOM      7  C   UNL     1     104.550 123.471 140.007  0.00  0.00    +0.000 A 
ENDROOT
BRANCH   3  12
ATOM      8  O   UNL     1     104.465 123.601 138.055  0.00  0.00    +0.000 OA
ATOM      9  O   UNL     1     101.997 123.426 137.960  0.00  0.00    +0.000 OA
ATOM     10  O   UNL     1     102.053 122.997 136.583  0.00  0.00    +0.000 OA
ATOM     11  O   UNL     1     104.653 122.740 135.279  0.00  0.00    +0.000 OA
ATOM     12  C   UNL     1     104.012 123.783 138.720  0.00  0.00    +0.000 C 
ATOM     13  C   UNL     1     103.190 123.725 138.688  0.00  0.00    +0.000 C 
ATOM     14  C   UNL     1     102.820 123.484 137.991  0.00  0.00    +0.000 C 
ATOM     15  C   UNL     1     103.272 123.302 137.326  0.00  0.00    +0.000 A 
ATOM     16  C   UNL     1     104.095 123.360 137.357  0.00  0.00    +0.000 A 
ATOM     17  C   UNL     1     102.875 123.052 136.605  0.00  0.00    +0.000 A 
ATOM     18  C   UNL     1     104.577 123.173 136.671  0.00  0.00    +0.000 A 
ATOM     19  C   UNL     1     104.198 122.922 135.943  0.00  0.00    +0.000 A 
ATOM     20  C   UNL     1     103.341 122.861 135.909  0.00  0.00    +0.000 A 
ENDBRANCH   3  12
BRANCH   2  21
ATOM     21  O   UNL     1     105.491 124.746 141.509  0.00  0.00    +0.000 OA
BRANCH  21  30
ATOM     22  O   UNL     1     106.869 124.654 141.143  0.00  0.00    +0.000 OA
ATOM     23  O   UNL     1     107.268 126.910 142.080  0.00  0.00    +0.000 OA
ATOM     24  O   UNL     1     108.513 126.066 141.402  0.00  0.00    +0.000 OA
ATOM     25  O   UNL     1     105.757 126.250 142.133  0.00  0.00    +0.000 OA
ATOM     26  C   UNL     1     107.135 126.158 141.767  0.00  0.00    +0.000 C 
ATOM     27  C   UNL     1     107.757 125.736 141.429  0.00  0.00    +0.000 C 
ATOM     28  C   UNL     1     106.379 125.828 141.794  0.00  0.00    +0.000 C 
ATOM     29  C   UNL     1     107.624 124.984 141.117  0.00  0.00    +0.000 C 
ATOM     30  C   UNL     1     106.246 125.076 141.482  0.00  0.00    +0.000 C 
BRANCH  29  32
ATOM     31  O   UNL     1     108.454 123.821 141.076  0.00  0.00    +0.000 OA
ATOM     32  C   UNL     1     108.247 124.562 140.778  0.00  0.00    +0.000 C 
ENDBRANCH  29  32
ENDBRANCH  21  30
ENDBRANCH   2  21
TORSDOF 4
ENDMDL
MODEL 3
REMARK VINA RESULT:      -9.5      9.801     10.600
REMARK  Name = 42608017
REMARK  4 active torsions:
REMARK  status: ('A' for Active; 'I' for Inactive)
REMARK    1  A    between atoms: O_2  and  C_16
REMARK    2  A    between atoms: O_2  and  C_19
REMARK    3  A    between atoms: C_15  and  C_17
REMARK    4  A    between atoms: C_18  and  C_20
REMARK                            x       y       z     vdW  Elec       q    Type
REMARK                         _______ _______ _______ _____ _____    ______ ____
ROOT
ATOM      1  O   UNL     1     106.335 124.480 145.147  0.00  0.00    +0.000 OA
ATOM      2  C   UNL     1     105.609 126.272 144.136  0.00  0.00    +0.000 A 
ATOM      3  C   UNL     1     106.115 125.805 145.635  0.00  0.00    +0.000 A 
ATOM      4  C   UNL     1     105.845 125.493 144.267  0.00  0.00    +0.000 A 
ATOM      5  C   UNL     1     105.626 126.818 144.755  0.00  0.00    +0.000 A 
ATOM      6  C   UNL     1     106.099 125.259 145.017  0.00  0.00    +0.000 A 
ATOM      7  C   UNL     1     105.879 126.585 145.504  0.00  0.00    +0.000 A 
ENDROOT
BRANCH   3  12
ATOM      8  O   UNL     1     105.819 125.318 146.946  0.00  0.00    +0.000 OA
ATOM      9  O   UNL     1     108.228 125.376 147.511  0.00  0.00    +0.000 OA
ATOM     10  O   UNL     1     107.956 124.885 148.841  0.00  0.00    +0.000 OA
ATOM     11  O   UNL     1     105.196 124.326 149.612  0.00  0.00    +0.000 OA
ATOM     12  C   UNL     1     106.369 125.571 146.384  0.00  0.00    +0.000 C 
ATOM     13  C   UNL     1     107.171 125.590 146.573  0.00  0.00    +0.000 C 
ATOM     14  C   UNL     1     107.425 125.356 147.323  0.00  0.00    +0.000 C 
ATOM     15  C   UNL     1     106.875 125.104 147.883  0.00  0.00    +0.000 A 
ATOM     16  C   UNL     1     106.072 125.084 147.695  0.00  0.00    +0.000 A 
ATOM     17  C   UNL     1     107.152 124.863 148.661  0.00  0.00    +0.000 A 
ATOM     18  C   UNL     1     105.490 124.823 148.271  0.00  0.00    +0.000 A 
ATOM     19  C   UNL     1     105.748 124.578 149.053  0.00  0.00    +0.000 A 
ATOM     20  C   UNL     1     106.584 124.598 149.250  0.00  0.00    +0.000 A 
ENDBRANCH   3  12
BRANCH   2  21
ATOM     21  O   UNL     1     105.355 126.506 143.386  0.00  0.00    +0.000 OA
BRANCH  21  30
ATOM     22  O   UNL     1     106.651 126.841 142.884  0.00  0.00    +0.000 OA
ATOM     23  O   UNL     1     105.665 128.697 141.577  0.00  0.00    +0.000 OA
ATOM     24  O   UNL     1     107.288 128.412 141.511  0.00  0.00    +0.000 OA
ATOM     25  O   UNL     1     104.698 127.743 142.514  0.00  0.00    +0.000 OA
ATOM     26  C   UNL     1     105.994 128.078 142.013  0.00  0.00    +0.000 C 
ATOM     27  C   UNL     1     106.806 127.935 141.980  0.00  0.00    +0.000 C 
ATOM     28  C   UNL     1     105.510 127.601 142.482  0.00  0.00    +0.000 C 
ATOM     29  C   UNL     1     107.134 127.317 142.416  0.00  0.00    +0.000 C 
ATOM     30  C   UNL     1     105.839 126.982 142.918  0.00  0.00    +0.000 C 
BRANCH  29  32
ATOM     31  O   UNL     1     108.226 126.417 142.219  0.00  0.00    +0.000 OA
ATOM     32  C   UNL     1     107.946 127.175 142.383  0.00  0.00    +0.000 C 
ENDBRANCH  29  32
ENDBRANCH  21  30
ENDBRANCH   2  21
TORSDOF 4
ENDMDL
MODEL 4
REMARK VINA RESULT:      -9.4      4.164      5.205
REMARK  Name = 42608017
REMARK  4 active torsions:
REMARK  status: ('A' for Active; 'I' for Inactive)
REMARK    1  A    between atoms: O_2  and  C_16
REMARK    2  A    between atoms: O_2  and  C_19
REMARK    3  A    between atoms: C_15  and  C_17
REMARK    4  A    between atoms: C_18  and  C_20
REMARK                            x       y       z     vdW  Elec       q    Type
REMARK                         _______ _______ _______ _____ _____    ______ ____
ROOT
ATOM      1  O   UNL     1     112.877 128.048 138.435  0.00  0.00    +0.000 OA
ATOM      2  C   UNL     1     113.754 128.240 140.425  0.00  0.00    +0.000 A 
ATOM      3  C   UNL     1     113.310 127.054 139.366  0.00  0.00    +0.000 A 
ATOM      4  C   UNL     1     113.426 128.439 139.695  0.00  0.00    +0.000 A 
ATOM      5  C   UNL     1     113.859 127.446 140.626  0.00  0.00    +0.000 A 
ATOM      6  C   UNL     1     113.204 127.847 139.165  0.00  0.00    +0.000 A 
ATOM      7  C   UNL     1     113.638 126.853 140.096  0.00  0.00    +0.000 A 
ENDROOT
BRANCH   3  12
ATOM      8  O   UNL     1     113.626 126.189 138.273  0.00  0.00    +0.000 OA
ATOM      9  O   UNL     1     111.348 125.227 138.376  0.00  0.00    +0.000 OA
ATOM     10  O   UNL     1     111.641 124.343 137.274  0.00  0.00    +0.000 OA
ATOM     11  O   UNL     1     114.288 124.434 136.045  0.00  0.00    +0.000 OA
ATOM     12  C   UNL     1     113.088 126.461 138.837  0.00  0.00    +0.000 C 
ATOM     13  C   UNL     1     112.329 126.140 138.871  0.00  0.00    +0.000 C 
ATOM     14  C   UNL     1     112.107 125.548 138.341  0.00  0.00    +0.000 C 
ATOM     15  C   UNL     1     112.645 125.276 137.778  0.00  0.00    +0.000 A 
ATOM     16  C   UNL     1     113.404 125.596 137.744  0.00  0.00    +0.000 A 
ATOM     17  C   UNL     1     112.402 124.658 137.232  0.00  0.00    +0.000 A 
ATOM     18  C   UNL     1     113.974 125.322 137.161  0.00  0.00    +0.000 A 
ATOM     19  C   UNL     1     113.748 124.705 136.608  0.00  0.00    +0.000 A 
ATOM     20  C   UNL     1     112.957 124.370 136.643  0.00  0.00    +0.000 A 
ENDBRANCH   3  12
BRANCH   2  21
ATOM     21  O   UNL     1     113.975 128.832 140.954  0.00  0.00    +0.000 OA
BRANCH  21  30
ATOM     22  O   UNL     1     112.780 128.844 141.737  0.00  0.00    +0.000 OA
ATOM     23  O   UNL     1     112.906 131.311 141.892  0.00  0.00    +0.000 OA
ATOM     24  O   UNL     1     111.670 130.501 142.623  0.00  0.00    +0.000 OA
ATOM     25  O   UNL     1     114.059 130.477 141.057  0.00  0.00    +0.000 OA
ATOM     26  C   UNL     1     112.864 130.489 141.840  0.00  0.00    +0.000 C 
ATOM     27  C   UNL     1     112.246 130.083 142.206  0.00  0.00    +0.000 C 
ATOM     28  C   UNL     1     113.441 130.071 141.423  0.00  0.00    +0.000 C 
ATOM     29  C   UNL     1     112.204 129.261 142.154  0.00  0.00    +0.000 C 
ATOM     30  C   UNL     1     113.399 129.249 141.371  0.00  0.00    +0.000 C 
BRANCH  29  32
ATOM     31  O   UNL     1     111.748 128.259 143.066  0.00  0.00    +0.000 OA
ATOM     32  C   UNL     1     111.586 128.856 142.520  0.00  0.00    +0.000 C 
ENDBRANCH  29  32
ENDBRANCH  21  30
ENDBRANCH   2  21
TORSDOF 4
ENDMDL
MODEL 5
REMARK VINA RESULT:      -9.4      1.239      1.907
REMARK  Name = 42608017
REMARK  4 active torsions:
REMARK  status: ('A' for Active; 'I' for Inactive)
REMARK    1  A    between atoms: O_2  and  C_16
REMARK    2  A    between atoms: O_2  and  C_19
REMARK    3  A    between atoms: C_15  and  C_17
REMARK    4  A    between atoms: C_18  and  C_20
REMARK                            x       y       z     vdW  Elec       q    Type
REMARK                         _______ _______ _______ _____ _____    ______ ____
ROOT
ATOM      1  O   UNL     1     108.836 127.397 136.648  0.00  0.00    +0.000 OA
ATOM      2  C   UNL     1     109.088 129.198 135.440  0.00  0.00    +0.000 A 
ATOM      3  C   UNL     1     109.867 127.774 135.734  0.00  0.00    +0.000 A 
ATOM      4  C   UNL     1     108.768 128.654 135.971  0.00  0.00    +0.000 A 
ATOM      5  C   UNL     1     109.800 129.030 135.056  0.00  0.00    +0.000 A 
ATOM      6  C   UNL     1     109.157 127.941 136.117  0.00  0.00    +0.000 A 
ATOM      7  C   UNL     1     110.189 128.318 135.203  0.00  0.00    +0.000 A 
ENDROOT
BRANCH   3  12
ATOM      8  O   UNL     1     110.788 127.003 136.510  0.00  0.00    +0.000 OA
ATOM      9  O   UNL     1     110.364 125.041 135.062  0.00  0.00    +0.000 OA
ATOM     10  O   UNL     1     111.289 124.240 135.829  0.00  0.00    +0.000 OA
ATOM     11  O   UNL     1     112.667 125.449 138.102  0.00  0.00    +0.000 OA
ATOM     12  C   UNL     1     110.257 127.061 135.880  0.00  0.00    +0.000 C 
ATOM     13  C   UNL     1     110.116 126.407 135.398  0.00  0.00    +0.000 C 
ATOM     14  C   UNL     1     110.506 125.695 135.545  0.00  0.00    +0.000 C 
ATOM     15  C   UNL     1     111.036 125.637 136.173  0.00  0.00    +0.000 A 
ATOM     16  C   UNL     1     111.178 126.291 136.656  0.00  0.00    +0.000 A 
ATOM     17  C   UNL     1     111.436 124.889 136.316  0.00  0.00    +0.000 A 
ATOM     18  C   UNL     1     111.728 126.243 137.315  0.00  0.00    +0.000 A 
ATOM     19  C   UNL     1     112.137 125.504 137.472  0.00  0.00    +0.000 A 
ATOM     20  C   UNL     1     111.990 124.822 136.970  0.00  0.00    +0.000 A 
ENDBRANCH   3  12
BRANCH   2  21
ATOM     21  O   UNL     1     108.699 129.911 135.294  0.00  0.00    +0.000 OA
BRANCH  21  30
ATOM     22  O   UNL     1     109.454 130.747 136.173  0.00  0.00    +0.000 OA
ATOM     23  O   UNL     1     107.373 131.891 136.871  0.00  0.00    +0.000 OA
ATOM     24  O   UNL     1     108.821 132.345 137.517  0.00  0.00    +0.000 OA
ATOM     25  O   UNL     1     107.312 130.674 135.759  0.00  0.00    +0.000 OA
ATOM     26  C   UNL     1     108.067 131.510 136.638  0.00  0.00    +0.000 C 
ATOM     27  C   UNL     1     108.791 131.737 136.961  0.00  0.00    +0.000 C 
ATOM     28  C   UNL     1     108.036 130.900 136.082  0.00  0.00    +0.000 C 
ATOM     29  C   UNL     1     109.484 131.355 136.728  0.00  0.00    +0.000 C 
ATOM     30  C   UNL     1     108.730 130.519 135.849  0.00  0.00    +0.000 C 
BRANCH  29  32
ATOM     31  O   UNL     1     110.844 131.761 136.557  0.00  0.00    +0.000 OA
ATOM     32  C   UNL     1     110.208 131.582 137.052  0.00  0.00    +0.000 C 
ENDBRANCH  29  32
ENDBRANCH  21  30
ENDBRANCH   2  21
TORSDOF 4
ENDMDL
MODEL 6
REMARK VINA RESULT:      -9.4      1.686      2.947
REMARK  Name = 42608017
REMARK  4 active torsions:
REMARK  status: ('A' for Active; 'I' for Inactive)
REMARK    1  A    between atoms: O_2  and  C_16
REMARK    2  A    between atoms: O_2  and  C_19
REMARK    3  A    between atoms: C_15  and  C_17
REMARK    4  A    between atoms: C_18  and  C_20
REMARK                            x       y       z     vdW  Elec       q    Type
REMARK                         _______ _______ _______ _____ _____    ______ ____
ROOT
ATOM      1  O   UNL     1     112.862 127.651 138.234  0.00  0.00    +0.000 OA
ATOM      2  C   UNL     1     113.137 129.259 136.784  0.00  0.00    +0.000 A 
ATOM      3  C   UNL     1     113.257 127.615 136.861  0.00  0.00    +0.000 A 
ATOM      4  C   UNL     1     112.970 128.865 137.489  0.00  0.00    +0.000 A 
ATOM      5  C   UNL     1     113.364 128.830 136.116  0.00  0.00    +0.000 A 
ATOM      6  C   UNL     1     113.030 128.043 137.528  0.00  0.00    +0.000 A 
ATOM      7  C   UNL     1     113.424 128.008 136.154  0.00  0.00    +0.000 A 
ENDROOT
BRANCH   3  12
ATOM      8  O   UNL     1     112.689 126.321 136.643  0.00  0.00    +0.000 OA
ATOM      9  O   UNL     1     114.750 125.271 137.525  0.00  0.00    +0.000 OA
ATOM     10  O   UNL     1     114.201 123.952 137.316  0.00  0.00    +0.000 OA
ATOM     11  O   UNL     1     111.518 123.693 136.193  0.00  0.00    +0.000 OA
ATOM     12  C   UNL     1     113.316 126.793 136.899  0.00  0.00    +0.000 C 
ATOM     13  C   UNL     1     114.003 126.443 137.193  0.00  0.00    +0.000 C 
ATOM     14  C   UNL     1     114.063 125.621 137.231  0.00  0.00    +0.000 C 
ATOM     15  C   UNL     1     113.436 125.150 136.975  0.00  0.00    +0.000 A 
ATOM     16  C   UNL     1     112.749 125.499 136.681  0.00  0.00    +0.000 A 
ATOM     17  C   UNL     1     113.511 124.294 137.020  0.00  0.00    +0.000 A 
ATOM     18  C   UNL     1     112.089 125.019 136.412  0.00  0.00    +0.000 A 
ATOM     19  C   UNL     1     112.146 124.163 136.450  0.00  0.00    +0.000 A 
ATOM     20  C   UNL     1     112.861 123.798 136.756  0.00  0.00    +0.000 A 
ENDBRANCH   3  12
BRANCH   2  21
ATOM     21  O   UNL     1     113.077 130.081 136.746  0.00  0.00    +0.000 OA
BRANCH  21  30
ATOM     22  O   UNL     1     111.731 130.154 136.270  0.00  0.00    +0.000 OA
ATOM     23  O   UNL     1     111.315 132.097 137.746  0.00  0.00    +0.000 OA
ATOM     24  O   UNL     1     110.109 131.522 136.779  0.00  0.00    +0.000 OA
ATOM     25  O   UNL     1     112.799 131.376 137.730  0.00  0.00    +0.000 OA
ATOM     26  C   UNL     1     111.454 131.449 137.254  0.00  0.00    +0.000 C 
ATOM     27  C   UNL     1     110.851 131.161 136.771  0.00  0.00    +0.000 C 
ATOM     28  C   UNL     1     112.196 131.089 137.246  0.00  0.00    +0.000 C 
ATOM     29  C   UNL     1     110.989 130.514 136.279  0.00  0.00    +0.000 C 
ATOM     30  C   UNL     1     112.335 130.441 136.754  0.00  0.00    +0.000 C 
BRANCH  29  32
ATOM     31  O   UNL     1     110.529 130.090 134.994  0.00  0.00    +0.000 OA
ATOM     32  C   UNL     1     110.386 130.227 135.795  0.00  0.00    +0.000 C 
ENDBRANCH  29  32
ENDBRANCH  21  30
ENDBRANCH   2  21
TORSDOF 4
ENDMDL
MODEL 7
REMARK VINA RESULT:      -9.4      0.757      5.517
REMARK  Name = 42608017
REMARK  4 active torsions:
REMARK  status: ('A' for Active; 'I' for Inactive)
REMARK    1  A    between atoms: O_2  and  C_16
REMARK    2  A    between atoms: O_2  and  C_19
REMARK    3  A    between atoms: C_15  and  C_17
REMARK    4  A    between atoms: C_18  and  C_20
REMARK                            x       y       z     vdW  Elec       q    Type
REMARK                         _______ _______ _______ _____ _____    ______ ____
ROOT
ATOM      1  O   UNL     1     109.832 126.730 137.327  0.00  0.00    +0.000 OA
ATOM      2  C   UNL     1     110.930 125.470 135.923  0.00  0.00    +0.000 A 
ATOM      3  C   UNL     1     110.187 126.943 135.960  0.00  0.00    +0.000 A 
ATOM      4  C   UNL     1     110.566 125.732 136.616  0.00  0.00    +0.000 A 
ATOM      5  C   UNL     1     110.922 125.945 135.248  0.00  0.00    +0.000 A 
ATOM      6  C   UNL     1     110.195 126.468 136.634  0.00  0.00    +0.000 A 
ATOM      7  C   UNL     1     110.551 126.681 135.266  0.00  0.00    +0.000 A 
ENDROOT
BRANCH   3  12
ATOM      8  O   UNL     1     110.255 128.359 136.141  0.00  0.00    +0.000 OA
ATOM      9  O   UNL     1     107.824 128.530 135.706  0.00  0.00    +0.000 OA
ATOM     10  O   UNL     1     107.865 129.962 135.884  0.00  0.00    +0.000 OA
ATOM     11  O   UNL     1     110.412 131.243 136.513  0.00  0.00    +0.000 OA
ATOM     12  C   UNL     1     109.816 127.679 135.978  0.00  0.00    +0.000 C 
ATOM     13  C   UNL     1     109.006 127.737 135.833  0.00  0.00    +0.000 C 
ATOM     14  C   UNL     1     108.635 128.473 135.851  0.00  0.00    +0.000 C 
ATOM     15  C   UNL     1     109.073 129.152 136.014  0.00  0.00    +0.000 A 
ATOM     16  C   UNL     1     109.884 129.096 136.159  0.00  0.00    +0.000 A 
ATOM     17  C   UNL     1     108.675 129.914 136.030  0.00  0.00    +0.000 A 
ATOM     18  C   UNL     1     110.352 129.796 136.330  0.00  0.00    +0.000 A 
ATOM     19  C   UNL     1     109.971 130.565 136.350  0.00  0.00    +0.000 A 
ATOM     20  C   UNL     1     109.127 130.625 136.199  0.00  0.00    +0.000 A 
ENDBRANCH   3  12
BRANCH   2  21
ATOM     21  O   UNL     1     111.301 124.733 135.905  0.00  0.00    +0.000 OA
BRANCH  21  30
ATOM     22  O   UNL     1     112.613 125.232 136.175  0.00  0.00    +0.000 OA
ATOM     23  O   UNL     1     113.141 123.163 137.428  0.00  0.00    +0.000 OA
ATOM     24  O   UNL     1     114.276 124.351 137.280  0.00  0.00    +0.000 OA
ATOM     25  O   UNL     1     111.653 123.354 136.740  0.00  0.00    +0.000 OA
ATOM     26  C   UNL     1     112.965 123.853 137.010  0.00  0.00    +0.000 C 
ATOM     27  C   UNL     1     113.532 124.447 136.936  0.00  0.00    +0.000 C 
ATOM     28  C   UNL     1     112.221 123.949 136.666  0.00  0.00    +0.000 C 
ATOM     29  C   UNL     1     113.356 125.136 136.519  0.00  0.00    +0.000 C 
ATOM     30  C   UNL     1     112.045 124.638 136.249  0.00  0.00    +0.000 C 
BRANCH  29  32
ATOM     31  O   UNL     1     113.811 126.458 136.816  0.00  0.00    +0.000 OA
ATOM     32  C   UNL     1     113.924 125.730 136.445  0.00  0.00    +0.000 C 
ENDBRANCH  29  32
ENDBRANCH  21  30
ENDBRANCH   2  21
TORSDOF 4
ENDMDL
MODEL 8
REMARK VINA RESULT:      -9.2      7.621     10.707
REMARK  Name = 42608017
REMARK  4 active torsions:
REMARK  status: ('A' for Active; 'I' for Inactive)
REMARK    1  A    between atoms: O_2  and  C_16
REMARK    2  A    between atoms: O_2  and  C_19
REMARK    3  A    between atoms: C_15  and  C_17
REMARK    4  A    between atoms: C_18  and  C_20
REMARK                            x       y       z     vdW  Elec       q    Type
REMARK                         _______ _______ _______ _____ _____    ______ ____
ROOT
ATOM      1  O   UNL     1     103.416 129.457 140.584  0.00  0.00    +0.000 OA
ATOM      2  C   UNL     1     104.426 128.342 142.166  0.00  0.00    +0.000 A 
ATOM      3  C   UNL     1     103.644 129.780 141.957  0.00  0.00    +0.000 A 
ATOM      4  C   UNL     1     104.117 128.541 141.427  0.00  0.00    +0.000 A 
ATOM      5  C   UNL     1     104.345 128.864 142.800  0.00  0.00    +0.000 A 
ATOM      6  C   UNL     1     103.726 129.260 141.323  0.00  0.00    +0.000 A 
ATOM      7  C   UNL     1     103.954 129.583 142.696  0.00  0.00    +0.000 A 
ENDROOT
BRANCH   3  12
ATOM      8  O   UNL     1     103.678 131.172 141.632  0.00  0.00    +0.000 OA
ATOM      9  O   UNL     1     101.231 131.312 141.981  0.00  0.00    +0.000 OA
ATOM     10  O   UNL     1     101.237 132.718 141.657  0.00  0.00    +0.000 OA
ATOM     11  O   UNL     1     103.765 134.006 140.967  0.00  0.00    +0.000 OA
ATOM     12  C   UNL     1     103.253 130.499 141.853  0.00  0.00    +0.000 C 
ATOM     13  C   UNL     1     102.438 130.547 141.969  0.00  0.00    +0.000 C 
ATOM     14  C   UNL     1     102.047 131.266 141.865  0.00  0.00    +0.000 C 
ATOM     15  C   UNL     1     102.471 131.937 141.644  0.00  0.00    +0.000 A 
ATOM     16  C   UNL     1     103.287 131.891 141.528  0.00  0.00    +0.000 A 
ATOM     17  C   UNL     1     102.052 132.681 141.539  0.00  0.00    +0.000 A 
ATOM     18  C   UNL     1     103.740 132.584 141.298  0.00  0.00    +0.000 A 
ATOM     19  C   UNL     1     103.339 133.335 141.188  0.00  0.00    +0.000 A 
ATOM     20  C   UNL     1     102.489 133.384 141.309  0.00  0.00    +0.000 A 
ENDBRANCH   3  12
BRANCH   2  21
ATOM     21  O   UNL     1     104.817 127.624 142.270  0.00  0.00    +0.000 OA
BRANCH  21  30
ATOM     22  O   UNL     1     106.128 128.142 142.035  0.00  0.00    +0.000 OA
ATOM     23  O   UNL     1     107.059 126.526 143.662  0.00  0.00    +0.000 OA
ATOM     24  O   UNL     1     108.059 127.582 142.884  0.00  0.00    +0.000 OA
ATOM     25  O   UNL     1     105.438 126.546 143.354  0.00  0.00    +0.000 OA
ATOM     26  C   UNL     1     106.749 127.064 143.119  0.00  0.00    +0.000 C 
ATOM     27  C   UNL     1     107.248 127.593 142.730  0.00  0.00    +0.000 C 
ATOM     28  C   UNL     1     105.938 127.075 142.965  0.00  0.00    +0.000 C 
ATOM     29  C   UNL     1     106.938 128.132 142.188  0.00  0.00    +0.000 C 
ATOM     30  C   UNL     1     105.627 127.613 142.423  0.00  0.00    +0.000 C 
BRANCH  29  32
ATOM     31  O   UNL     1     107.372 128.768 140.984  0.00  0.00    +0.000 OA
ATOM     32  C   UNL     1     107.438 128.660 141.800  0.00  0.00    +0.000 C 
ENDBRANCH  29  32
ENDBRANCH  21  30
ENDBRANCH   2  21
TORSDOF 4
ENDMDL
MODEL 9
REMARK VINA RESULT:      -9.1      3.720      4.586
REMARK  Name = 42608017
REMARK  4 active torsions:
REMARK  status: ('A' for Active; 'I' for Inactive)
REMARK    1  A    between atoms: O_2  and  C_16
REMARK    2  A    between atoms: O_2  and  C_19
REMARK    3  A    between atoms: C_15  and  C_17
REMARK    4  A    between atoms: C_18  and  C_20
REMARK                            x       y       z     vdW  Elec       q    Type
REMARK                         _______ _______ _______ _____ _____    ______ ____
ROOT
ATOM      1  O   UNL     1     112.603 126.403 140.001  0.00  0.00    +0.000 OA
ATOM      2  C   UNL     1     112.166 128.501 139.587  0.00  0.00    +0.000 A 
ATOM      3  C   UNL     1     112.656 127.147 138.782  0.00  0.00    +0.000 A 
ATOM      4  C   UNL     1     112.262 127.791 139.995  0.00  0.00    +0.000 A 
ATOM      5  C   UNL     1     112.315 128.534 138.776  0.00  0.00    +0.000 A 
ATOM      6  C   UNL     1     112.507 127.113 139.592  0.00  0.00    +0.000 A 
ATOM      7  C   UNL     1     112.560 127.857 138.373  0.00  0.00    +0.000 A 
ENDROOT
BRANCH   3  12
ATOM      8  O   UNL     1     112.347 126.000 137.985  0.00  0.00    +0.000 OA
ATOM      9  O   UNL     1     114.742 125.377 137.958  0.00  0.00    +0.000 OA
ATOM     10  O   UNL     1     114.459 124.212 137.154  0.00  0.00    +0.000 OA
ATOM     11  O   UNL     1     111.700 123.670 136.364  0.00  0.00    +0.000 OA
ATOM     12  C   UNL     1     112.901 126.470 138.379  0.00  0.00    +0.000 C 
ATOM     13  C   UNL     1     113.699 126.261 138.369  0.00  0.00    +0.000 C 
ATOM     14  C   UNL     1     113.944 125.584 137.967  0.00  0.00    +0.000 C 
ATOM     15  C   UNL     1     113.391 125.116 137.574  0.00  0.00    +0.000 A 
ATOM     16  C   UNL     1     112.592 125.323 137.583  0.00  0.00    +0.000 A 
ATOM     17  C   UNL     1     113.659 124.412 137.158  0.00  0.00    +0.000 A 
ATOM     18  C   UNL     1     112.006 124.843 137.177  0.00  0.00    +0.000 A 
ATOM     19  C   UNL     1     112.256 124.137 136.756  0.00  0.00    +0.000 A 
ATOM     20  C   UNL     1     113.087 123.920 136.746  0.00  0.00    +0.000 A 
ENDBRANCH   3  12
BRANCH   2  21
ATOM     21  O   UNL     1     111.920 129.178 139.990  0.00  0.00    +0.000 OA
BRANCH  21  30
ATOM     22  O   UNL     1     113.193 129.826 140.047  0.00  0.00    +0.000 OA
ATOM     23  O   UNL     1     112.679 130.636 142.328  0.00  0.00    +0.000 OA
ATOM     24  O   UNL     1     114.122 131.013 141.624  0.00  0.00    +0.000 OA
ATOM     25  O   UNL     1     111.578 129.718 141.511  0.00  0.00    +0.000 OA
ATOM     26  C   UNL     1     112.850 130.366 141.568  0.00  0.00    +0.000 C 
ATOM     27  C   UNL     1     113.572 130.554 141.215  0.00  0.00    +0.000 C 
ATOM     28  C   UNL     1     112.299 129.907 141.158  0.00  0.00    +0.000 C 
ATOM     29  C   UNL     1     113.743 130.284 140.455  0.00  0.00    +0.000 C 
ATOM     30  C   UNL     1     112.471 129.637 140.398  0.00  0.00    +0.000 C 
BRANCH  29  32
ATOM     31  O   UNL     1     114.483 130.932 139.418  0.00  0.00    +0.000 OA
ATOM     32  C   UNL     1     114.465 130.473 140.103  0.00  0.00    +0.000 C 
ENDBRANCH  29  32
ENDBRANCH  21  30
ENDBRANCH   2  21
TORSDOF 4
ENDMDL
