MODEL 1
REMARK VINA RESULT:      -7.5      0.000      0.000
REMARK  Name = 14484690
REMARK  4 active torsions:
REMARK  status: ('A' for Active; 'I' for Inactive)
REMARK    1  A    between atoms: O_2  and  C_9
REMARK    2  A    between atoms: O_3  and  C_13
REMARK    3  A    between atoms: O_4  and  C_16
REMARK    4  A    between atoms: C_8  and  C_10
REMARK                            x       y       z     vdW  Elec       q    Type
REMARK                         _______ _______ _______ _____ _____    ______ ____
ROOT
ATOM      1  O   UNL     1     112.667 126.739 136.238  0.00  0.00    +0.000 OA
ATOM      2  O   UNL     1     110.699 125.285 135.868  0.00  0.00    +0.000 OA
ATOM      3  C   UNL     1     111.334 126.559 135.754  0.00  0.00    +0.000 A 
ATOM      4  C   UNL     1     111.990 127.044 135.877  0.00  0.00    +0.000 A 
ATOM      5  C   UNL     1     112.687 125.949 136.476  0.00  0.00    +0.000 A 
ATOM      6  C   UNL     1     110.624 126.865 135.379  0.00  0.00    +0.000 A 
ATOM      7  C   UNL     1     111.355 125.770 135.991  0.00  0.00    +0.000 A 
ATOM      8  C   UNL     1     112.031 125.464 136.352  0.00  0.00    +0.000 A 
ATOM      9  C   UNL     1     110.597 127.687 135.130  0.00  0.00    +0.000 A 
ATOM     10  C   UNL     1     111.981 127.868 135.634  0.00  0.00    +0.000 A 
ATOM     11  C   UNL     1     111.281 128.192 135.258  0.00  0.00    +0.000 A 
ENDROOT
BRANCH   5  12
ATOM     12  C   UNL     1     113.363 125.644 136.836  0.00  0.00    +0.000 A 
ATOM     13  C   UNL     1     113.477 125.739 137.648  0.00  0.00    +0.000 A 
ATOM     14  C   UNL     1     113.927 125.245 136.384  0.00  0.00    +0.000 A 
ATOM     15  C   UNL     1     114.154 125.434 138.008  0.00  0.00    +0.000 A 
ATOM     16  C   UNL     1     114.604 124.941 136.745  0.00  0.00    +0.000 A 
ATOM     17  C   UNL     1     114.717 125.035 137.557  0.00  0.00    +0.000 A 
BRANCH  13  18
ATOM     18  O   UNL     1     112.914 126.138 138.099  0.00  0.00    +0.000 OA
ATOM     19  C   UNL     1     113.041 126.258 138.905  0.00  0.00    +0.000 C 
ENDBRANCH  13  18
ENDBRANCH   5  12
BRANCH   6  20
ATOM     20  O   UNL     1     109.973 126.373 135.260  0.00  0.00    +0.000 OA
ATOM     21  C   UNL     1     109.985 125.814 134.653  0.00  0.00    +0.000 C 
ENDBRANCH   6  20
BRANCH   9  22
ATOM     22  O   UNL     1     109.919 127.989 134.769  0.00  0.00    +0.000 OA
ATOM     23  C   UNL     1     109.837 128.803 134.664  0.00  0.00    +0.000 C 
ENDBRANCH   9  22
TORSDOF 4
ENDMDL
MODEL 2
REMARK VINA RESULT:      -7.5     12.283     13.539
REMARK  Name = 14484690
REMARK  4 active torsions:
REMARK  status: ('A' for Active; 'I' for Inactive)
REMARK    1  A    between atoms: O_2  and  C_9
REMARK    2  A    between atoms: O_3  and  C_13
REMARK    3  A    between atoms: O_4  and  C_16
REMARK    4  A    between atoms: C_8  and  C_10
REMARK                            x       y       z     vdW  Elec       q    Type
REMARK                         _______ _______ _______ _____ _____    ______ ____
ROOT
ATOM      1  O   UNL     1     104.772 124.005 146.764  0.00  0.00    +0.000 OA
ATOM      2  O   UNL     1     103.001 125.473 147.678  0.00  0.00    +0.000 OA
ATOM      3  C   UNL     1     103.391 124.350 146.886  0.00  0.00    +0.000 A 
ATOM      4  C   UNL     1     103.981 123.861 146.582  0.00  0.00    +0.000 A 
ATOM      5  C   UNL     1     104.973 124.640 147.253  0.00  0.00    +0.000 A 
ATOM      6  C   UNL     1     102.563 124.209 146.702  0.00  0.00    +0.000 A 
ATOM      7  C   UNL     1     103.592 124.984 147.374  0.00  0.00    +0.000 A 
ATOM      8  C   UNL     1     104.383 125.129 147.557  0.00  0.00    +0.000 A 
ATOM      9  C   UNL     1     102.348 123.550 146.195  0.00  0.00    +0.000 A 
ATOM     10  C   UNL     1     103.784 123.197 146.072  0.00  0.00    +0.000 A 
ATOM     11  C   UNL     1     102.963 123.040 145.877  0.00  0.00    +0.000 A 
ENDROOT
BRANCH   5  12
ATOM     12  C   UNL     1     105.765 124.784 147.435  0.00  0.00    +0.000 A 
ATOM     13  C   UNL     1     106.238 125.212 146.912  0.00  0.00    +0.000 A 
ATOM     14  C   UNL     1     106.083 124.501 148.143  0.00  0.00    +0.000 A 
ATOM     15  C   UNL     1     107.029 125.356 147.096  0.00  0.00    +0.000 A 
ATOM     16  C   UNL     1     106.874 124.645 148.325  0.00  0.00    +0.000 A 
ATOM     17  C   UNL     1     107.347 125.073 147.802  0.00  0.00    +0.000 A 
BRANCH  13  18
ATOM     18  O   UNL     1     105.920 125.495 146.206  0.00  0.00    +0.000 OA
ATOM     19  C   UNL     1     106.394 125.922 145.683  0.00  0.00    +0.000 C 
ENDBRANCH  13  18
ENDBRANCH   5  12
BRANCH   6  20
ATOM     20  O   UNL     1     101.979 124.704 147.012  0.00  0.00    +0.000 OA
ATOM     21  C   UNL     1     101.762 124.637 147.805  0.00  0.00    +0.000 C 
ENDBRANCH   6  20
BRANCH   9  22
ATOM     22  O   UNL     1     101.556 123.407 146.014  0.00  0.00    +0.000 OA
ATOM     23  C   UNL     1     101.358 122.840 145.448  0.00  0.00    +0.000 C 
ENDBRANCH   9  22
TORSDOF 4
ENDMDL
MODEL 3
REMARK VINA RESULT:      -7.4      1.187      2.073
REMARK  Name = 14484690
REMARK  4 active torsions:
REMARK  status: ('A' for Active; 'I' for Inactive)
REMARK    1  A    between atoms: O_2  and  C_9
REMARK    2  A    between atoms: O_3  and  C_13
REMARK    3  A    between atoms: O_4  and  C_16
REMARK    4  A    between atoms: C_8  and  C_10
REMARK                            x       y       z     vdW  Elec       q    Type
REMARK                         _______ _______ _______ _____ _____    ______ ____
ROOT
ATOM      1  O   UNL     1     112.602 126.713 136.276  0.00  0.00    +0.000 OA
ATOM      2  O   UNL     1     113.677 128.927 136.013  0.00  0.00    +0.000 OA
ATOM      3  C   UNL     1     112.535 128.082 135.868  0.00  0.00    +0.000 A 
ATOM      4  C   UNL     1     112.177 127.344 135.956  0.00  0.00    +0.000 A 
ATOM      5  C   UNL     1     113.387 126.822 136.508  0.00  0.00    +0.000 A 
ATOM      6  C   UNL     1     112.102 128.746 135.536  0.00  0.00    +0.000 A 
ATOM      7  C   UNL     1     113.319 128.189 136.101  0.00  0.00    +0.000 A 
ATOM      8  C   UNL     1     113.745 127.560 136.421  0.00  0.00    +0.000 A 
ATOM      9  C   UNL     1     111.285 128.639 135.292  0.00  0.00    +0.000 A 
ATOM     10  C   UNL     1     111.360 127.219 135.717  0.00  0.00    +0.000 A 
ATOM     11  C   UNL     1     110.911 127.870 135.383  0.00  0.00    +0.000 A 
ENDROOT
BRANCH   5  12
ATOM     12  C   UNL     1     113.812 126.191 136.828  0.00  0.00    +0.000 A 
ATOM     13  C   UNL     1     113.778 126.039 137.638  0.00  0.00    +0.000 A 
ATOM     14  C   UNL     1     114.272 125.713 136.337  0.00  0.00    +0.000 A 
ATOM     15  C   UNL     1     114.204 125.408 137.957  0.00  0.00    +0.000 A 
ATOM     16  C   UNL     1     114.697 125.083 136.657  0.00  0.00    +0.000 A 
ATOM     17  C   UNL     1     114.663 124.930 137.467  0.00  0.00    +0.000 A 
BRANCH  13  18
ATOM     18  O   UNL     1     113.319 126.517 138.129  0.00  0.00    +0.000 OA
ATOM     19  C   UNL     1     113.284 126.364 138.939  0.00  0.00    +0.000 C 
ENDBRANCH  13  18
ENDBRANCH   5  12
BRANCH   6  20
ATOM     20  O   UNL     1     112.469 129.480 135.452  0.00  0.00    +0.000 OA
ATOM     21  C   UNL     1     112.619 129.943 136.118  0.00  0.00    +0.000 C 
ENDBRANCH   6  20
BRANCH   9  22
ATOM     22  O   UNL     1     110.862 129.271 134.972  0.00  0.00    +0.000 OA
ATOM     23  C   UNL     1     110.104 129.149 134.669  0.00  0.00    +0.000 C 
ENDBRANCH   9  22
TORSDOF 4
ENDMDL
MODEL 4
REMARK VINA RESULT:      -7.4     10.601     12.118
REMARK  Name = 14484690
REMARK  4 active torsions:
REMARK  status: ('A' for Active; 'I' for Inactive)
REMARK    1  A    between atoms: O_2  and  C_9
REMARK    2  A    between atoms: O_3  and  C_13
REMARK    3  A    between atoms: O_4  and  C_16
REMARK    4  A    between atoms: C_8  and  C_10
REMARK                            x       y       z     vdW  Elec       q    Type
REMARK                         _______ _______ _______ _____ _____    ______ ____
ROOT
ATOM      1  O   UNL     1     106.861 126.263 147.565  0.00  0.00    +0.000 OA
ATOM      2  O   UNL     1     106.798 125.113 145.374  0.00  0.00    +0.000 OA
ATOM      3  C   UNL     1     106.762 126.318 146.140  0.00  0.00    +0.000 A 
ATOM      4  C   UNL     1     106.783 126.701 146.871  0.00  0.00    +0.000 A 
ATOM      5  C   UNL     1     106.919 125.440 147.528  0.00  0.00    +0.000 A 
ATOM      6  C   UNL     1     106.680 126.764 145.410  0.00  0.00    +0.000 A 
ATOM      7  C   UNL     1     106.819 125.496 146.104  0.00  0.00    +0.000 A 
ATOM      8  C   UNL     1     106.898 125.057 146.798  0.00  0.00    +0.000 A 
ATOM      9  C   UNL     1     106.620 127.621 145.442  0.00  0.00    +0.000 A 
ATOM     10  C   UNL     1     106.723 127.557 146.921  0.00  0.00    +0.000 A 
ATOM     11  C   UNL     1     106.642 128.020 146.203  0.00  0.00    +0.000 A 
ENDROOT
BRANCH   5  12
ATOM     12  C   UNL     1     106.997 125.001 148.223  0.00  0.00    +0.000 A 
ATOM     13  C   UNL     1     106.326 124.726 148.615  0.00  0.00    +0.000 A 
ATOM     14  C   UNL     1     107.748 124.839 148.525  0.00  0.00    +0.000 A 
ATOM     15  C   UNL     1     106.406 124.287 149.310  0.00  0.00    +0.000 A 
ATOM     16  C   UNL     1     107.827 124.400 149.219  0.00  0.00    +0.000 A 
ATOM     17  C   UNL     1     107.156 124.125 149.612  0.00  0.00    +0.000 A 
BRANCH  13  18
ATOM     18  O   UNL     1     105.576 124.888 148.313  0.00  0.00    +0.000 OA
ATOM     19  C   UNL     1     104.904 124.636 148.720  0.00  0.00    +0.000 C 
ENDBRANCH  13  18
ENDBRANCH   5  12
BRANCH   6  20
ATOM     20  O   UNL     1     106.660 126.372 144.684  0.00  0.00    +0.000 OA
ATOM     21  C   UNL     1     105.993 125.937 144.470  0.00  0.00    +0.000 C 
ENDBRANCH   6  20
BRANCH   9  22
ATOM     22  O   UNL     1     106.541 128.057 144.746  0.00  0.00    +0.000 OA
ATOM     23  C   UNL     1     106.611 128.879 144.765  0.00  0.00    +0.000 C 
ENDBRANCH   9  22
TORSDOF 4
ENDMDL
MODEL 5
REMARK VINA RESULT:      -7.3     10.213     12.062
REMARK  Name = 14484690
REMARK  4 active torsions:
REMARK  status: ('A' for Active; 'I' for Inactive)
REMARK    1  A    between atoms: O_2  and  C_9
REMARK    2  A    between atoms: O_3  and  C_13
REMARK    3  A    between atoms: O_4  and  C_16
REMARK    4  A    between atoms: C_8  and  C_10
REMARK                            x       y       z     vdW  Elec       q    Type
REMARK                         _______ _______ _______ _____ _____    ______ ____
ROOT
ATOM      1  O   UNL     1     102.752 130.829 142.151  0.00  0.00    +0.000 OA
ATOM      2  O   UNL     1     102.466 129.874 139.885  0.00  0.00    +0.000 OA
ATOM      3  C   UNL     1     103.059 129.822 141.184  0.00  0.00    +0.000 A 
ATOM      4  C   UNL     1     103.154 130.140 141.939  0.00  0.00    +0.000 A 
ATOM      5  C   UNL     1     102.254 131.199 141.606  0.00  0.00    +0.000 A 
ATOM      6  C   UNL     1     103.473 129.105 140.952  0.00  0.00    +0.000 A 
ATOM      7  C   UNL     1     102.561 130.192 140.640  0.00  0.00    +0.000 A 
ATOM      8  C   UNL     1     102.159 130.881 140.851  0.00  0.00    +0.000 A 
ATOM      9  C   UNL     1     103.992 128.715 141.514  0.00  0.00    +0.000 A 
ATOM     10  C   UNL     1     103.670 129.763 142.514  0.00  0.00    +0.000 A 
ATOM     11  C   UNL     1     104.092 129.047 142.301  0.00  0.00    +0.000 A 
ENDROOT
BRANCH   5  12
ATOM     12  C   UNL     1     101.852 131.888 141.818  0.00  0.00    +0.000 A 
ATOM     13  C   UNL     1     102.189 132.626 141.668  0.00  0.00    +0.000 A 
ATOM     14  C   UNL     1     101.112 131.838 142.181  0.00  0.00    +0.000 A 
ATOM     15  C   UNL     1     101.786 133.314 141.880  0.00  0.00    +0.000 A 
ATOM     16  C   UNL     1     100.711 132.526 142.393  0.00  0.00    +0.000 A 
ATOM     17  C   UNL     1     101.048 133.264 142.242  0.00  0.00    +0.000 A 
BRANCH  13  18
ATOM     18  O   UNL     1     102.928 132.675 141.306  0.00  0.00    +0.000 OA
ATOM     19  C   UNL     1     103.271 133.413 141.166  0.00  0.00    +0.000 C 
ENDBRANCH  13  18
ENDBRANCH   5  12
BRANCH   6  20
ATOM     20  O   UNL     1     103.371 128.794 140.194  0.00  0.00    +0.000 OA
ATOM     21  C   UNL     1     102.611 128.703 139.886  0.00  0.00    +0.000 C 
ENDBRANCH   6  20
BRANCH   9  22
ATOM     22  O   UNL     1     104.393 128.026 141.300  0.00  0.00    +0.000 OA
ATOM     23  C   UNL     1     104.961 127.706 141.805  0.00  0.00    +0.000 C 
ENDBRANCH   9  22
TORSDOF 4
ENDMDL
MODEL 6
REMARK VINA RESULT:      -7.3     11.665     13.394
REMARK  Name = 14484690
REMARK  4 active torsions:
REMARK  status: ('A' for Active; 'I' for Inactive)
REMARK    1  A    between atoms: O_2  and  C_9
REMARK    2  A    between atoms: O_3  and  C_13
REMARK    3  A    between atoms: O_4  and  C_16
REMARK    4  A    between atoms: C_8  and  C_10
REMARK                            x       y       z     vdW  Elec       q    Type
REMARK                         _______ _______ _______ _____ _____    ______ ____
ROOT
ATOM      1  O   UNL     1     104.735 124.522 147.455  0.00  0.00    +0.000 OA
ATOM      2  O   UNL     1     105.640 125.731 145.495  0.00  0.00    +0.000 OA
ATOM      3  C   UNL     1     105.836 125.125 146.773  0.00  0.00    +0.000 A 
ATOM      4  C   UNL     1     105.534 124.722 147.427  0.00  0.00    +0.000 A 
ATOM      5  C   UNL     1     104.236 124.725 146.829  0.00  0.00    +0.000 A 
ATOM      6  C   UNL     1     106.668 125.339 146.733  0.00  0.00    +0.000 A 
ATOM      7  C   UNL     1     105.338 125.328 146.148  0.00  0.00    +0.000 A 
ATOM      8  C   UNL     1     104.538 125.128 146.176  0.00  0.00    +0.000 A 
ATOM      9  C   UNL     1     107.191 125.130 147.381  0.00  0.00    +0.000 A 
ATOM     10  C   UNL     1     106.043 124.505 148.085  0.00  0.00    +0.000 A 
ATOM     11  C   UNL     1     106.877 124.710 148.062  0.00  0.00    +0.000 A 
ENDROOT
BRANCH   5  12
ATOM     12  C   UNL     1     103.437 124.524 146.858  0.00  0.00    +0.000 A 
ATOM     13  C   UNL     1     103.164 123.856 146.458  0.00  0.00    +0.000 A 
ATOM     14  C   UNL     1     102.909 124.993 147.286  0.00  0.00    +0.000 A 
ATOM     15  C   UNL     1     102.364 123.657 146.487  0.00  0.00    +0.000 A 
ATOM     16  C   UNL     1     102.110 124.793 147.315  0.00  0.00    +0.000 A 
ATOM     17  C   UNL     1     101.837 124.125 146.915  0.00  0.00    +0.000 A 
BRANCH  13  18
ATOM     18  O   UNL     1     103.691 123.388 146.030  0.00  0.00    +0.000 OA
ATOM     19  C   UNL     1     103.412 122.740 145.603  0.00  0.00    +0.000 C 
ENDBRANCH  13  18
ENDBRANCH   5  12
BRANCH   6  20
ATOM     20  O   UNL     1     106.960 125.742 146.075  0.00  0.00    +0.000 OA
ATOM     21  C   UNL     1     106.743 126.527 145.944  0.00  0.00    +0.000 C 
ENDBRANCH   6  20
BRANCH   9  22
ATOM     22  O   UNL     1     107.991 125.332 147.350  0.00  0.00    +0.000 OA
ATOM     23  C   UNL     1     108.513 125.033 147.915  0.00  0.00    +0.000 C 
ENDBRANCH   9  22
TORSDOF 4
ENDMDL
MODEL 7
REMARK VINA RESULT:      -7.3      2.030      4.298
REMARK  Name = 14484690
REMARK  4 active torsions:
REMARK  status: ('A' for Active; 'I' for Inactive)
REMARK    1  A    between atoms: O_2  and  C_9
REMARK    2  A    between atoms: O_3  and  C_13
REMARK    3  A    between atoms: O_4  and  C_16
REMARK    4  A    between atoms: C_8  and  C_10
REMARK                            x       y       z     vdW  Elec       q    Type
REMARK                         _______ _______ _______ _____ _____    ______ ____
ROOT
ATOM      1  O   UNL     1     112.136 126.275 137.738  0.00  0.00    +0.000 OA
ATOM      2  O   UNL     1     110.766 125.740 139.729  0.00  0.00    +0.000 OA
ATOM      3  C   UNL     1     111.965 126.265 139.157  0.00  0.00    +0.000 A 
ATOM      4  C   UNL     1     112.421 126.443 138.494  0.00  0.00    +0.000 A 
ATOM      5  C   UNL     1     111.392 125.929 137.647  0.00  0.00    +0.000 A 
ATOM      6  C   UNL     1     112.253 126.435 139.949  0.00  0.00    +0.000 A 
ATOM      7  C   UNL     1     111.222 125.919 139.066  0.00  0.00    +0.000 A 
ATOM      8  C   UNL     1     110.935 125.750 138.310  0.00  0.00    +0.000 A 
ATOM      9  C   UNL     1     113.026 126.796 140.051  0.00  0.00    +0.000 A 
ATOM     10  C   UNL     1     113.197 126.804 138.576  0.00  0.00    +0.000 A 
ATOM     11  C   UNL     1     113.501 126.982 139.359  0.00  0.00    +0.000 A 
ENDROOT
BRANCH   5  12
ATOM     12  C   UNL     1     111.106 125.761 136.892  0.00  0.00    +0.000 A 
ATOM     13  C   UNL     1     111.295 125.045 136.528  0.00  0.00    +0.000 A 
ATOM     14  C   UNL     1     110.630 126.310 136.499  0.00  0.00    +0.000 A 
ATOM     15  C   UNL     1     111.008 124.878 135.772  0.00  0.00    +0.000 A 
ATOM     16  C   UNL     1     110.344 126.142 135.744  0.00  0.00    +0.000 A 
ATOM     17  C   UNL     1     110.533 125.426 135.381  0.00  0.00    +0.000 A 
BRANCH  13  18
ATOM     18  O   UNL     1     111.770 124.496 136.920  0.00  0.00    +0.000 OA
ATOM     19  C   UNL     1     111.969 123.786 136.551  0.00  0.00    +0.000 C 
ENDBRANCH  13  18
ENDBRANCH   5  12
BRANCH   6  20
ATOM     20  O   UNL     1     111.789 126.253 140.607  0.00  0.00    +0.000 OA
ATOM     21  C   UNL     1     111.147 126.732 140.803  0.00  0.00    +0.000 C 
ENDBRANCH   6  20
BRANCH   9  22
ATOM     22  O   UNL     1     113.310 126.963 140.807  0.00  0.00    +0.000 OA
ATOM     23  C   UNL     1     114.098 127.182 140.913  0.00  0.00    +0.000 C 
ENDBRANCH   9  22
TORSDOF 4
ENDMDL
MODEL 8
REMARK VINA RESULT:      -7.3      1.635      3.186
REMARK  Name = 14484690
REMARK  4 active torsions:
REMARK  status: ('A' for Active; 'I' for Inactive)
REMARK    1  A    between atoms: O_2  and  C_9
REMARK    2  A    between atoms: O_3  and  C_13
REMARK    3  A    between atoms: O_4  and  C_16
REMARK    4  A    between atoms: C_8  and  C_10
REMARK                            x       y       z     vdW  Elec       q    Type
REMARK                         _______ _______ _______ _____ _____    ______ ____
ROOT
ATOM      1  O   UNL     1     113.339 126.916 136.473  0.00  0.00    +0.000 OA
ATOM      2  O   UNL     1     110.934 126.789 135.902  0.00  0.00    +0.000 OA
ATOM      3  C   UNL     1     112.143 126.150 136.317  0.00  0.00    +0.000 A 
ATOM      4  C   UNL     1     112.945 126.193 136.507  0.00  0.00    +0.000 A 
ATOM      5  C   UNL     1     112.931 127.598 136.248  0.00  0.00    +0.000 A 
ATOM      6  C   UNL     1     111.721 125.402 136.349  0.00  0.00    +0.000 A 
ATOM      7  C   UNL     1     111.736 126.831 136.092  0.00  0.00    +0.000 A 
ATOM      8  C   UNL     1     112.130 127.556 136.057  0.00  0.00    +0.000 A 
ATOM      9  C   UNL     1     112.140 124.689 136.582  0.00  0.00    +0.000 A 
ATOM     10  C   UNL     1     113.380 125.490 136.743  0.00  0.00    +0.000 A 
ATOM     11  C   UNL     1     112.976 124.734 136.781  0.00  0.00    +0.000 A 
ENDROOT
BRANCH   5  12
ATOM     12  C   UNL     1     113.326 128.322 136.213  0.00  0.00    +0.000 A 
ATOM     13  C   UNL     1     113.348 128.812 136.877  0.00  0.00    +0.000 A 
ATOM     14  C   UNL     1     113.700 128.555 135.515  0.00  0.00    +0.000 A 
ATOM     15  C   UNL     1     113.744 129.535 136.841  0.00  0.00    +0.000 A 
ATOM     16  C   UNL     1     114.094 129.278 135.481  0.00  0.00    +0.000 A 
ATOM     17  C   UNL     1     114.116 129.768 136.144  0.00  0.00    +0.000 A 
BRANCH  13  18
ATOM     18  O   UNL     1     112.975 128.579 137.574  0.00  0.00    +0.000 OA
ATOM     19  C   UNL     1     113.011 129.062 138.242  0.00  0.00    +0.000 C 
ENDBRANCH  13  18
ENDBRANCH   5  12
BRANCH   6  20
ATOM     20  O   UNL     1     110.919 125.369 136.157  0.00  0.00    +0.000 OA
ATOM     21  C   UNL     1     110.683 125.420 135.368  0.00  0.00    +0.000 C 
ENDBRANCH   6  20
BRANCH   9  22
ATOM     22  O   UNL     1     111.743 123.967 136.616  0.00  0.00    +0.000 OA
ATOM     23  C   UNL     1     112.087 123.325 137.003  0.00  0.00    +0.000 C 
ENDBRANCH   9  22
TORSDOF 4
ENDMDL
MODEL 9
REMARK VINA RESULT:      -7.2      1.968      3.071
REMARK  Name = 14484690
REMARK  4 active torsions:
REMARK  status: ('A' for Active; 'I' for Inactive)
REMARK    1  A    between atoms: O_2  and  C_9
REMARK    2  A    between atoms: O_3  and  C_13
REMARK    3  A    between atoms: O_4  and  C_16
REMARK    4  A    between atoms: C_8  and  C_10
REMARK                            x       y       z     vdW  Elec       q    Type
REMARK                         _______ _______ _______ _____ _____    ______ ____
ROOT
ATOM      1  O   UNL     1     113.542 126.946 136.385  0.00  0.00    +0.000 OA
ATOM      2  O   UNL     1     112.698 127.966 138.476  0.00  0.00    +0.000 OA
ATOM      3  C   UNL     1     113.268 128.106 137.175  0.00  0.00    +0.000 A 
ATOM      4  C   UNL     1     113.550 127.766 136.477  0.00  0.00    +0.000 A 
ATOM      5  C   UNL     1     113.252 126.466 136.991  0.00  0.00    +0.000 A 
ATOM      6  C   UNL     1     113.272 128.959 137.282  0.00  0.00    +0.000 A 
ATOM      7  C   UNL     1     112.979 127.626 137.779  0.00  0.00    +0.000 A 
ATOM      8  C   UNL     1     112.971 126.806 137.688  0.00  0.00    +0.000 A 
ATOM      9  C   UNL     1     113.572 129.463 136.655  0.00  0.00    +0.000 A 
ATOM     10  C   UNL     1     113.854 128.255 135.840  0.00  0.00    +0.000 A 
ATOM     11  C   UNL     1     113.865 129.109 135.928  0.00  0.00    +0.000 A 
ENDROOT
BRANCH   5  12
ATOM     12  C   UNL     1     113.244 125.646 136.899  0.00  0.00    +0.000 A 
ATOM     13  C   UNL     1     112.590 125.275 136.560  0.00  0.00    +0.000 A 
ATOM     14  C   UNL     1     113.891 125.197 137.146  0.00  0.00    +0.000 A 
ATOM     15  C   UNL     1     112.583 124.455 136.468  0.00  0.00    +0.000 A 
ATOM     16  C   UNL     1     113.883 124.378 137.054  0.00  0.00    +0.000 A 
ATOM     17  C   UNL     1     113.229 124.007 136.715  0.00  0.00    +0.000 A 
BRANCH  13  18
ATOM     18  O   UNL     1     111.944 125.724 136.313  0.00  0.00    +0.000 OA
ATOM     19  C   UNL     1     111.293 125.354 135.965  0.00  0.00    +0.000 C 
ENDBRANCH  13  18
ENDBRANCH   5  12
BRANCH   6  20
ATOM     20  O   UNL     1     112.988 129.289 137.983  0.00  0.00    +0.000 OA
ATOM     21  C   UNL     1     112.177 129.310 138.129  0.00  0.00    +0.000 C 
ENDBRANCH   6  20
BRANCH   9  22
ATOM     22  O   UNL     1     113.579 130.283 136.749  0.00  0.00    +0.000 OA
ATOM     23  C   UNL     1     114.036 130.752 136.248  0.00  0.00    +0.000 C 
ENDBRANCH   9  22
TORSDOF 4
ENDMDL
MODEL 10
REMARK VINA RESULT:      -7.2      1.030      4.106
REMARK  Name = 14484690
REMARK  4 active torsions:
REMARK  status: ('A' for Active; 'I' for Inactive)
REMARK    1  A    between atoms: O_2  and  C_9
REMARK    2  A    between atoms: O_3  and  C_13
REMARK    3  A    between atoms: O_4  and  C_16
REMARK    4  A    between atoms: C_8  and  C_10
REMARK                            x       y       z     vdW  Elec       q    Type
REMARK                         _______ _______ _______ _____ _____    ______ ____
ROOT
ATOM      1  O   UNL     1     111.632 126.313 137.088  0.00  0.00    +0.000 OA
ATOM      2  O   UNL     1     113.907 125.548 136.485  0.00  0.00    +0.000 OA
ATOM      3  C   UNL     1     112.988 126.052 137.455  0.00  0.00    +0.000 A 
ATOM      4  C   UNL     1     112.229 126.307 137.656  0.00  0.00    +0.000 A 
ATOM      5  C   UNL     1     111.793 126.064 136.317  0.00  0.00    +0.000 A 
ATOM      6  C   UNL     1     113.618 126.041 138.040  0.00  0.00    +0.000 A 
ATOM      7  C   UNL     1     113.148 125.803 136.686  0.00  0.00    +0.000 A 
ATOM      8  C   UNL     1     112.551 125.809 136.116  0.00  0.00    +0.000 A 
ATOM      9  C   UNL     1     113.457 126.298 138.843  0.00  0.00    +0.000 A 
ATOM     10  C   UNL     1     112.049 126.568 138.455  0.00  0.00    +0.000 A 
ATOM     11  C   UNL     1     112.666 126.564 139.052  0.00  0.00    +0.000 A 
ENDROOT
BRANCH   5  12
ATOM     12  C   UNL     1     111.195 126.071 135.749  0.00  0.00    +0.000 A 
ATOM     13  C   UNL     1     111.051 126.754 135.310  0.00  0.00    +0.000 A 
ATOM     14  C   UNL     1     110.742 125.393 135.620  0.00  0.00    +0.000 A 
ATOM     15  C   UNL     1     110.452 126.760 134.741  0.00  0.00    +0.000 A 
ATOM     16  C   UNL     1     110.144 125.400 135.051  0.00  0.00    +0.000 A 
ATOM     17  C   UNL     1     110.000 126.083 134.612  0.00  0.00    +0.000 A 
BRANCH  13  18
ATOM     18  O   UNL     1     111.504 127.431 135.439  0.00  0.00    +0.000 OA
ATOM     19  C   UNL     1     111.348 128.119 135.012  0.00  0.00    +0.000 C 
ENDBRANCH  13  18
ENDBRANCH   5  12
BRANCH   6  20
ATOM     20  O   UNL     1     114.374 125.784 137.829  0.00  0.00    +0.000 OA
ATOM     21  C   UNL     1     114.500 124.992 137.635  0.00  0.00    +0.000 C 
ENDBRANCH   6  20
BRANCH   9  22
ATOM     22  O   UNL     1     114.056 126.291 139.410  0.00  0.00    +0.000 OA
ATOM     23  C   UNL     1     113.985 126.751 140.091  0.00  0.00    +0.000 C 
ENDBRANCH   9  22
TORSDOF 4
ENDMDL
