MODEL 1
REMARK VINA RESULT:      -9.5      0.000      0.000
REMARK  Name = 131835088
REMARK  5 active torsions:
REMARK  status: ('A' for Active; 'I' for Inactive)
REMARK    1  A    between atoms: O_2  and  C_18
REMARK    2  A    between atoms: O_2  and  C_20
REMARK    3  A    between atoms: O_13  and  C_33
REMARK    4  A    between atoms: C_19  and  C_24
REMARK    5  A    between atoms: C_21  and  C_27
REMARK                            x       y       z     vdW  Elec       q    Type
REMARK                         _______ _______ _______ _____ _____    ______ ____
ROOT
ATOM      1  O   UNL     1     113.748 127.256 136.227  0.00  0.00    +0.000 OA
ATOM      2  O   UNL     1     112.747 126.933 138.140  0.00  0.00    +0.000 OA
ATOM      3  O   UNL     1     112.736 128.580 138.058  0.00  0.00    +0.000 OA
ATOM      4  O   UNL     1     113.730 130.609 136.051  0.00  0.00    +0.000 OA
ATOM      5  O   UNL     1     114.421 129.705 134.802  0.00  0.00    +0.000 OA
ATOM      6  C   UNL     1     113.393 129.381 136.765  0.00  0.00    +0.000 A 
ATOM      7  C   UNL     1     113.416 126.874 136.878  0.00  0.00    +0.000 C 
ATOM      8  C   UNL     1     113.405 128.522 136.796  0.00  0.00    +0.000 A 
ATOM      9  C   UNL     1     113.079 127.315 137.489  0.00  0.00    +0.000 C 
ATOM     10  C   UNL     1     113.743 128.081 136.186  0.00  0.00    +0.000 A 
ATOM     11  C   UNL     1     113.074 128.139 137.447  0.00  0.00    +0.000 C 
ATOM     12  C   UNL     1     113.737 129.785 136.090  0.00  0.00    +0.000 A 
ATOM     13  C   UNL     1     114.091 128.468 135.503  0.00  0.00    +0.000 A 
ATOM     14  C   UNL     1     114.088 129.326 135.454  0.00  0.00    +0.000 A 
ENDROOT
BRANCH   7  16
ATOM     15  O   UNL     1     113.440 123.578 137.045  0.00  0.00    +0.000 OA
ATOM     16  C   UNL     1     113.422 126.050 136.920  0.00  0.00    +0.000 A 
ATOM     17  C   UNL     1     112.821 125.614 136.561  0.00  0.00    +0.000 A 
ATOM     18  C   UNL     1     114.029 125.662 137.321  0.00  0.00    +0.000 A 
ATOM     19  C   UNL     1     112.827 124.791 136.603  0.00  0.00    +0.000 A 
ATOM     20  C   UNL     1     114.035 124.838 137.363  0.00  0.00    +0.000 A 
ATOM     21  C   UNL     1     113.434 124.402 137.004  0.00  0.00    +0.000 A 
BRANCH  19  22
ATOM     22  O   UNL     1     112.225 124.355 136.243  0.00  0.00    +0.000 OA
ATOM     23  C   UNL     1     111.478 124.690 136.141  0.00  0.00    +0.000 C 
ENDBRANCH  19  22
ENDBRANCH   7  16
BRANCH   6  24
ATOM     24  O   UNL     1     113.054 129.814 137.380  0.00  0.00    +0.000 OA
BRANCH  24  32
ATOM     25  O   UNL     1     111.787 129.906 136.725  0.00  0.00    +0.000 OA
ATOM     26  O   UNL     1     111.288 131.979 137.982  0.00  0.00    +0.000 OA
ATOM     27  O   UNL     1     112.721 131.196 138.218  0.00  0.00    +0.000 OA
ATOM     28  O   UNL     1     110.189 131.380 136.909  0.00  0.00    +0.000 OA
ATOM     29  C   UNL     1     111.455 131.288 137.563  0.00  0.00    +0.000 C 
ATOM     30  C   UNL     1     112.172 130.896 137.681  0.00  0.00    +0.000 C 
ATOM     31  C   UNL     1     110.905 130.988 137.026  0.00  0.00    +0.000 C 
ATOM     32  C   UNL     1     112.338 130.205 137.262  0.00  0.00    +0.000 C 
ATOM     33  C   UNL     1     111.071 130.297 136.608  0.00  0.00    +0.000 C 
BRANCH  33  36
ATOM     34  O   UNL     1     110.510 130.274 135.294  0.00  0.00    +0.000 OA
ATOM     35  O   UNL     1     109.981 129.423 136.312  0.00  0.00    +0.000 OA
ATOM     36  C   UNL     1     110.521 129.998 136.071  0.00  0.00    +0.000 C 
ENDBRANCH  33  36
ENDBRANCH  24  32
ENDBRANCH   6  24
TORSDOF 5
ENDMDL
MODEL 2
REMARK VINA RESULT:      -9.3      1.427      1.916
REMARK  Name = 131835088
REMARK  5 active torsions:
REMARK  status: ('A' for Active; 'I' for Inactive)
REMARK    1  A    between atoms: O_2  and  C_18
REMARK    2  A    between atoms: O_2  and  C_20
REMARK    3  A    between atoms: O_13  and  C_33
REMARK    4  A    between atoms: C_19  and  C_24
REMARK    5  A    between atoms: C_21  and  C_27
REMARK                            x       y       z     vdW  Elec       q    Type
REMARK                         _______ _______ _______ _____ _____    ______ ____
ROOT
ATOM      1  O   UNL     1     112.292 126.929 136.124  0.00  0.00    +0.000 OA
ATOM      2  O   UNL     1     111.180 126.312 137.898  0.00  0.00    +0.000 OA
ATOM      3  O   UNL     1     110.930 127.942 137.925  0.00  0.00    +0.000 OA
ATOM      4  O   UNL     1     111.787 130.248 136.171  0.00  0.00    +0.000 OA
ATOM      5  O   UNL     1     112.718 129.557 134.941  0.00  0.00    +0.000 OA
ATOM      6  C   UNL     1     111.575 128.931 136.763  0.00  0.00    +0.000 A 
ATOM      7  C   UNL     1     111.963 126.452 136.711  0.00  0.00    +0.000 C 
ATOM      8  C   UNL     1     111.713 128.082 136.738  0.00  0.00    +0.000 A 
ATOM      9  C   UNL     1     111.509 126.789 137.311  0.00  0.00    +0.000 C 
ATOM     10  C   UNL     1     112.167 127.745 136.137  0.00  0.00    +0.000 A 
ATOM     11  C   UNL     1     111.384 127.605 137.325  0.00  0.00    +0.000 C 
ATOM     12  C   UNL     1     111.914 129.433 136.155  0.00  0.00    +0.000 A 
ATOM     13  C   UNL     1     112.514 128.232 135.521  0.00  0.00    +0.000 A 
ATOM     14  C   UNL     1     112.387 129.082 135.530  0.00  0.00    +0.000 A 
ENDROOT
BRANCH   7  16
ATOM     15  O   UNL     1     112.462 123.190 136.657  0.00  0.00    +0.000 OA
ATOM     16  C   UNL     1     112.089 125.636 136.698  0.00  0.00    +0.000 A 
ATOM     17  C   UNL     1     112.795 125.322 136.982  0.00  0.00    +0.000 A 
ATOM     18  C   UNL     1     111.505 125.135 136.399  0.00  0.00    +0.000 A 
ATOM     19  C   UNL     1     112.920 124.507 136.969  0.00  0.00    +0.000 A 
ATOM     20  C   UNL     1     111.630 124.320 136.385  0.00  0.00    +0.000 A 
ATOM     21  C   UNL     1     112.337 124.005 136.670  0.00  0.00    +0.000 A 
BRANCH  19  22
ATOM     22  O   UNL     1     113.628 124.193 137.255  0.00  0.00    +0.000 OA
ATOM     23  C   UNL     1     114.302 124.666 137.295  0.00  0.00    +0.000 C 
ENDBRANCH  19  22
ENDBRANCH   7  16
BRANCH   6  24
ATOM     24  O   UNL     1     111.119 129.259 137.368  0.00  0.00    +0.000 OA
BRANCH  24  32
ATOM     25  O   UNL     1     109.924 129.260 136.583  0.00  0.00    +0.000 OA
ATOM     26  O   UNL     1     109.046 131.146 137.923  0.00  0.00    +0.000 OA
ATOM     27  O   UNL     1     110.533 130.517 138.261  0.00  0.00    +0.000 OA
ATOM     28  O   UNL     1     108.145 130.518 136.693  0.00  0.00    +0.000 OA
ATOM     29  C   UNL     1     109.339 130.518 137.477  0.00  0.00    +0.000 C 
ATOM     30  C   UNL     1     110.083 130.203 137.645  0.00  0.00    +0.000 C 
ATOM     31  C   UNL     1     108.888 130.203 136.861  0.00  0.00    +0.000 C 
ATOM     32  C   UNL     1     110.376 129.574 137.199  0.00  0.00    +0.000 C 
ATOM     33  C   UNL     1     109.181 129.574 136.415  0.00  0.00    +0.000 C 
BRANCH  33  36
ATOM     34  O   UNL     1     108.789 129.579 135.041  0.00  0.00    +0.000 OA
ATOM     35  O   UNL     1     108.221 128.628 135.943  0.00  0.00    +0.000 OA
ATOM     36  C   UNL     1     108.731 129.260 135.800  0.00  0.00    +0.000 C 
ENDBRANCH  33  36
ENDBRANCH  24  32
ENDBRANCH   6  24
TORSDOF 5
ENDMDL
MODEL 3
REMARK VINA RESULT:      -9.3      1.442      2.345
REMARK  Name = 131835088
REMARK  5 active torsions:
REMARK  status: ('A' for Active; 'I' for Inactive)
REMARK    1  A    between atoms: O_2  and  C_18
REMARK    2  A    between atoms: O_2  and  C_20
REMARK    3  A    between atoms: O_13  and  C_33
REMARK    4  A    between atoms: C_19  and  C_24
REMARK    5  A    between atoms: C_21  and  C_27
REMARK                            x       y       z     vdW  Elec       q    Type
REMARK                         _______ _______ _______ _____ _____    ______ ____
ROOT
ATOM      1  O   UNL     1     113.472 127.809 136.757  0.00  0.00    +0.000 OA
ATOM      2  O   UNL     1     112.119 126.193 136.187  0.00  0.00    +0.000 OA
ATOM      3  O   UNL     1     111.255 127.509 135.696  0.00  0.00    +0.000 OA
ATOM      4  O   UNL     1     111.720 130.494 135.759  0.00  0.00    +0.000 OA
ATOM      5  O   UNL     1     113.233 130.699 136.483  0.00  0.00    +0.000 OA
ATOM      6  C   UNL     1     111.840 129.045 135.897  0.00  0.00    +0.000 A 
ATOM      7  C   UNL     1     113.165 127.051 136.649  0.00  0.00    +0.000 C 
ATOM      8  C   UNL     1     112.301 128.367 136.157  0.00  0.00    +0.000 A 
ATOM      9  C   UNL     1     112.426 126.951 136.295  0.00  0.00    +0.000 C 
ATOM     10  C   UNL     1     113.039 128.468 136.511  0.00  0.00    +0.000 A 
ATOM     11  C   UNL     1     111.994 127.610 136.049  0.00  0.00    +0.000 C 
ATOM     12  C   UNL     1     112.155 129.837 136.006  0.00  0.00    +0.000 A 
ATOM     13  C   UNL     1     113.369 129.252 136.628  0.00  0.00    +0.000 A 
ATOM     14  C   UNL     1     112.924 129.942 136.374  0.00  0.00    +0.000 A 
ENDROOT
BRANCH   7  16
ATOM     15  O   UNL     1     114.891 124.417 137.634  0.00  0.00    +0.000 OA
ATOM     16  C   UNL     1     113.597 126.392 136.895  0.00  0.00    +0.000 A 
ATOM     17  C   UNL     1     114.132 126.034 136.380  0.00  0.00    +0.000 A 
ATOM     18  C   UNL     1     113.492 126.092 137.656  0.00  0.00    +0.000 A 
ATOM     19  C   UNL     1     114.564 125.376 136.626  0.00  0.00    +0.000 A 
ATOM     20  C   UNL     1     113.924 125.433 137.902  0.00  0.00    +0.000 A 
ATOM     21  C   UNL     1     114.460 125.075 137.388  0.00  0.00    +0.000 A 
BRANCH  19  22
ATOM     22  O   UNL     1     115.100 125.018 136.111  0.00  0.00    +0.000 OA
ATOM     23  C   UNL     1     115.543 125.479 135.590  0.00  0.00    +0.000 C 
ENDBRANCH  19  22
ENDBRANCH   7  16
BRANCH   6  24
ATOM     24  O   UNL     1     111.103 128.936 135.544  0.00  0.00    +0.000 OA
BRANCH  24  32
ATOM     25  O   UNL     1     110.384 129.118 136.766  0.00  0.00    +0.000 OA
ATOM     26  O   UNL     1     108.426 129.936 135.492  0.00  0.00    +0.000 OA
ATOM     27  O   UNL     1     109.797 129.481 134.695  0.00  0.00    +0.000 OA
ATOM     28  O   UNL     1     108.361 129.846 137.138  0.00  0.00    +0.000 OA
ATOM     29  C   UNL     1     109.079 129.664 135.917  0.00  0.00    +0.000 C 
ATOM     30  C   UNL     1     109.765 129.436 135.518  0.00  0.00    +0.000 C 
ATOM     31  C   UNL     1     109.047 129.618 136.740  0.00  0.00    +0.000 C 
ATOM     32  C   UNL     1     110.418 129.163 135.943  0.00  0.00    +0.000 C 
ATOM     33  C   UNL     1     109.699 129.346 137.164  0.00  0.00    +0.000 C 
BRANCH  33  36
ATOM     34  O   UNL     1     109.859 129.959 138.445  0.00  0.00    +0.000 OA
ATOM     35  O   UNL     1     109.441 128.596 138.352  0.00  0.00    +0.000 OA
ATOM     36  C   UNL     1     109.666 129.301 137.987  0.00  0.00    +0.000 C 
ENDBRANCH  33  36
ENDBRANCH  24  32
ENDBRANCH   6  24
TORSDOF 5
ENDMDL
MODEL 4
REMARK VINA RESULT:      -9.2      1.972      3.147
REMARK  Name = 131835088
REMARK  5 active torsions:
REMARK  status: ('A' for Active; 'I' for Inactive)
REMARK    1  A    between atoms: O_2  and  C_18
REMARK    2  A    between atoms: O_2  and  C_20
REMARK    3  A    between atoms: O_13  and  C_33
REMARK    4  A    between atoms: C_19  and  C_24
REMARK    5  A    between atoms: C_21  and  C_27
REMARK                            x       y       z     vdW  Elec       q    Type
REMARK                         _______ _______ _______ _____ _____    ______ ____
ROOT
ATOM      1  O   UNL     1     111.748 126.380 138.482  0.00  0.00    +0.000 OA
ATOM      2  O   UNL     1     112.964 127.560 137.106  0.00  0.00    +0.000 OA
ATOM      3  O   UNL     1     111.711 128.596 137.381  0.00  0.00    +0.000 OA
ATOM      4  O   UNL     1     109.192 128.482 139.047  0.00  0.00    +0.000 OA
ATOM      5  O   UNL     1     109.218 126.969 139.798  0.00  0.00    +0.000 OA
ATOM      6  C   UNL     1     110.461 128.186 138.387  0.00  0.00    +0.000 A 
ATOM      7  C   UNL     1     112.362 126.600 137.977  0.00  0.00    +0.000 C 
ATOM      8  C   UNL     1     111.109 127.637 138.252  0.00  0.00    +0.000 A 
ATOM      9  C   UNL     1     112.350 127.339 137.610  0.00  0.00    +0.000 C 
ATOM     10  C   UNL     1     111.120 126.898 138.619  0.00  0.00    +0.000 A 
ATOM     11  C   UNL     1     111.723 127.857 137.748  0.00  0.00    +0.000 C 
ATOM     12  C   UNL     1     109.818 127.962 138.911  0.00  0.00    +0.000 A 
ATOM     13  C   UNL     1     110.487 126.657 139.146  0.00  0.00    +0.000 A 
ATOM     14  C   UNL     1     109.831 127.192 139.293  0.00  0.00    +0.000 A 
ENDROOT
BRANCH   7  16
ATOM     15  O   UNL     1     114.872 124.529 137.428  0.00  0.00    +0.000 OA
ATOM     16  C   UNL     1     112.990 126.082 137.840  0.00  0.00    +0.000 A 
ATOM     17  C   UNL     1     112.913 125.481 137.281  0.00  0.00    +0.000 A 
ATOM     18  C   UNL     1     113.694 126.166 138.262  0.00  0.00    +0.000 A 
ATOM     19  C   UNL     1     113.541 124.963 137.144  0.00  0.00    +0.000 A 
ATOM     20  C   UNL     1     114.321 125.649 138.125  0.00  0.00    +0.000 A 
ATOM     21  C   UNL     1     114.245 125.047 137.566  0.00  0.00    +0.000 A 
BRANCH  19  22
ATOM     22  O   UNL     1     113.464 124.361 136.585  0.00  0.00    +0.000 OA
ATOM     23  C   UNL     1     112.764 123.928 136.538  0.00  0.00    +0.000 C 
ENDBRANCH  19  22
ENDBRANCH   7  16
BRANCH   6  24
ATOM     24  O   UNL     1     110.457 128.923 138.016  0.00  0.00    +0.000 OA
BRANCH  24  32
ATOM     25  O   UNL     1     109.662 128.477 136.915  0.00  0.00    +0.000 OA
ATOM     26  O   UNL     1     108.759 130.765 136.640  0.00  0.00    +0.000 OA
ATOM     27  O   UNL     1     109.855 130.448 137.832  0.00  0.00    +0.000 OA
ATOM     28  O   UNL     1     108.267 129.557 135.631  0.00  0.00    +0.000 OA
ATOM     29  C   UNL     1     109.060 130.002 136.731  0.00  0.00    +0.000 C 
ATOM     30  C   UNL     1     109.609 129.843 137.328  0.00  0.00    +0.000 C 
ATOM     31  C   UNL     1     108.814 129.398 136.227  0.00  0.00    +0.000 C 
ATOM     32  C   UNL     1     109.910 129.081 137.420  0.00  0.00    +0.000 C 
ATOM     33  C   UNL     1     109.115 128.635 136.319  0.00  0.00    +0.000 C 
BRANCH  33  36
ATOM     34  O   UNL     1     108.171 127.620 135.972  0.00  0.00    +0.000 OA
ATOM     35  O   UNL     1     109.320 127.838 135.152  0.00  0.00    +0.000 OA
ATOM     36  C   UNL     1     108.869 128.031 135.815  0.00  0.00    +0.000 C 
ENDBRANCH  33  36
ENDBRANCH  24  32
ENDBRANCH   6  24
TORSDOF 5
ENDMDL
MODEL 5
REMARK VINA RESULT:      -9.2     10.117     11.137
REMARK  Name = 131835088
REMARK  5 active torsions:
REMARK  status: ('A' for Active; 'I' for Inactive)
REMARK    1  A    between atoms: O_2  and  C_18
REMARK    2  A    between atoms: O_2  and  C_20
REMARK    3  A    between atoms: O_13  and  C_33
REMARK    4  A    between atoms: C_19  and  C_24
REMARK    5  A    between atoms: C_21  and  C_27
REMARK                            x       y       z     vdW  Elec       q    Type
REMARK                         _______ _______ _______ _____ _____    ______ ____
ROOT
ATOM      1  O   UNL     1     106.320 126.706 146.781  0.00  0.00    +0.000 OA
ATOM      2  O   UNL     1     106.905 124.860 145.772  0.00  0.00    +0.000 OA
ATOM      3  O   UNL     1     106.214 125.691 144.525  0.00  0.00    +0.000 OA
ATOM      4  O   UNL     1     104.912 128.404 144.249  0.00  0.00    +0.000 OA
ATOM      5  O   UNL     1     104.984 129.096 145.789  0.00  0.00    +0.000 OA
ATOM      6  C   UNL     1     105.582 127.205 144.747  0.00  0.00    +0.000 A 
ATOM      7  C   UNL     1     106.630 125.952 146.652  0.00  0.00    +0.000 C 
ATOM      8  C   UNL     1     105.939 126.783 145.405  0.00  0.00    +0.000 A 
ATOM      9  C   UNL     1     106.595 125.614 145.901  0.00  0.00    +0.000 C 
ATOM     10  C   UNL     1     105.974 127.122 146.157  0.00  0.00    +0.000 A 
ATOM     11  C   UNL     1     106.249 126.030 145.277  0.00  0.00    +0.000 C 
ATOM     12  C   UNL     1     105.257 127.990 144.875  0.00  0.00    +0.000 A 
ATOM     13  C   UNL     1     105.655 127.905 146.303  0.00  0.00    +0.000 A 
ATOM     14  C   UNL     1     105.294 128.343 145.657  0.00  0.00    +0.000 A 
ENDROOT
BRANCH   7  16
ATOM     15  O   UNL     1     108.014 124.290 149.145  0.00  0.00    +0.000 OA
ATOM     16  C   UNL     1     106.975 125.536 147.276  0.00  0.00    +0.000 A 
ATOM     17  C   UNL     1     106.502 125.121 147.807  0.00  0.00    +0.000 A 
ATOM     18  C   UNL     1     107.795 125.537 147.366  0.00  0.00    +0.000 A 
ATOM     19  C   UNL     1     106.848 124.705 148.430  0.00  0.00    +0.000 A 
ATOM     20  C   UNL     1     108.141 125.121 147.989  0.00  0.00    +0.000 A 
ATOM     21  C   UNL     1     107.668 124.705 148.522  0.00  0.00    +0.000 A 
BRANCH  19  22
ATOM     22  O   UNL     1     106.374 124.290 148.963  0.00  0.00    +0.000 OA
ATOM     23  C   UNL     1     105.683 124.633 149.255  0.00  0.00    +0.000 C 
ENDBRANCH  19  22
ENDBRANCH   7  16
BRANCH   6  24
ATOM     24  O   UNL     1     105.551 126.859 143.999  0.00  0.00    +0.000 OA
BRANCH  24  32
ATOM     25  O   UNL     1     106.728 127.530 143.543  0.00  0.00    +0.000 OA
ATOM     26  O   UNL     1     105.910 127.377 141.211  0.00  0.00    +0.000 OA
ATOM     27  O   UNL     1     105.006 126.757 142.445  0.00  0.00    +0.000 OA
ATOM     28  O   UNL     1     107.358 128.098 141.532  0.00  0.00    +0.000 OA
ATOM     29  C   UNL     1     106.183 127.428 141.988  0.00  0.00    +0.000 C 
ATOM     30  C   UNL     1     105.730 127.118 142.606  0.00  0.00    +0.000 C 
ATOM     31  C   UNL     1     106.907 127.789 142.149  0.00  0.00    +0.000 C 
ATOM     32  C   UNL     1     106.003 127.169 143.383  0.00  0.00    +0.000 C 
ATOM     33  C   UNL     1     107.179 127.840 142.927  0.00  0.00    +0.000 C 
BRANCH  33  36
ATOM     34  O   UNL     1     108.591 127.746 143.127  0.00  0.00    +0.000 OA
ATOM     35  O   UNL     1     107.940 129.016 143.207  0.00  0.00    +0.000 OA
ATOM     36  C   UNL     1     107.903 128.200 143.087  0.00  0.00    +0.000 C 
ENDBRANCH  33  36
ENDBRANCH  24  32
ENDBRANCH   6  24
TORSDOF 5
ENDMDL
MODEL 6
REMARK VINA RESULT:      -9.1     12.421     13.522
REMARK  Name = 131835088
REMARK  5 active torsions:
REMARK  status: ('A' for Active; 'I' for Inactive)
REMARK    1  A    between atoms: O_2  and  C_18
REMARK    2  A    between atoms: O_2  and  C_20
REMARK    3  A    between atoms: O_13  and  C_33
REMARK    4  A    between atoms: C_19  and  C_24
REMARK    5  A    between atoms: C_21  and  C_27
REMARK                            x       y       z     vdW  Elec       q    Type
REMARK                         _______ _______ _______ _____ _____    ______ ____
ROOT
ATOM      1  O   UNL     1     104.245 124.561 147.894  0.00  0.00    +0.000 OA
ATOM      2  O   UNL     1     102.847 124.312 146.237  0.00  0.00    +0.000 OA
ATOM      3  O   UNL     1     104.262 124.530 145.419  0.00  0.00    +0.000 OA
ATOM      4  O   UNL     1     107.132 125.005 146.238  0.00  0.00    +0.000 OA
ATOM      5  O   UNL     1     107.120 125.026 147.928  0.00  0.00    +0.000 OA
ATOM      6  C   UNL     1     105.691 124.772 146.222  0.00  0.00    +0.000 A 
ATOM      7  C   UNL     1     103.543 124.442 147.478  0.00  0.00    +0.000 C 
ATOM      8  C   UNL     1     104.959 124.659 146.660  0.00  0.00    +0.000 A 
ATOM      9  C   UNL     1     103.548 124.431 146.653  0.00  0.00    +0.000 C 
ATOM     10  C   UNL     1     104.954 124.670 147.485  0.00  0.00    +0.000 A 
ATOM     11  C   UNL     1     104.257 124.540 146.244  0.00  0.00    +0.000 C 
ATOM     12  C   UNL     1     106.425 124.896 146.650  0.00  0.00    +0.000 A 
ATOM     13  C   UNL     1     105.679 124.793 147.929  0.00  0.00    +0.000 A 
ATOM     14  C   UNL     1     106.419 124.907 147.509  0.00  0.00    +0.000 A 
ENDROOT
BRANCH   7  16
ATOM     15  O   UNL     1     100.710 124.003 149.112  0.00  0.00    +0.000 OA
ATOM     16  C   UNL     1     102.835 124.333 147.887  0.00  0.00    +0.000 A 
ATOM     17  C   UNL     1     102.423 124.983 148.180  0.00  0.00    +0.000 A 
ATOM     18  C   UNL     1     102.539 123.571 148.002  0.00  0.00    +0.000 A 
ATOM     19  C   UNL     1     101.715 124.874 148.588  0.00  0.00    +0.000 A 
ATOM     20  C   UNL     1     101.831 123.462 148.410  0.00  0.00    +0.000 A 
ATOM     21  C   UNL     1     101.418 124.113 148.704  0.00  0.00    +0.000 A 
BRANCH  19  22
ATOM     22  O   UNL     1     101.303 125.526 148.882  0.00  0.00    +0.000 OA
ATOM     23  C   UNL     1     101.713 126.201 149.119  0.00  0.00    +0.000 C 
ENDBRANCH  19  22
ENDBRANCH   7  16
BRANCH   6  24
ATOM     24  O   UNL     1     105.687 124.760 145.397  0.00  0.00    +0.000 OA
BRANCH  24  32
ATOM     25  O   UNL     1     105.653 126.186 145.306  0.00  0.00    +0.000 OA
ATOM     26  O   UNL     1     106.639 126.065 143.039  0.00  0.00    +0.000 OA
ATOM     27  O   UNL     1     106.344 124.679 143.886  0.00  0.00    +0.000 OA
ATOM     28  O   UNL     1     106.276 127.530 143.704  0.00  0.00    +0.000 OA
ATOM     29  C   UNL     1     106.310 126.105 143.795  0.00  0.00    +0.000 C 
ATOM     30  C   UNL     1     106.163 125.412 144.219  0.00  0.00    +0.000 C 
ATOM     31  C   UNL     1     106.128 126.837 144.128  0.00  0.00    +0.000 C 
ATOM     32  C   UNL     1     105.834 125.452 144.974  0.00  0.00    +0.000 C 
ATOM     33  C   UNL     1     105.800 126.878 144.883  0.00  0.00    +0.000 C 
BRANCH  33  36
ATOM     34  O   UNL     1     106.207 128.052 145.587  0.00  0.00    +0.000 OA
ATOM     35  O   UNL     1     104.848 127.902 145.175  0.00  0.00    +0.000 OA
ATOM     36  C   UNL     1     105.619 127.610 145.215  0.00  0.00    +0.000 C 
ENDBRANCH  33  36
ENDBRANCH  24  32
ENDBRANCH   6  24
TORSDOF 5
ENDMDL
MODEL 7
REMARK VINA RESULT:      -9.1      1.405      5.516
REMARK  Name = 131835088
REMARK  5 active torsions:
REMARK  status: ('A' for Active; 'I' for Inactive)
REMARK    1  A    between atoms: O_2  and  C_18
REMARK    2  A    between atoms: O_2  and  C_20
REMARK    3  A    between atoms: O_13  and  C_33
REMARK    4  A    between atoms: C_19  and  C_24
REMARK    5  A    between atoms: C_21  and  C_27
REMARK                            x       y       z     vdW  Elec       q    Type
REMARK                         _______ _______ _______ _____ _____    ______ ____
ROOT
ATOM      1  O   UNL     1     113.035 128.848 138.337  0.00  0.00    +0.000 OA
ATOM      2  O   UNL     1     112.351 128.762 136.266  0.00  0.00    +0.000 OA
ATOM      3  O   UNL     1     111.921 127.261 136.799  0.00  0.00    +0.000 OA
ATOM      4  O   UNL     1     112.164 125.795 139.430  0.00  0.00    +0.000 OA
ATOM      5  O   UNL     1     112.924 126.879 140.481  0.00  0.00    +0.000 OA
ATOM      6  C   UNL     1     112.220 126.783 138.356  0.00  0.00    +0.000 A 
ATOM      7  C   UNL     1     112.879 129.069 137.558  0.00  0.00    +0.000 C 
ATOM      8  C   UNL     1     112.449 127.568 138.091  0.00  0.00    +0.000 A 
ATOM      9  C   UNL     1     112.508 128.540 137.045  0.00  0.00    +0.000 C 
ATOM     10  C   UNL     1     112.820 128.097 138.604  0.00  0.00    +0.000 A 
ATOM     11  C   UNL     1     112.293 127.789 137.312  0.00  0.00    +0.000 C 
ATOM     12  C   UNL     1     112.380 126.547 139.166  0.00  0.00    +0.000 A 
ATOM     13  C   UNL     1     112.988 127.877 139.417  0.00  0.00    +0.000 A 
ATOM     14  C   UNL     1     112.766 127.097 139.701  0.00  0.00    +0.000 A 
ENDROOT
BRANCH   7  16
ATOM     15  O   UNL     1     113.740 132.071 136.491  0.00  0.00    +0.000 OA
ATOM     16  C   UNL     1     113.094 129.820 137.292  0.00  0.00    +0.000 A 
ATOM     17  C   UNL     1     112.598 130.464 137.428  0.00  0.00    +0.000 A 
ATOM     18  C   UNL     1     113.806 129.925 136.888  0.00  0.00    +0.000 A 
ATOM     19  C   UNL     1     112.813 131.214 137.161  0.00  0.00    +0.000 A 
ATOM     20  C   UNL     1     114.021 130.675 136.621  0.00  0.00    +0.000 A 
ATOM     21  C   UNL     1     113.525 131.320 136.757  0.00  0.00    +0.000 A 
BRANCH  19  22
ATOM     22  O   UNL     1     112.316 131.859 137.297  0.00  0.00    +0.000 OA
ATOM     23  C   UNL     1     111.498 131.754 137.308  0.00  0.00    +0.000 C 
ENDBRANCH  19  22
ENDBRANCH   7  16
BRANCH   6  24
ATOM     24  O   UNL     1     111.849 126.261 137.836  0.00  0.00    +0.000 OA
BRANCH  24  32
ATOM     25  O   UNL     1     113.075 125.642 137.440  0.00  0.00    +0.000 OA
ATOM     26  O   UNL     1     111.851 123.556 136.912  0.00  0.00    +0.000 OA
ATOM     27  O   UNL     1     111.033 124.870 137.484  0.00  0.00    +0.000 OA
ATOM     28  O   UNL     1     113.484 123.633 136.693  0.00  0.00    +0.000 OA
ATOM     29  C   UNL     1     112.259 124.251 137.088  0.00  0.00    +0.000 C 
ATOM     30  C   UNL     1     111.850 124.909 137.374  0.00  0.00    +0.000 C 
ATOM     31  C   UNL     1     113.075 124.290 136.979  0.00  0.00    +0.000 C 
ATOM     32  C   UNL     1     112.258 125.604 137.551  0.00  0.00    +0.000 C 
ATOM     33  C   UNL     1     113.483 124.985 137.155  0.00  0.00    +0.000 C 
BRANCH  33  36
ATOM     34  O   UNL     1     114.608 125.311 136.336  0.00  0.00    +0.000 OA
ATOM     35  O   UNL     1     114.808 124.773 137.644  0.00  0.00    +0.000 OA
ATOM     36  C   UNL     1     114.299 125.023 137.045  0.00  0.00    +0.000 C 
ENDBRANCH  33  36
ENDBRANCH  24  32
ENDBRANCH   6  24
TORSDOF 5
ENDMDL
MODEL 8
REMARK VINA RESULT:      -9.1      1.426      2.757
REMARK  Name = 131835088
REMARK  5 active torsions:
REMARK  status: ('A' for Active; 'I' for Inactive)
REMARK    1  A    between atoms: O_2  and  C_18
REMARK    2  A    between atoms: O_2  and  C_20
REMARK    3  A    between atoms: O_13  and  C_33
REMARK    4  A    between atoms: C_19  and  C_24
REMARK    5  A    between atoms: C_21  and  C_27
REMARK                            x       y       z     vdW  Elec       q    Type
REMARK                         _______ _______ _______ _____ _____    ______ ____
ROOT
ATOM      1  O   UNL     1     111.789 126.606 137.932  0.00  0.00    +0.000 OA
ATOM      2  O   UNL     1     113.090 127.288 136.317  0.00  0.00    +0.000 OA
ATOM      3  O   UNL     1     111.911 128.441 136.275  0.00  0.00    +0.000 OA
ATOM      4  O   UNL     1     109.385 128.948 137.854  0.00  0.00    +0.000 OA
ATOM      5  O   UNL     1     109.302 127.695 138.985  0.00  0.00    +0.000 OA
ATOM      6  C   UNL     1     110.632 128.402 137.327  0.00  0.00    +0.000 A 
ATOM      7  C   UNL     1     112.419 126.641 137.401  0.00  0.00    +0.000 C 
ATOM      8  C   UNL     1     111.240 127.794 137.359  0.00  0.00    +0.000 A 
ATOM      9  C   UNL     1     112.460 127.253 136.848  0.00  0.00    +0.000 C 
ATOM     10  C   UNL     1     111.199 127.183 137.911  0.00  0.00    +0.000 A 
ATOM     11  C   UNL     1     111.870 127.830 136.828  0.00  0.00    +0.000 C 
ATOM     12  C   UNL     1     109.973 128.370 137.877  0.00  0.00    +0.000 A 
ATOM     13  C   UNL     1     110.548 127.136 138.469  0.00  0.00    +0.000 A 
ATOM     14  C   UNL     1     109.931 127.733 138.452  0.00  0.00    +0.000 A 
ENDROOT
BRANCH   7  16
ATOM     15  O   UNL     1     114.780 124.337 137.484  0.00  0.00    +0.000 OA
ATOM     16  C   UNL     1     113.009 126.064 137.421  0.00  0.00    +0.000 A 
ATOM     17  C   UNL     1     112.901 125.349 137.027  0.00  0.00    +0.000 A 
ATOM     18  C   UNL     1     113.708 126.205 137.837  0.00  0.00    +0.000 A 
ATOM     19  C   UNL     1     113.491 124.773 137.048  0.00  0.00    +0.000 A 
ATOM     20  C   UNL     1     114.298 125.629 137.858  0.00  0.00    +0.000 A 
ATOM     21  C   UNL     1     114.190 124.913 137.463  0.00  0.00    +0.000 A 
BRANCH  19  22
ATOM     22  O   UNL     1     113.383 124.057 136.652  0.00  0.00    +0.000 OA
ATOM     23  C   UNL     1     112.643 123.693 136.654  0.00  0.00    +0.000 C 
ENDBRANCH  19  22
ENDBRANCH   7  16
BRANCH   6  24
ATOM     24  O   UNL     1     110.681 129.010 136.771  0.00  0.00    +0.000 OA
BRANCH  24  32
ATOM     25  O   UNL     1     111.328 129.906 137.677  0.00  0.00    +0.000 OA
ATOM     26  O   UNL     1     110.403 131.833 136.428  0.00  0.00    +0.000 OA
ATOM     27  O   UNL     1     110.065 130.294 135.939  0.00  0.00    +0.000 OA
ATOM     28  O   UNL     1     111.357 132.087 137.749  0.00  0.00    +0.000 OA
ATOM     29  C   UNL     1     110.711 131.191 136.844  0.00  0.00    +0.000 C 
ATOM     30  C   UNL     1     110.542 130.421 136.600  0.00  0.00    +0.000 C 
ATOM     31  C   UNL     1     111.188 131.318 137.505  0.00  0.00    +0.000 C 
ATOM     32  C   UNL     1     110.850 129.778 137.016  0.00  0.00    +0.000 C 
ATOM     33  C   UNL     1     111.497 130.675 137.921  0.00  0.00    +0.000 C 
BRANCH  33  36
ATOM     34  O   UNL     1     112.794 130.827 138.500  0.00  0.00    +0.000 OA
ATOM     35  O   UNL     1     111.630 130.906 139.325  0.00  0.00    +0.000 OA
ATOM     36  C   UNL     1     111.973 130.803 138.582  0.00  0.00    +0.000 C 
ENDBRANCH  33  36
ENDBRANCH  24  32
ENDBRANCH   6  24
TORSDOF 5
ENDMDL
MODEL 9
REMARK VINA RESULT:      -9.0      2.451      3.871
REMARK  Name = 131835088
REMARK  5 active torsions:
REMARK  status: ('A' for Active; 'I' for Inactive)
REMARK    1  A    between atoms: O_2  and  C_18
REMARK    2  A    between atoms: O_2  and  C_20
REMARK    3  A    between atoms: O_13  and  C_33
REMARK    4  A    between atoms: C_19  and  C_24
REMARK    5  A    between atoms: C_21  and  C_27
REMARK                            x       y       z     vdW  Elec       q    Type
REMARK                         _______ _______ _______ _____ _____    ______ ____
ROOT
ATOM      1  O   UNL     1     113.350 129.610 137.527  0.00  0.00    +0.000 OA
ATOM      2  O   UNL     1     112.156 130.927 138.795  0.00  0.00    +0.000 OA
ATOM      3  O   UNL     1     111.238 130.897 137.425  0.00  0.00    +0.000 OA
ATOM      4  O   UNL     1     111.488 129.545 134.734  0.00  0.00    +0.000 OA
ATOM      5  O   UNL     1     112.930 128.666 134.804  0.00  0.00    +0.000 OA
ATOM      6  C   UNL     1     111.700 130.018 136.099  0.00  0.00    +0.000 A 
ATOM      7  C   UNL     1     113.105 130.054 138.178  0.00  0.00    +0.000 C 
ATOM      8  C   UNL     1     112.187 130.025 136.808  0.00  0.00    +0.000 A 
ATOM      9  C   UNL     1     112.401 130.483 138.144  0.00  0.00    +0.000 C 
ATOM     10  C   UNL     1     112.891 129.595 136.841  0.00  0.00    +0.000 A 
ATOM     11  C   UNL     1     111.942 130.468 137.458  0.00  0.00    +0.000 C 
ATOM     12  C   UNL     1     111.950 129.557 135.418  0.00  0.00    +0.000 A 
ATOM     13  C   UNL     1     113.156 129.130 136.170  0.00  0.00    +0.000 A 
ATOM     14  C   UNL     1     112.683 129.111 135.454  0.00  0.00    +0.000 A 
ENDROOT
BRANCH   7  16
ATOM     15  O   UNL     1     114.942 130.115 140.919  0.00  0.00    +0.000 OA
ATOM     16  C   UNL     1     113.564 130.069 138.864  0.00  0.00    +0.000 A 
ATOM     17  C   UNL     1     113.443 129.507 139.454  0.00  0.00    +0.000 A 
ATOM     18  C   UNL     1     114.145 130.647 138.958  0.00  0.00    +0.000 A 
ATOM     19  C   UNL     1     113.902 129.522 140.139  0.00  0.00    +0.000 A 
ATOM     20  C   UNL     1     114.604 130.662 139.643  0.00  0.00    +0.000 A 
ATOM     21  C   UNL     1     114.483 130.100 140.234  0.00  0.00    +0.000 A 
BRANCH  19  22
ATOM     22  O   UNL     1     113.780 128.959 140.731  0.00  0.00    +0.000 OA
ATOM     23  C   UNL     1     113.728 128.160 140.534  0.00  0.00    +0.000 C 
ENDBRANCH  19  22
ENDBRANCH   7  16
BRANCH   6  24
ATOM     24  O   UNL     1     110.997 130.450 136.074  0.00  0.00    +0.000 OA
BRANCH  24  32
ATOM     25  O   UNL     1     110.192 129.322 136.423  0.00  0.00    +0.000 OA
ATOM     26  O   UNL     1     108.255 130.350 135.275  0.00  0.00    +0.000 OA
ATOM     27  O   UNL     1     109.706 131.135 135.309  0.00  0.00    +0.000 OA
ATOM     28  O   UNL     1     108.096 128.880 136.006  0.00  0.00    +0.000 OA
ATOM     29  C   UNL     1     108.901 130.007 135.657  0.00  0.00    +0.000 C 
ATOM     30  C   UNL     1     109.627 130.400 135.675  0.00  0.00    +0.000 C 
ATOM     31  C   UNL     1     108.822 129.272 136.023  0.00  0.00    +0.000 C 
ATOM     32  C   UNL     1     110.273 130.057 136.057  0.00  0.00    +0.000 C 
ATOM     33  C   UNL     1     109.468 128.929 136.406  0.00  0.00    +0.000 C 
BRANCH  33  36
ATOM     34  O   UNL     1     109.460 127.502 136.328  0.00  0.00    +0.000 OA
ATOM     35  O   UNL     1     109.235 128.151 137.581  0.00  0.00    +0.000 OA
ATOM     36  C   UNL     1     109.388 128.195 136.771  0.00  0.00    +0.000 C 
ENDBRANCH  33  36
ENDBRANCH  24  32
ENDBRANCH   6  24
TORSDOF 5
ENDMDL
MODEL 10
REMARK VINA RESULT:      -9.0      1.889      4.842
REMARK  Name = 131835088
REMARK  5 active torsions:
REMARK  status: ('A' for Active; 'I' for Inactive)
REMARK    1  A    between atoms: O_2  and  C_18
REMARK    2  A    between atoms: O_2  and  C_20
REMARK    3  A    between atoms: O_13  and  C_33
REMARK    4  A    between atoms: C_19  and  C_24
REMARK    5  A    between atoms: C_21  and  C_27
REMARK                            x       y       z     vdW  Elec       q    Type
REMARK                         _______ _______ _______ _____ _____    ______ ____
ROOT
ATOM      1  O   UNL     1     112.495 128.729 135.296  0.00  0.00    +0.000 OA
ATOM      2  O   UNL     1     114.222 127.935 136.369  0.00  0.00    +0.000 OA
ATOM      3  O   UNL     1     113.170 126.671 136.493  0.00  0.00    +0.000 OA
ATOM      4  O   UNL     1     110.348 126.161 135.543  0.00  0.00    +0.000 OA
ATOM      5  O   UNL     1     109.887 127.566 134.725  0.00  0.00    +0.000 OA
ATOM      6  C   UNL     1     111.655 126.745 135.828  0.00  0.00    +0.000 A 
ATOM      7  C   UNL     1     113.246 128.675 135.633  0.00  0.00    +0.000 C 
ATOM      8  C   UNL     1     112.194 127.411 135.757  0.00  0.00    +0.000 A 
ATOM      9  C   UNL     1     113.472 127.990 136.032  0.00  0.00    +0.000 C 
ATOM     10  C   UNL     1     111.969 128.097 135.358  0.00  0.00    +0.000 A 
ATOM     11  C   UNL     1     112.945 127.357 136.094  0.00  0.00    +0.000 C 
ATOM     12  C   UNL     1     110.872 126.795 135.479  0.00  0.00    +0.000 A 
ATOM     13  C   UNL     1     111.190 128.164 135.003  0.00  0.00    +0.000 A 
ATOM     14  C   UNL     1     110.637 127.509 135.064  0.00  0.00    +0.000 A 
ENDROOT
BRANCH   7  16
ATOM     15  O   UNL     1     115.353 131.203 135.384  0.00  0.00    +0.000 OA
ATOM     16  C   UNL     1     113.773 129.308 135.571  0.00  0.00    +0.000 A 
ATOM     17  C   UNL     1     113.727 129.936 136.102  0.00  0.00    +0.000 A 
ATOM     18  C   UNL     1     114.345 129.311 134.977  0.00  0.00    +0.000 A 
ATOM     19  C   UNL     1     114.254 130.568 136.040  0.00  0.00    +0.000 A 
ATOM     20  C   UNL     1     114.871 129.942 134.914  0.00  0.00    +0.000 A 
ATOM     21  C   UNL     1     114.826 130.572 135.446  0.00  0.00    +0.000 A 
BRANCH  19  22
ATOM     22  O   UNL     1     114.208 131.198 136.572  0.00  0.00    +0.000 OA
ATOM     23  C   UNL     1     113.500 131.354 136.965  0.00  0.00    +0.000 C 
ENDBRANCH  19  22
ENDBRANCH   7  16
BRANCH   6  24
ATOM     24  O   UNL     1     111.889 126.063 136.229  0.00  0.00    +0.000 OA
BRANCH  24  32
ATOM     25  O   UNL     1     111.289 126.505 137.449  0.00  0.00    +0.000 OA
ATOM     26  O   UNL     1     111.210 124.167 138.258  0.00  0.00    +0.000 OA
ATOM     27  O   UNL     1     111.836 124.504 136.769  0.00  0.00    +0.000 OA
ATOM     28  O   UNL     1     110.637 125.389 139.207  0.00  0.00    +0.000 OA
ATOM     29  C   UNL     1     111.237 124.947 137.988  0.00  0.00    +0.000 C 
ATOM     30  C   UNL     1     111.550 125.115 137.243  0.00  0.00    +0.000 C 
ATOM     31  C   UNL     1     110.950 125.558 138.462  0.00  0.00    +0.000 C 
ATOM     32  C   UNL     1     111.576 125.894 136.973  0.00  0.00    +0.000 C 
ATOM     33  C   UNL     1     110.976 126.337 138.193  0.00  0.00    +0.000 C 
BRANCH  33  36
ATOM     34  O   UNL     1     111.207 127.374 139.148  0.00  0.00    +0.000 OA
ATOM     35  O   UNL     1     109.886 127.131 138.661  0.00  0.00    +0.000 OA
ATOM     36  C   UNL     1     110.690 126.947 138.667  0.00  0.00    +0.000 C 
ENDBRANCH  33  36
ENDBRANCH  24  32
ENDBRANCH   6  24
TORSDOF 5
ENDMDL
