MODEL 1
REMARK VINA RESULT:      -9.6      0.000      0.000
REMARK  Name = 42608115
REMARK  4 active torsions:
REMARK  status: ('A' for Active; 'I' for Inactive)
REMARK    1  A    between atoms: O_2  and  C_16
REMARK    2  A    between atoms: O_2  and  C_18
REMARK    3  A    between atoms: C_15  and  C_17
REMARK    4  A    between atoms: C_20  and  C_25
REMARK                            x       y       z     vdW  Elec       q    Type
REMARK                         _______ _______ _______ _____ _____    ______ ____
ROOT
ATOM      1  O   UNL     1     112.752 126.468 136.468  0.00  0.00    +0.000 OA
ATOM      2  O   UNL     1     111.279 123.994 136.376  0.00  0.00    +0.000 OA
ATOM      3  O   UNL     1     114.822 125.172 137.137  0.00  0.00    +0.000 OA
ATOM      4  O   UNL     1     114.050 123.954 137.079  0.00  0.00    +0.000 OA
ATOM      5  C   UNL     1     112.021 125.214 136.426  0.00  0.00    +0.000 A 
ATOM      6  C   UNL     1     112.731 125.615 136.559  0.00  0.00    +0.000 A 
ATOM      7  C   UNL     1     113.488 126.891 136.606  0.00  0.00    +0.000 C 
ATOM      8  C   UNL     1     114.192 126.454 136.833  0.00  0.00    +0.000 C 
ATOM      9  C   UNL     1     113.407 125.195 136.777  0.00  0.00    +0.000 A 
ATOM     10  C   UNL     1     114.151 125.600 136.919  0.00  0.00    +0.000 C 
ATOM     11  C   UNL     1     111.989 124.394 136.510  0.00  0.00    +0.000 A 
ATOM     12  C   UNL     1     113.373 124.375 136.861  0.00  0.00    +0.000 A 
ATOM     13  C   UNL     1     112.665 123.975 136.728  0.00  0.00    +0.000 A 
ENDROOT
BRANCH   7  15
ATOM     14  O   UNL     1     113.608 130.171 136.267  0.00  0.00    +0.000 OA
ATOM     15  C   UNL     1     113.518 127.712 136.521  0.00  0.00    +0.000 A 
ATOM     16  C   UNL     1     113.763 128.044 135.807  0.00  0.00    +0.000 A 
ATOM     17  C   UNL     1     113.302 128.200 137.150  0.00  0.00    +0.000 A 
ATOM     18  C   UNL     1     113.793 128.864 135.722  0.00  0.00    +0.000 A 
ATOM     19  C   UNL     1     113.332 129.019 137.066  0.00  0.00    +0.000 A 
ATOM     20  C   UNL     1     113.578 129.352 136.352  0.00  0.00    +0.000 A 
ENDBRANCH   7  15
BRANCH   5  21
ATOM     21  O   UNL     1     111.346 125.633 136.208  0.00  0.00    +0.000 OA
BRANCH  21  30
ATOM     22  O   UNL     1     110.920 125.656 137.572  0.00  0.00    +0.000 OA
ATOM     23  O   UNL     1     108.890 126.914 136.918  0.00  0.00    +0.000 OA
ATOM     24  O   UNL     1     109.142 126.517 138.499  0.00  0.00    +0.000 OA
ATOM     25  O   UNL     1     109.993 126.471 135.772  0.00  0.00    +0.000 OA
ATOM     26  C   UNL     1     109.568 126.494 137.136  0.00  0.00    +0.000 C 
ATOM     27  C   UNL     1     109.693 126.296 137.926  0.00  0.00    +0.000 C 
ATOM     28  C   UNL     1     110.118 126.274 136.562  0.00  0.00    +0.000 C 
ATOM     29  C   UNL     1     110.369 125.877 138.144  0.00  0.00    +0.000 C 
ATOM     30  C   UNL     1     110.795 125.855 136.780  0.00  0.00    +0.000 C 
BRANCH  29  32
ATOM     31  O   UNL     1     111.137 126.001 139.343  0.00  0.00    +0.000 OA
ATOM     32  C   UNL     1     110.495 125.679 138.935  0.00  0.00    +0.000 C 
ENDBRANCH  29  32
ENDBRANCH  21  30
ENDBRANCH   5  21
TORSDOF 4
ENDMDL
MODEL 2
REMARK VINA RESULT:      -9.4      1.244      3.463
REMARK  Name = 42608115
REMARK  4 active torsions:
REMARK  status: ('A' for Active; 'I' for Inactive)
REMARK    1  A    between atoms: O_2  and  C_16
REMARK    2  A    between atoms: O_2  and  C_18
REMARK    3  A    between atoms: C_15  and  C_17
REMARK    4  A    between atoms: C_20  and  C_25
REMARK                            x       y       z     vdW  Elec       q    Type
REMARK                         _______ _______ _______ _____ _____    ______ ____
ROOT
ATOM      1  O   UNL     1     112.024 125.801 136.190  0.00  0.00    +0.000 OA
ATOM      2  O   UNL     1     114.828 125.955 136.833  0.00  0.00    +0.000 OA
ATOM      3  O   UNL     1     112.047 123.350 136.824  0.00  0.00    +0.000 OA
ATOM      4  O   UNL     1     113.452 123.467 137.136  0.00  0.00    +0.000 OA
ATOM      5  C   UNL     1     113.437 125.865 136.518  0.00  0.00    +0.000 A 
ATOM      6  C   UNL     1     112.744 125.420 136.463  0.00  0.00    +0.000 A 
ATOM      7  C   UNL     1     111.298 125.343 136.131  0.00  0.00    +0.000 C 
ATOM      8  C   UNL     1     111.303 124.511 136.345  0.00  0.00    +0.000 C 
ATOM      9  C   UNL     1     112.748 124.621 136.669  0.00  0.00    +0.000 A 
ATOM     10  C   UNL     1     112.034 124.148 136.616  0.00  0.00    +0.000 C 
ATOM     11  C   UNL     1     114.134 125.510 136.778  0.00  0.00    +0.000 A 
ATOM     12  C   UNL     1     113.447 124.267 136.930  0.00  0.00    +0.000 A 
ATOM     13  C   UNL     1     114.139 124.711 136.984  0.00  0.00    +0.000 A 
ENDROOT
BRANCH   7  15
ATOM     14  O   UNL     1     108.513 126.772 135.088  0.00  0.00    +0.000 OA
ATOM     15  C   UNL     1     110.602 125.700 135.869  0.00  0.00    +0.000 A 
ATOM     16  C   UNL     1     110.384 125.649 135.076  0.00  0.00    +0.000 A 
ATOM     17  C   UNL     1     110.123 126.109 136.403  0.00  0.00    +0.000 A 
ATOM     18  C   UNL     1     109.687 126.006 134.815  0.00  0.00    +0.000 A 
ATOM     19  C   UNL     1     109.427 126.466 136.143  0.00  0.00    +0.000 A 
ATOM     20  C   UNL     1     109.209 126.415 135.348  0.00  0.00    +0.000 A 
ENDBRANCH   7  15
BRANCH   5  21
ATOM     21  O   UNL     1     113.432 126.663 136.312  0.00  0.00    +0.000 OA
BRANCH  21  30
ATOM     22  O   UNL     1     113.234 127.015 137.683  0.00  0.00    +0.000 OA
ATOM     23  O   UNL     1     113.283 129.414 137.073  0.00  0.00    +0.000 OA
ATOM     24  O   UNL     1     113.069 128.966 138.646  0.00  0.00    +0.000 OA
ATOM     25  O   UNL     1     113.465 128.262 135.906  0.00  0.00    +0.000 OA
ATOM     26  C   UNL     1     113.267 128.614 137.276  0.00  0.00    +0.000 C 
ATOM     27  C   UNL     1     113.160 128.391 138.062  0.00  0.00    +0.000 C 
ATOM     28  C   UNL     1     113.358 128.038 136.692  0.00  0.00    +0.000 C 
ATOM     29  C   UNL     1     113.143 127.591 138.266  0.00  0.00    +0.000 C 
ATOM     30  C   UNL     1     113.342 127.239 136.895  0.00  0.00    +0.000 C 
BRANCH  29  32
ATOM     31  O   UNL     1     112.331 127.007 139.286  0.00  0.00    +0.000 OA
ATOM     32  C   UNL     1     113.036 127.367 139.052  0.00  0.00    +0.000 C 
ENDBRANCH  29  32
ENDBRANCH  21  30
ENDBRANCH   5  21
TORSDOF 4
ENDMDL
MODEL 3
REMARK VINA RESULT:      -9.3      9.689     12.778
REMARK  Name = 42608115
REMARK  4 active torsions:
REMARK  status: ('A' for Active; 'I' for Inactive)
REMARK    1  A    between atoms: O_2  and  C_16
REMARK    2  A    between atoms: O_2  and  C_18
REMARK    3  A    between atoms: C_15  and  C_17
REMARK    4  A    between atoms: C_20  and  C_25
REMARK                            x       y       z     vdW  Elec       q    Type
REMARK                         _______ _______ _______ _____ _____    ______ ____
ROOT
ATOM      1  O   UNL     1     104.698 124.563 147.106  0.00  0.00    +0.000 OA
ATOM      2  O   UNL     1     107.502 125.122 146.748  0.00  0.00    +0.000 OA
ATOM      3  O   UNL     1     104.933 125.128 149.563  0.00  0.00    +0.000 OA
ATOM      4  O   UNL     1     106.334 125.398 149.343  0.00  0.00    +0.000 OA
ATOM      5  C   UNL     1     106.112 124.848 146.939  0.00  0.00    +0.000 A 
ATOM      6  C   UNL     1     105.454 124.803 147.436  0.00  0.00    +0.000 A 
ATOM      7  C   UNL     1     104.008 124.514 147.618  0.00  0.00    +0.000 C 
ATOM      8  C   UNL     1     104.085 124.705 148.452  0.00  0.00    +0.000 C 
ATOM      9  C   UNL     1     105.528 124.986 148.237  0.00  0.00    +0.000 A 
ATOM     10  C   UNL     1     104.851 124.943 148.763  0.00  0.00    +0.000 C 
ATOM     11  C   UNL     1     106.843 125.077 147.245  0.00  0.00    +0.000 A 
ATOM     12  C   UNL     1     106.260 125.215 148.541  0.00  0.00    +0.000 A 
ATOM     13  C   UNL     1     106.917 125.260 148.046  0.00  0.00    +0.000 A 
ENDROOT
BRANCH   7  15
ATOM     14  O   UNL     1     101.087 123.597 146.387  0.00  0.00    +0.000 OA
ATOM     15  C   UNL     1     103.278 124.285 147.310  0.00  0.00    +0.000 A 
ATOM     16  C   UNL     1     102.672 124.838 147.231  0.00  0.00    +0.000 A 
ATOM     17  C   UNL     1     103.154 123.502 147.082  0.00  0.00    +0.000 A 
ATOM     18  C   UNL     1     101.941 124.609 146.923  0.00  0.00    +0.000 A 
ATOM     19  C   UNL     1     102.424 123.272 146.774  0.00  0.00    +0.000 A 
ATOM     20  C   UNL     1     101.817 123.826 146.694  0.00  0.00    +0.000 A 
ENDBRANCH   7  15
BRANCH   5  21
ATOM     21  O   UNL     1     106.038 124.665 146.139  0.00  0.00    +0.000 OA
BRANCH  21  30
ATOM     22  O   UNL     1     105.842 126.043 145.818  0.00  0.00    +0.000 OA
ATOM     23  O   UNL     1     106.199 125.536 143.421  0.00  0.00    +0.000 OA
ATOM     24  O   UNL     1     105.884 127.083 143.900  0.00  0.00    +0.000 OA
ATOM     25  O   UNL     1     106.276 124.327 144.542  0.00  0.00    +0.000 OA
ATOM     26  C   UNL     1     106.080 125.705 144.221  0.00  0.00    +0.000 C 
ATOM     27  C   UNL     1     105.923 126.479 144.459  0.00  0.00    +0.000 C 
ATOM     28  C   UNL     1     106.119 125.100 144.780  0.00  0.00    +0.000 C 
ATOM     29  C   UNL     1     105.804 126.648 145.258  0.00  0.00    +0.000 C 
ATOM     30  C   UNL     1     106.000 125.269 145.579  0.00  0.00    +0.000 C 
BRANCH  29  32
ATOM     31  O   UNL     1     104.933 127.599 145.874  0.00  0.00    +0.000 OA
ATOM     32  C   UNL     1     105.646 127.421 145.498  0.00  0.00    +0.000 C 
ENDBRANCH  29  32
ENDBRANCH  21  30
ENDBRANCH   5  21
TORSDOF 4
ENDMDL
MODEL 4
REMARK VINA RESULT:      -9.2      1.704      3.783
REMARK  Name = 42608115
REMARK  4 active torsions:
REMARK  status: ('A' for Active; 'I' for Inactive)
REMARK    1  A    between atoms: O_2  and  C_16
REMARK    2  A    between atoms: O_2  and  C_18
REMARK    3  A    between atoms: C_15  and  C_17
REMARK    4  A    between atoms: C_20  and  C_25
REMARK                            x       y       z     vdW  Elec       q    Type
REMARK                         _______ _______ _______ _____ _____    ______ ____
ROOT
ATOM      1  O   UNL     1     112.248 126.687 136.015  0.00  0.00    +0.000 OA
ATOM      2  O   UNL     1     110.668 128.646 134.613  0.00  0.00    +0.000 OA
ATOM      3  O   UNL     1     110.474 124.950 135.519  0.00  0.00    +0.000 OA
ATOM      4  O   UNL     1     109.712 125.960 134.825  0.00  0.00    +0.000 OA
ATOM      5  C   UNL     1     111.442 127.665 135.306  0.00  0.00    +0.000 A 
ATOM      6  C   UNL     1     111.541 126.890 135.572  0.00  0.00    +0.000 A 
ATOM      7  C   UNL     1     112.357 125.882 136.295  0.00  0.00    +0.000 C 
ATOM      8  C   UNL     1     111.757 125.290 136.129  0.00  0.00    +0.000 C 
ATOM      9  C   UNL     1     110.964 126.322 135.412  0.00  0.00    +0.000 A 
ATOM     10  C   UNL     1     111.055 125.512 135.684  0.00  0.00    +0.000 C 
ATOM     11  C   UNL     1     110.767 127.871 134.879  0.00  0.00    +0.000 A 
ATOM     12  C   UNL     1     110.289 126.529 134.985  0.00  0.00    +0.000 A 
ATOM     13  C   UNL     1     110.190 127.303 134.719  0.00  0.00    +0.000 A 
ENDROOT
BRANCH   7  15
ATOM     14  O   UNL     1     115.063 125.066 137.999  0.00  0.00    +0.000 OA
ATOM     15  C   UNL     1     113.033 125.678 136.722  0.00  0.00    +0.000 A 
ATOM     16  C   UNL     1     113.042 125.753 137.543  0.00  0.00    +0.000 A 
ATOM     17  C   UNL     1     113.701 125.398 136.326  0.00  0.00    +0.000 A 
ATOM     18  C   UNL     1     113.719 125.549 137.969  0.00  0.00    +0.000 A 
ATOM     19  C   UNL     1     114.378 125.194 136.751  0.00  0.00    +0.000 A 
ATOM     20  C   UNL     1     114.387 125.270 137.574  0.00  0.00    +0.000 A 
ENDBRANCH   7  15
BRANCH   5  21
ATOM     21  O   UNL     1     112.018 128.232 135.465  0.00  0.00    +0.000 OA
BRANCH  21  30
ATOM     22  O   UNL     1     111.314 128.653 136.636  0.00  0.00    +0.000 OA
ATOM     23  O   UNL     1     112.712 130.694 136.743  0.00  0.00    +0.000 OA
ATOM     24  O   UNL     1     111.542 130.433 137.877  0.00  0.00    +0.000 OA
ATOM     25  O   UNL     1     112.949 129.592 135.537  0.00  0.00    +0.000 OA
ATOM     26  C   UNL     1     112.245 130.013 136.707  0.00  0.00    +0.000 C 
ATOM     27  C   UNL     1     111.661 129.883 137.274  0.00  0.00    +0.000 C 
ATOM     28  C   UNL     1     112.365 129.463 136.104  0.00  0.00    +0.000 C 
ATOM     29  C   UNL     1     111.195 129.203 137.238  0.00  0.00    +0.000 C 
ATOM     30  C   UNL     1     111.899 128.783 136.068  0.00  0.00    +0.000 C 
BRANCH  29  32
ATOM     31  O   UNL     1     110.674 128.433 138.323  0.00  0.00    +0.000 OA
ATOM     32  C   UNL     1     110.611 129.073 137.805  0.00  0.00    +0.000 C 
ENDBRANCH  29  32
ENDBRANCH  21  30
ENDBRANCH   5  21
TORSDOF 4
ENDMDL
MODEL 5
REMARK VINA RESULT:      -9.2      1.740      2.423
REMARK  Name = 42608115
REMARK  4 active torsions:
REMARK  status: ('A' for Active; 'I' for Inactive)
REMARK    1  A    between atoms: O_2  and  C_16
REMARK    2  A    between atoms: O_2  and  C_18
REMARK    3  A    between atoms: C_15  and  C_17
REMARK    4  A    between atoms: C_20  and  C_25
REMARK                            x       y       z     vdW  Elec       q    Type
REMARK                         _______ _______ _______ _____ _____    ______ ____
ROOT
ATOM      1  O   UNL     1     112.629 126.023 138.436  0.00  0.00    +0.000 OA
ATOM      2  O   UNL     1     111.245 124.307 136.582  0.00  0.00    +0.000 OA
ATOM      3  O   UNL     1     114.832 125.113 137.582  0.00  0.00    +0.000 OA
ATOM      4  O   UNL     1     114.102 124.268 136.667  0.00  0.00    +0.000 OA
ATOM      5  C   UNL     1     111.944 125.153 137.497  0.00  0.00    +0.000 A 
ATOM      6  C   UNL     1     112.653 125.429 137.817  0.00  0.00    +0.000 A 
ATOM      7  C   UNL     1     113.365 126.314 138.773  0.00  0.00    +0.000 C 
ATOM      8  C   UNL     1     114.113 126.007 138.486  0.00  0.00    +0.000 C 
ATOM      9  C   UNL     1     113.372 125.134 137.540  0.00  0.00    +0.000 A 
ATOM     10  C   UNL     1     114.117 125.413 137.864  0.00  0.00    +0.000 C 
ATOM     11  C   UNL     1     111.955 124.583 136.901  0.00  0.00    +0.000 A 
ATOM     12  C   UNL     1     113.382 124.563 136.944  0.00  0.00    +0.000 A 
ATOM     13  C   UNL     1     112.674 124.288 136.625  0.00  0.00    +0.000 A 
ENDROOT
BRANCH   7  15
ATOM     14  O   UNL     1     113.312 128.595 141.157  0.00  0.00    +0.000 OA
ATOM     15  C   UNL     1     113.351 126.885 139.369  0.00  0.00    +0.000 A 
ATOM     16  C   UNL     1     113.349 127.686 139.174  0.00  0.00    +0.000 A 
ATOM     17  C   UNL     1     113.340 126.654 140.161  0.00  0.00    +0.000 A 
ATOM     18  C   UNL     1     113.336 128.256 139.770  0.00  0.00    +0.000 A 
ATOM     19  C   UNL     1     113.327 127.223 140.758  0.00  0.00    +0.000 A 
ATOM     20  C   UNL     1     113.325 128.025 140.562  0.00  0.00    +0.000 A 
ENDBRANCH   7  15
BRANCH   5  21
ATOM     21  O   UNL     1     111.225 125.447 137.773  0.00  0.00    +0.000 OA
BRANCH  21  30
ATOM     22  O   UNL     1     111.188 126.381 136.692  0.00  0.00    +0.000 OA
ATOM     23  O   UNL     1     108.921 127.096 137.388  0.00  0.00    +0.000 OA
ATOM     24  O   UNL     1     109.640 127.791 136.076  0.00  0.00    +0.000 OA
ATOM     25  O   UNL     1     109.715 125.923 138.237  0.00  0.00    +0.000 OA
ATOM     26  C   UNL     1     109.678 126.857 137.156  0.00  0.00    +0.000 C 
ATOM     27  C   UNL     1     110.036 127.205 136.500  0.00  0.00    +0.000 C 
ATOM     28  C   UNL     1     110.073 126.271 137.581  0.00  0.00    +0.000 C 
ATOM     29  C   UNL     1     110.791 126.967 136.268  0.00  0.00    +0.000 C 
ATOM     30  C   UNL     1     110.829 126.033 137.349  0.00  0.00    +0.000 C 
BRANCH  29  32
ATOM     31  O   UNL     1     111.815 127.794 135.712  0.00  0.00    +0.000 OA
ATOM     32  C   UNL     1     111.150 127.314 135.612  0.00  0.00    +0.000 C 
ENDBRANCH  29  32
ENDBRANCH  21  30
ENDBRANCH   5  21
TORSDOF 4
ENDMDL
MODEL 6
REMARK VINA RESULT:      -9.1      1.857      4.925
REMARK  Name = 42608115
REMARK  4 active torsions:
REMARK  status: ('A' for Active; 'I' for Inactive)
REMARK    1  A    between atoms: O_2  and  C_16
REMARK    2  A    between atoms: O_2  and  C_18
REMARK    3  A    between atoms: C_15  and  C_17
REMARK    4  A    between atoms: C_20  and  C_25
REMARK                            x       y       z     vdW  Elec       q    Type
REMARK                         _______ _______ _______ _____ _____    ______ ____
ROOT
ATOM      1  O   UNL     1     110.645 127.288 135.743  0.00  0.00    +0.000 OA
ATOM      2  O   UNL     1     110.442 130.019 134.849  0.00  0.00    +0.000 OA
ATOM      3  O   UNL     1     108.164 127.302 136.244  0.00  0.00    +0.000 OA
ATOM      4  O   UNL     1     108.103 128.670 135.788  0.00  0.00    +0.000 OA
ATOM      5  C   UNL     1     110.529 128.664 135.295  0.00  0.00    +0.000 A 
ATOM      6  C   UNL     1     110.168 127.988 135.600  0.00  0.00    +0.000 A 
ATOM      7  C   UNL     1     110.276 126.580 136.061  0.00  0.00    +0.000 C 
ATOM      8  C   UNL     1     109.434 126.582 136.232  0.00  0.00    +0.000 C 
ATOM      9  C   UNL     1     109.360 127.990 135.765  0.00  0.00    +0.000 A 
ATOM     10  C   UNL     1     108.973 127.292 136.082  0.00  0.00    +0.000 C 
ATOM     11  C   UNL     1     110.081 129.342 135.154  0.00  0.00    +0.000 A 
ATOM     12  C   UNL     1     108.912 128.668 135.623  0.00  0.00    +0.000 A 
ATOM     13  C   UNL     1     109.272 129.344 135.318  0.00  0.00    +0.000 A 
ENDROOT
BRANCH   7  15
ATOM     14  O   UNL     1     112.076 123.872 136.619  0.00  0.00    +0.000 OA
ATOM     15  C   UNL     1     110.726 125.903 136.201  0.00  0.00    +0.000 A 
ATOM     16  C   UNL     1     111.050 125.770 136.947  0.00  0.00    +0.000 A 
ATOM     17  C   UNL     1     110.852 125.358 135.594  0.00  0.00    +0.000 A 
ATOM     18  C   UNL     1     111.501 125.093 137.087  0.00  0.00    +0.000 A 
ATOM     19  C   UNL     1     111.302 124.681 135.732  0.00  0.00    +0.000 A 
ATOM     20  C   UNL     1     111.627 124.548 136.480  0.00  0.00    +0.000 A 
ENDBRANCH   7  15
BRANCH   5  21
ATOM     21  O   UNL     1     111.337 128.662 135.131  0.00  0.00    +0.000 OA
BRANCH  21  30
ATOM     22  O   UNL     1     111.635 129.192 136.424  0.00  0.00    +0.000 OA
ATOM     23  O   UNL     1     113.903 129.811 135.647  0.00  0.00    +0.000 OA
ATOM     24  O   UNL     1     113.444 130.133 137.199  0.00  0.00    +0.000 OA
ATOM     25  O   UNL     1     112.848 129.075 134.613  0.00  0.00    +0.000 OA
ATOM     26  C   UNL     1     113.146 129.604 135.907  0.00  0.00    +0.000 C 
ATOM     27  C   UNL     1     112.918 129.766 136.682  0.00  0.00    +0.000 C 
ATOM     28  C   UNL     1     112.620 129.237 135.389  0.00  0.00    +0.000 C 
ATOM     29  C   UNL     1     112.162 129.560 136.941  0.00  0.00    +0.000 C 
ATOM     30  C   UNL     1     111.864 129.030 135.647  0.00  0.00    +0.000 C 
BRANCH  29  32
ATOM     31  O   UNL     1     111.758 129.100 138.232  0.00  0.00    +0.000 OA
ATOM     32  C   UNL     1     111.933 129.721 137.717  0.00  0.00    +0.000 C 
ENDBRANCH  29  32
ENDBRANCH  21  30
ENDBRANCH   5  21
TORSDOF 4
ENDMDL
MODEL 7
REMARK VINA RESULT:      -8.9      1.691      3.534
REMARK  Name = 42608115
REMARK  4 active torsions:
REMARK  status: ('A' for Active; 'I' for Inactive)
REMARK    1  A    between atoms: O_2  and  C_16
REMARK    2  A    between atoms: O_2  and  C_18
REMARK    3  A    between atoms: C_15  and  C_17
REMARK    4  A    between atoms: C_20  and  C_25
REMARK                            x       y       z     vdW  Elec       q    Type
REMARK                         _______ _______ _______ _____ _____    ______ ____
ROOT
ATOM      1  O   UNL     1     112.269 126.111 137.291  0.00  0.00    +0.000 OA
ATOM      2  O   UNL     1     113.656 126.810 139.718  0.00  0.00    +0.000 OA
ATOM      3  O   UNL     1     114.299 124.790 136.553  0.00  0.00    +0.000 OA
ATOM      4  O   UNL     1     114.960 125.162 137.781  0.00  0.00    +0.000 OA
ATOM      5  C   UNL     1     112.979 126.457 138.511  0.00  0.00    +0.000 A 
ATOM      6  C   UNL     1     112.971 126.063 137.784  0.00  0.00    +0.000 A 
ATOM      7  C   UNL     1     112.254 125.704 136.534  0.00  0.00    +0.000 C 
ATOM      8  C   UNL     1     112.941 125.255 136.281  0.00  0.00    +0.000 C 
ATOM      9  C   UNL     1     113.631 125.632 137.541  0.00  0.00    +0.000 A 
ATOM     10  C   UNL     1     113.635 125.219 136.788  0.00  0.00    +0.000 C 
ATOM     11  C   UNL     1     113.648 126.417 138.992  0.00  0.00    +0.000 A 
ATOM     12  C   UNL     1     114.299 125.594 138.024  0.00  0.00    +0.000 A 
ATOM     13  C   UNL     1     114.307 125.986 138.749  0.00  0.00    +0.000 A 
ENDROOT
BRANCH   7  15
ATOM     14  O   UNL     1     109.576 125.865 134.613  0.00  0.00    +0.000 OA
ATOM     15  C   UNL     1     111.585 125.745 136.054  0.00  0.00    +0.000 A 
ATOM     16  C   UNL     1     111.466 126.398 135.565  0.00  0.00    +0.000 A 
ATOM     17  C   UNL     1     111.034 125.131 136.062  0.00  0.00    +0.000 A 
ATOM     18  C   UNL     1     110.796 126.439 135.085  0.00  0.00    +0.000 A 
ATOM     19  C   UNL     1     110.364 125.170 135.582  0.00  0.00    +0.000 A 
ATOM     20  C   UNL     1     110.245 125.825 135.093  0.00  0.00    +0.000 A 
ENDBRANCH   7  15
BRANCH   5  21
ATOM     21  O   UNL     1     112.320 126.887 138.753  0.00  0.00    +0.000 OA
BRANCH  21  30
ATOM     22  O   UNL     1     112.876 128.087 138.211  0.00  0.00    +0.000 OA
ATOM     23  O   UNL     1     111.192 129.423 139.440  0.00  0.00    +0.000 OA
ATOM     24  O   UNL     1     112.309 130.176 138.487  0.00  0.00    +0.000 OA
ATOM     25  O   UNL     1     111.198 127.778 139.572  0.00  0.00    +0.000 OA
ATOM     26  C   UNL     1     111.753 128.977 139.030  0.00  0.00    +0.000 C 
ATOM     27  C   UNL     1     112.311 129.354 138.554  0.00  0.00    +0.000 C 
ATOM     28  C   UNL     1     111.756 128.155 139.097  0.00  0.00    +0.000 C 
ATOM     29  C   UNL     1     112.872 128.909 138.144  0.00  0.00    +0.000 C 
ATOM     30  C   UNL     1     112.317 127.709 138.687  0.00  0.00    +0.000 C 
BRANCH  29  32
ATOM     31  O   UNL     1     113.427 129.162 136.852  0.00  0.00    +0.000 OA
ATOM     32  C   UNL     1     113.431 129.286 137.668  0.00  0.00    +0.000 C 
ENDBRANCH  29  32
ENDBRANCH  21  30
ENDBRANCH   5  21
TORSDOF 4
ENDMDL
MODEL 8
REMARK VINA RESULT:      -8.9      2.429      4.653
REMARK  Name = 42608115
REMARK  4 active torsions:
REMARK  status: ('A' for Active; 'I' for Inactive)
REMARK    1  A    between atoms: O_2  and  C_16
REMARK    2  A    between atoms: O_2  and  C_18
REMARK    3  A    between atoms: C_15  and  C_17
REMARK    4  A    between atoms: C_20  and  C_25
REMARK                            x       y       z     vdW  Elec       q    Type
REMARK                         _______ _______ _______ _____ _____    ______ ____
ROOT
ATOM      1  O   UNL     1     113.137 126.462 138.952  0.00  0.00    +0.000 OA
ATOM      2  O   UNL     1     112.326 127.665 141.441  0.00  0.00    +0.000 OA
ATOM      3  O   UNL     1     110.857 125.376 138.774  0.00  0.00    +0.000 OA
ATOM      4  O   UNL     1     110.489 125.996 140.024  0.00  0.00    +0.000 OA
ATOM      5  C   UNL     1     112.716 127.063 140.206  0.00  0.00    +0.000 A 
ATOM      6  C   UNL     1     112.539 126.583 139.557  0.00  0.00    +0.000 A 
ATOM      7  C   UNL     1     112.960 125.964 138.274  0.00  0.00    +0.000 C 
ATOM      8  C   UNL     1     112.187 125.594 138.211  0.00  0.00    +0.000 C 
ATOM      9  C   UNL     1     111.797 126.228 139.496  0.00  0.00    +0.000 A 
ATOM     10  C   UNL     1     111.602 125.727 138.827  0.00  0.00    +0.000 C 
ATOM     11  C   UNL     1     112.150 127.186 140.793  0.00  0.00    +0.000 A 
ATOM     12  C   UNL     1     111.232 126.352 140.084  0.00  0.00    +0.000 A 
ATOM     13  C   UNL     1     111.408 126.831 140.732  0.00  0.00    +0.000 A 
ENDROOT
BRANCH   7  15
ATOM     14  O   UNL     1     115.229 125.478 135.929  0.00  0.00    +0.000 OA
ATOM     15  C   UNL     1     113.527 125.842 137.688  0.00  0.00    +0.000 A 
ATOM     16  C   UNL     1     114.070 125.226 137.761  0.00  0.00    +0.000 A 
ATOM     17  C   UNL     1     113.552 126.337 137.028  0.00  0.00    +0.000 A 
ATOM     18  C   UNL     1     114.638 125.104 137.175  0.00  0.00    +0.000 A 
ATOM     19  C   UNL     1     114.119 126.217 136.442  0.00  0.00    +0.000 A 
ATOM     20  C   UNL     1     114.663 125.599 136.515  0.00  0.00    +0.000 A 
ENDBRANCH   7  15
BRANCH   5  21
ATOM     21  O   UNL     1     113.457 127.418 140.266  0.00  0.00    +0.000 OA
BRANCH  21  30
ATOM     22  O   UNL     1     112.992 128.618 139.646  0.00  0.00    +0.000 OA
ATOM     23  O   UNL     1     114.893 129.863 140.628  0.00  0.00    +0.000 OA
ATOM     24  O   UNL     1     113.793 130.647 139.680  0.00  0.00    +0.000 OA
ATOM     25  O   UNL     1     114.724 128.248 140.921  0.00  0.00    +0.000 OA
ATOM     26  C   UNL     1     114.259 129.448 140.300  0.00  0.00    +0.000 C 
ATOM     27  C   UNL     1     113.710 129.840 139.827  0.00  0.00    +0.000 C 
ATOM     28  C   UNL     1     114.175 128.640 140.447  0.00  0.00    +0.000 C 
ATOM     29  C   UNL     1     113.076 129.425 139.500  0.00  0.00    +0.000 C 
ATOM     30  C   UNL     1     113.542 128.225 140.120  0.00  0.00    +0.000 C 
BRANCH  29  32
ATOM     31  O   UNL     1     112.429 129.594 138.237  0.00  0.00    +0.000 OA
ATOM     32  C   UNL     1     112.526 129.817 139.026  0.00  0.00    +0.000 C 
ENDBRANCH  29  32
ENDBRANCH  21  30
ENDBRANCH   5  21
TORSDOF 4
ENDMDL
MODEL 9
REMARK VINA RESULT:      -8.9      1.516      3.820
REMARK  Name = 42608115
REMARK  4 active torsions:
REMARK  status: ('A' for Active; 'I' for Inactive)
REMARK    1  A    between atoms: O_2  and  C_16
REMARK    2  A    between atoms: O_2  and  C_18
REMARK    3  A    between atoms: C_15  and  C_17
REMARK    4  A    between atoms: C_20  and  C_25
REMARK                            x       y       z     vdW  Elec       q    Type
REMARK                         _______ _______ _______ _____ _____    ______ ____
ROOT
ATOM      1  O   UNL     1     111.508 126.108 136.990  0.00  0.00    +0.000 OA
ATOM      2  O   UNL     1     109.150 127.660 137.563  0.00  0.00    +0.000 OA
ATOM      3  O   UNL     1     110.430 125.328 134.835  0.00  0.00    +0.000 OA
ATOM      4  O   UNL     1     109.267 126.119 135.158  0.00  0.00    +0.000 OA
ATOM      5  C   UNL     1     110.314 126.886 137.267  0.00  0.00    +0.000 A 
ATOM      6  C   UNL     1     110.721 126.370 136.767  0.00  0.00    +0.000 A 
ATOM      7  C   UNL     1     111.938 125.571 136.474  0.00  0.00    +0.000 C 
ATOM      8  C   UNL     1     111.575 125.305 135.742  0.00  0.00    +0.000 C 
ATOM      9  C   UNL     1     110.373 126.115 136.064  0.00  0.00    +0.000 A 
ATOM     10  C   UNL     1     110.786 125.579 135.536  0.00  0.00    +0.000 C 
ATOM     11  C   UNL     1     109.558 127.145 137.063  0.00  0.00    +0.000 A 
ATOM     12  C   UNL     1     109.616 126.375 135.862  0.00  0.00    +0.000 A 
ATOM     13  C   UNL     1     109.209 126.889 136.360  0.00  0.00    +0.000 A 
ENDROOT
BRANCH   7  15
ATOM     14  O   UNL     1     114.963 124.540 137.296  0.00  0.00    +0.000 OA
ATOM     15  C   UNL     1     112.694 125.313 136.679  0.00  0.00    +0.000 A 
ATOM     16  C   UNL     1     112.794 124.589 137.061  0.00  0.00    +0.000 A 
ATOM     17  C   UNL     1     113.351 125.780 136.504  0.00  0.00    +0.000 A 
ATOM     18  C   UNL     1     113.550 124.331 137.266  0.00  0.00    +0.000 A 
ATOM     19  C   UNL     1     114.108 125.523 136.709  0.00  0.00    +0.000 A 
ATOM     20  C   UNL     1     114.207 124.798 137.091  0.00  0.00    +0.000 A 
ENDBRANCH   7  15
BRANCH   5  21
ATOM     21  O   UNL     1     110.662 127.141 137.969  0.00  0.00    +0.000 OA
BRANCH  21  30
ATOM     22  O   UNL     1     111.132 128.324 137.320  0.00  0.00    +0.000 OA
ATOM     23  O   UNL     1     111.790 129.265 139.514  0.00  0.00    +0.000 OA
ATOM     24  O   UNL     1     112.040 130.134 138.134  0.00  0.00    +0.000 OA
ATOM     25  O   UNL     1     111.100 127.768 139.431  0.00  0.00    +0.000 OA
ATOM     26  C   UNL     1     111.571 128.951 138.782  0.00  0.00    +0.000 C 
ATOM     27  C   UNL     1     111.696 129.386 138.093  0.00  0.00    +0.000 C 
ATOM     28  C   UNL     1     111.226 128.203 138.742  0.00  0.00    +0.000 C 
ATOM     29  C   UNL     1     111.477 129.072 137.362  0.00  0.00    +0.000 C 
ATOM     30  C   UNL     1     111.007 127.889 138.011  0.00  0.00    +0.000 C 
BRANCH  29  32
ATOM     31  O   UNL     1     112.144 129.239 136.109  0.00  0.00    +0.000 OA
ATOM     32  C   UNL     1     111.602 129.507 136.672  0.00  0.00    +0.000 C 
ENDBRANCH  29  32
ENDBRANCH  21  30
ENDBRANCH   5  21
TORSDOF 4
ENDMDL
MODEL 10
REMARK VINA RESULT:      -8.8      1.657      2.995
REMARK  Name = 42608115
REMARK  4 active torsions:
REMARK  status: ('A' for Active; 'I' for Inactive)
REMARK    1  A    between atoms: O_2  and  C_16
REMARK    2  A    between atoms: O_2  and  C_18
REMARK    3  A    between atoms: C_15  and  C_17
REMARK    4  A    between atoms: C_20  and  C_25
REMARK                            x       y       z     vdW  Elec       q    Type
REMARK                         _______ _______ _______ _____ _____    ______ ____
ROOT
ATOM      1  O   UNL     1     112.519 125.753 137.643  0.00  0.00    +0.000 OA
ATOM      2  O   UNL     1     109.743 125.879 138.404  0.00  0.00    +0.000 OA
ATOM      3  O   UNL     1     113.150 126.669 139.918  0.00  0.00    +0.000 OA
ATOM      4  O   UNL     1     111.749 126.717 140.261  0.00  0.00    +0.000 OA
ATOM      5  C   UNL     1     111.124 125.821 138.039  0.00  0.00    +0.000 A 
ATOM      6  C   UNL     1     111.919 125.942 138.227  0.00  0.00    +0.000 A 
ATOM      7  C   UNL     1     113.349 125.876 137.832  0.00  0.00    +0.000 C 
ATOM      8  C   UNL     1     113.566 126.186 138.603  0.00  0.00    +0.000 C 
ATOM      9  C   UNL     1     112.127 126.240 138.967  0.00  0.00    +0.000 A 
ATOM     10  C   UNL     1     112.950 126.370 139.175  0.00  0.00    +0.000 C 
ATOM     11  C   UNL     1     110.538 125.999 138.592  0.00  0.00    +0.000 A 
ATOM     12  C   UNL     1     111.540 126.418 139.520  0.00  0.00    +0.000 A 
ATOM     13  C   UNL     1     110.747 126.298 139.333  0.00  0.00    +0.000 A 
ENDROOT
BRANCH   7  15
ATOM     14  O   UNL     1     115.685 125.159 135.615  0.00  0.00    +0.000 OA
ATOM     15  C   UNL     1     113.933 125.697 137.278  0.00  0.00    +0.000 A 
ATOM     16  C   UNL     1     114.148 126.255 136.710  0.00  0.00    +0.000 A 
ATOM     17  C   UNL     1     114.302 124.959 137.291  0.00  0.00    +0.000 A 
ATOM     18  C   UNL     1     114.732 126.076 136.155  0.00  0.00    +0.000 A 
ATOM     19  C   UNL     1     114.886 124.779 136.737  0.00  0.00    +0.000 A 
ATOM     20  C   UNL     1     115.101 125.338 136.168  0.00  0.00    +0.000 A 
ENDBRANCH   7  15
BRANCH   5  21
ATOM     21  O   UNL     1     110.916 125.523 137.299  0.00  0.00    +0.000 OA
BRANCH  21  30
ATOM     22  O   UNL     1     110.655 126.850 136.838  0.00  0.00    +0.000 OA
ATOM     23  O   UNL     1     110.039 125.956 134.613  0.00  0.00    +0.000 OA
ATOM     24  O   UNL     1     109.984 127.580 134.894  0.00  0.00    +0.000 OA
ATOM     25  O   UNL     1     110.506 124.927 135.817  0.00  0.00    +0.000 OA
ATOM     26  C   UNL     1     110.245 126.254 135.355  0.00  0.00    +0.000 C 
ATOM     27  C   UNL     1     110.217 127.066 135.495  0.00  0.00    +0.000 C 
ATOM     28  C   UNL     1     110.478 125.739 135.956  0.00  0.00    +0.000 C 
ATOM     29  C   UNL     1     110.422 127.364 136.237  0.00  0.00    +0.000 C 
ATOM     30  C   UNL     1     110.683 126.037 136.698  0.00  0.00    +0.000 C 
BRANCH  29  32
ATOM     31  O   UNL     1     111.095 128.607 136.446  0.00  0.00    +0.000 OA
ATOM     32  C   UNL     1     110.394 128.176 136.377  0.00  0.00    +0.000 C 
ENDBRANCH  29  32
ENDBRANCH  21  30
ENDBRANCH   5  21
TORSDOF 4
ENDMDL
