MODEL 1
REMARK VINA RESULT:      -8.6      0.000      0.000
REMARK  Name = 131836420
REMARK  8 active torsions:
REMARK  status: ('A' for Active; 'I' for Inactive)
REMARK    1  A    between atoms: O_2  and  C_18
REMARK    2  A    between atoms: O_2  and  C_20
REMARK    3  A    between atoms: O_13  and  C_34
REMARK    4  A    between atoms: C_17  and  C_19
REMARK    5  A    between atoms: C_23  and  C_26
REMARK    6  A    between atoms: C_26  and  C_27
REMARK    7  A    between atoms: C_27  and  C_28
REMARK    8  A    between atoms: C_28  and  C_29
REMARK                            x       y       z     vdW  Elec       q    Type
REMARK                         _______ _______ _______ _____ _____    ______ ____
ROOT
ATOM      1  O   UNL     1     112.188 128.670 135.459  0.00  0.00    +0.000 OA
ATOM      2  O   UNL     1     111.190 130.399 137.504  0.00  0.00    +0.000 OA
ATOM      3  O   UNL     1     112.274 129.762 138.572  0.00  0.00    +0.000 OA
ATOM      4  O   UNL     1     113.315 128.579 138.083  0.00  0.00    +0.000 OA
ATOM      5  C   UNL     1     111.689 129.535 136.482  0.00  0.00    +0.000 A 
ATOM      6  C   UNL     1     112.209 128.943 136.237  0.00  0.00    +0.000 A 
ATOM      7  C   UNL     1     111.710 129.807 137.259  0.00  0.00    +0.000 A 
ATOM      8  C   UNL     1     112.751 128.624 136.771  0.00  0.00    +0.000 A 
ATOM      9  C   UNL     1     112.252 129.489 137.793  0.00  0.00    +0.000 A 
ATOM     10  C   UNL     1     112.773 128.897 137.550  0.00  0.00    +0.000 A 
ENDROOT
BRANCH   8  12
ATOM     11  O   UNL     1     113.973 128.235 136.140  0.00  0.00    +0.000 OA
ATOM     12  C   UNL     1     113.272 128.033 136.527  0.00  0.00    +0.000 C 
BRANCH  12  13
ATOM     13  C   UNL     1     113.093 127.240 136.669  0.00  0.00    +0.000 C 
BRANCH  13  14
ATOM     14  C   UNL     1     113.604 126.649 136.405  0.00  0.00    +0.000 C 
BRANCH  14  15
ATOM     15  C   UNL     1     113.430 125.857 136.557  0.00  0.00    +0.000 A 
ATOM     16  C   UNL     1     112.715 125.534 136.299  0.00  0.00    +0.000 A 
ATOM     17  C   UNL     1     113.971 125.386 136.966  0.00  0.00    +0.000 A 
ATOM     18  C   UNL     1     112.542 124.742 136.451  0.00  0.00    +0.000 A 
ATOM     19  C   UNL     1     113.797 124.594 137.117  0.00  0.00    +0.000 A 
ATOM     20  C   UNL     1     113.083 124.272 136.860  0.00  0.00    +0.000 A 
BRANCH  20  21
ATOM     21  O   UNL     1     112.910 123.480 137.012  0.00  0.00    +0.000 OA
ATOM     22  C   UNL     1     112.131 123.248 137.153  0.00  0.00    +0.000 C 
ENDBRANCH  20  21
ENDBRANCH  14  15
ENDBRANCH  13  14
ENDBRANCH  12  13
ENDBRANCH   8  12
BRANCH   5  23
ATOM     23  O   UNL     1     111.146 129.853 135.948  0.00  0.00    +0.000 OA
BRANCH  23  32
ATOM     24  O   UNL     1     110.212 128.801 136.198  0.00  0.00    +0.000 OA
ATOM     25  O   UNL     1     108.392 130.196 135.266  0.00  0.00    +0.000 OA
ATOM     26  O   UNL     1     109.933 130.783 135.327  0.00  0.00    +0.000 OA
ATOM     27  O   UNL     1     108.065 128.680 135.827  0.00  0.00    +0.000 OA
ATOM     28  C   UNL     1     108.999 129.731 135.577  0.00  0.00    +0.000 C 
ATOM     29  C   UNL     1     108.835 128.973 135.857  0.00  0.00    +0.000 C 
ATOM     30  C   UNL     1     109.769 130.025 135.607  0.00  0.00    +0.000 C 
ATOM     31  C   UNL     1     109.442 128.508 136.168  0.00  0.00    +0.000 C 
ATOM     32  C   UNL     1     110.376 129.560 135.917  0.00  0.00    +0.000 C 
BRANCH  31  35
ATOM     33  O   UNL     1     109.064 127.640 137.238  0.00  0.00    +0.000 OA
ATOM     34  O   UNL     1     109.330 127.102 135.941  0.00  0.00    +0.000 OA
ATOM     35  C   UNL     1     109.279 127.750 136.448  0.00  0.00    +0.000 C 
ENDBRANCH  31  35
ENDBRANCH  23  32
ENDBRANCH   5  23
TORSDOF 8
ENDMDL
MODEL 2
REMARK VINA RESULT:      -8.5      2.096      3.634
REMARK  Name = 131836420
REMARK  8 active torsions:
REMARK  status: ('A' for Active; 'I' for Inactive)
REMARK    1  A    between atoms: O_2  and  C_18
REMARK    2  A    between atoms: O_2  and  C_20
REMARK    3  A    between atoms: O_13  and  C_34
REMARK    4  A    between atoms: C_17  and  C_19
REMARK    5  A    between atoms: C_23  and  C_26
REMARK    6  A    between atoms: C_26  and  C_27
REMARK    7  A    between atoms: C_27  and  C_28
REMARK    8  A    between atoms: C_28  and  C_29
REMARK                            x       y       z     vdW  Elec       q    Type
REMARK                         _______ _______ _______ _____ _____    ______ ____
ROOT
ATOM      1  O   UNL     1     110.211 128.994 137.507  0.00  0.00    +0.000 OA
ATOM      2  O   UNL     1     108.002 130.601 136.670  0.00  0.00    +0.000 OA
ATOM      3  O   UNL     1     108.446 130.391 135.095  0.00  0.00    +0.000 OA
ATOM      4  O   UNL     1     109.773 129.483 134.725  0.00  0.00    +0.000 OA
ATOM      5  C   UNL     1     109.106 129.797 137.088  0.00  0.00    +0.000 A 
ATOM      6  C   UNL     1     109.770 129.343 136.904  0.00  0.00    +0.000 A 
ATOM      7  C   UNL     1     108.665 130.146 136.486  0.00  0.00    +0.000 A 
ATOM      8  C   UNL     1     109.992 129.238 136.117  0.00  0.00    +0.000 A 
ATOM      9  C   UNL     1     108.887 130.042 135.698  0.00  0.00    +0.000 A 
ATOM     10  C   UNL     1     109.551 129.587 135.513  0.00  0.00    +0.000 A 
ENDROOT
BRANCH   8  12
ATOM     11  O   UNL     1     111.379 129.153 135.782  0.00  0.00    +0.000 OA
ATOM     12  C   UNL     1     110.655 128.784 135.932  0.00  0.00    +0.000 C 
BRANCH  12  13
ATOM     13  C   UNL     1     110.596 127.962 135.895  0.00  0.00    +0.000 C 
BRANCH  13  14
ATOM     14  C   UNL     1     111.212 127.518 135.571  0.00  0.00    +0.000 C 
BRANCH  14  15
ATOM     15  C   UNL     1     111.230 126.700 135.676  0.00  0.00    +0.000 A 
ATOM     16  C   UNL     1     110.632 126.229 135.357  0.00  0.00    +0.000 A 
ATOM     17  C   UNL     1     111.846 126.352 136.100  0.00  0.00    +0.000 A 
ATOM     18  C   UNL     1     110.651 125.411 135.462  0.00  0.00    +0.000 A 
ATOM     19  C   UNL     1     111.865 125.534 136.206  0.00  0.00    +0.000 A 
ATOM     20  C   UNL     1     111.267 125.064 135.887  0.00  0.00    +0.000 A 
BRANCH  20  21
ATOM     21  O   UNL     1     111.286 124.246 135.993  0.00  0.00    +0.000 OA
ATOM     22  C   UNL     1     111.780 123.914 136.564  0.00  0.00    +0.000 C 
ENDBRANCH  20  21
ENDBRANCH  14  15
ENDBRANCH  13  14
ENDBRANCH  12  13
ENDBRANCH   8  12
BRANCH   5  23
ATOM     23  O   UNL     1     108.884 129.902 137.876  0.00  0.00    +0.000 OA
BRANCH  23  32
ATOM     24  O   UNL     1     109.684 131.085 137.947  0.00  0.00    +0.000 OA
ATOM     25  O   UNL     1     109.180 131.280 140.362  0.00  0.00    +0.000 OA
ATOM     26  O   UNL     1     108.548 130.033 139.486  0.00  0.00    +0.000 OA
ATOM     27  O   UNL     1     110.146 132.397 139.628  0.00  0.00    +0.000 OA
ATOM     28  C   UNL     1     109.348 131.215 139.557  0.00  0.00    +0.000 C 
ATOM     29  C   UNL     1     109.831 131.773 139.190  0.00  0.00    +0.000 C 
ATOM     30  C   UNL     1     109.032 130.591 139.119  0.00  0.00    +0.000 C 
ATOM     31  C   UNL     1     109.999 131.708 138.385  0.00  0.00    +0.000 C 
ATOM     32  C   UNL     1     109.200 130.526 138.314  0.00  0.00    +0.000 C 
BRANCH  31  35
ATOM     33  O   UNL     1     110.155 132.965 137.723  0.00  0.00    +0.000 OA
ATOM     34  O   UNL     1     111.292 132.127 137.944  0.00  0.00    +0.000 OA
ATOM     35  C   UNL     1     110.482 132.266 138.018  0.00  0.00    +0.000 C 
ENDBRANCH  31  35
ENDBRANCH  23  32
ENDBRANCH   5  23
TORSDOF 8
ENDMDL
MODEL 3
REMARK VINA RESULT:      -8.5      2.284      5.019
REMARK  Name = 131836420
REMARK  8 active torsions:
REMARK  status: ('A' for Active; 'I' for Inactive)
REMARK    1  A    between atoms: O_2  and  C_18
REMARK    2  A    between atoms: O_2  and  C_20
REMARK    3  A    between atoms: O_13  and  C_34
REMARK    4  A    between atoms: C_17  and  C_19
REMARK    5  A    between atoms: C_23  and  C_26
REMARK    6  A    between atoms: C_26  and  C_27
REMARK    7  A    between atoms: C_27  and  C_28
REMARK    8  A    between atoms: C_28  and  C_29
REMARK                            x       y       z     vdW  Elec       q    Type
REMARK                         _______ _______ _______ _____ _____    ______ ____
ROOT
ATOM      1  O   UNL     1     111.702 127.357 137.272  0.00  0.00    +0.000 OA
ATOM      2  O   UNL     1     112.485 126.064 139.698  0.00  0.00    +0.000 OA
ATOM      3  O   UNL     1     113.193 127.462 140.214  0.00  0.00    +0.000 OA
ATOM      4  O   UNL     1     113.156 128.808 139.260  0.00  0.00    +0.000 OA
ATOM      5  C   UNL     1     112.093 126.711 138.485  0.00  0.00    +0.000 A 
ATOM      6  C   UNL     1     112.074 127.383 138.007  0.00  0.00    +0.000 A 
ATOM      7  C   UNL     1     112.466 126.737 139.220  0.00  0.00    +0.000 A 
ATOM      8  C   UNL     1     112.428 128.082 138.265  0.00  0.00    +0.000 A 
ATOM      9  C   UNL     1     112.820 127.436 139.478  0.00  0.00    +0.000 A 
ATOM     10  C   UNL     1     112.802 128.109 139.001  0.00  0.00    +0.000 A 
ENDROOT
BRANCH   8  12
ATOM     11  O   UNL     1     111.738 129.235 137.779  0.00  0.00    +0.000 OA
ATOM     12  C   UNL     1     112.410 128.755 137.789  0.00  0.00    +0.000 C 
BRANCH  12  13
ATOM     13  C   UNL     1     113.062 128.948 137.322  0.00  0.00    +0.000 C 
BRANCH  13  14
ATOM     14  C   UNL     1     112.999 129.543 136.753  0.00  0.00    +0.000 C 
BRANCH  14  15
ATOM     15  C   UNL     1     113.670 129.793 136.343  0.00  0.00    +0.000 A 
ATOM     16  C   UNL     1     114.086 130.460 136.596  0.00  0.00    +0.000 A 
ATOM     17  C   UNL     1     113.927 129.376 135.679  0.00  0.00    +0.000 A 
ATOM     18  C   UNL     1     114.756 130.709 136.185  0.00  0.00    +0.000 A 
ATOM     19  C   UNL     1     114.597 129.625 135.268  0.00  0.00    +0.000 A 
ATOM     20  C   UNL     1     115.012 130.291 135.521  0.00  0.00    +0.000 A 
BRANCH  20  21
ATOM     21  O   UNL     1     115.682 130.540 135.111  0.00  0.00    +0.000 OA
ATOM     22  C   UNL     1     115.641 131.196 134.612  0.00  0.00    +0.000 C 
ENDBRANCH  20  21
ENDBRANCH  14  15
ENDBRANCH  13  14
ENDBRANCH  12  13
ENDBRANCH   8  12
BRANCH   5  23
ATOM     23  O   UNL     1     111.739 126.012 138.227  0.00  0.00    +0.000 OA
BRANCH  23  32
ATOM     24  O   UNL     1     112.980 125.570 137.672  0.00  0.00    +0.000 OA
ATOM     25  O   UNL     1     111.804 123.728 136.509  0.00  0.00    +0.000 OA
ATOM     26  O   UNL     1     110.955 124.784 137.451  0.00  0.00    +0.000 OA
ATOM     27  O   UNL     1     113.436 123.900 136.343  0.00  0.00    +0.000 OA
ATOM     28  C   UNL     1     112.196 124.342 136.897  0.00  0.00    +0.000 C 
ATOM     29  C   UNL     1     113.012 124.428 136.814  0.00  0.00    +0.000 C 
ATOM     30  C   UNL     1     111.771 124.870 137.368  0.00  0.00    +0.000 C 
ATOM     31  C   UNL     1     113.404 125.042 137.201  0.00  0.00    +0.000 C 
ATOM     32  C   UNL     1     112.163 125.484 137.756  0.00  0.00    +0.000 C 
BRANCH  31  35
ATOM     33  O   UNL     1     114.525 125.610 136.521  0.00  0.00    +0.000 OA
ATOM     34  O   UNL     1     114.731 124.734 137.632  0.00  0.00    +0.000 OA
ATOM     35  C   UNL     1     114.220 125.128 137.119  0.00  0.00    +0.000 C 
ENDBRANCH  31  35
ENDBRANCH  23  32
ENDBRANCH   5  23
TORSDOF 8
ENDMDL
MODEL 4
REMARK VINA RESULT:      -8.4      8.051     10.590
REMARK  Name = 131836420
REMARK  8 active torsions:
REMARK  status: ('A' for Active; 'I' for Inactive)
REMARK    1  A    between atoms: O_2  and  C_18
REMARK    2  A    between atoms: O_2  and  C_20
REMARK    3  A    between atoms: O_13  and  C_34
REMARK    4  A    between atoms: C_17  and  C_19
REMARK    5  A    between atoms: C_23  and  C_26
REMARK    6  A    between atoms: C_26  and  C_27
REMARK    7  A    between atoms: C_27  and  C_28
REMARK    8  A    between atoms: C_28  and  C_29
REMARK                            x       y       z     vdW  Elec       q    Type
REMARK                         _______ _______ _______ _____ _____    ______ ____
ROOT
ATOM      1  O   UNL     1     104.642 127.779 143.532  0.00  0.00    +0.000 OA
ATOM      2  O   UNL     1     107.494 127.915 143.661  0.00  0.00    +0.000 OA
ATOM      3  O   UNL     1     107.538 128.466 142.107  0.00  0.00    +0.000 OA
ATOM      4  O   UNL     1     106.134 128.674 141.265  0.00  0.00    +0.000 OA
ATOM      5  C   UNL     1     106.068 127.847 143.597  0.00  0.00    +0.000 A 
ATOM      6  C   UNL     1     105.365 127.950 143.176  0.00  0.00    +0.000 A 
ATOM      7  C   UNL     1     106.791 128.018 143.241  0.00  0.00    +0.000 A 
ATOM      8  C   UNL     1     105.387 128.226 142.399  0.00  0.00    +0.000 A 
ATOM      9  C   UNL     1     106.813 128.294 142.463  0.00  0.00    +0.000 A 
ATOM     10  C   UNL     1     106.112 128.398 142.042  0.00  0.00    +0.000 A 
ENDROOT
BRANCH   8  12
ATOM     11  O   UNL     1     104.381 127.710 141.526  0.00  0.00    +0.000 OA
ATOM     12  C   UNL     1     104.686 128.330 141.977  0.00  0.00    +0.000 C 
BRANCH  12  13
ATOM     13  C   UNL     1     104.290 129.053 142.006  0.00  0.00    +0.000 C 
BRANCH  13  14
ATOM     14  C   UNL     1     103.539 129.126 141.671  0.00  0.00    +0.000 C 
BRANCH  14  15
ATOM     15  C   UNL     1     103.166 129.861 141.652  0.00  0.00    +0.000 A 
ATOM     16  C   UNL     1     102.962 130.239 142.357  0.00  0.00    +0.000 A 
ATOM     17  C   UNL     1     102.997 130.220 140.929  0.00  0.00    +0.000 A 
ATOM     18  C   UNL     1     102.588 130.974 142.338  0.00  0.00    +0.000 A 
ATOM     19  C   UNL     1     102.623 130.955 140.909  0.00  0.00    +0.000 A 
ATOM     20  C   UNL     1     102.419 131.332 141.614  0.00  0.00    +0.000 A 
BRANCH  20  21
ATOM     21  O   UNL     1     102.046 132.067 141.594  0.00  0.00    +0.000 OA
ATOM     22  C   UNL     1     101.297 132.159 141.928  0.00  0.00    +0.000 C 
ENDBRANCH  20  21
ENDBRANCH  14  15
ENDBRANCH  13  14
ENDBRANCH  12  13
ENDBRANCH   8  12
BRANCH   5  23
ATOM     23  O   UNL     1     106.045 127.571 144.374  0.00  0.00    +0.000 OA
BRANCH  23  32
ATOM     24  O   UNL     1     106.001 126.220 143.911  0.00  0.00    +0.000 OA
ATOM     25  O   UNL     1     106.427 125.417 146.213  0.00  0.00    +0.000 OA
ATOM     26  O   UNL     1     106.329 127.036 145.908  0.00  0.00    +0.000 OA
ATOM     27  O   UNL     1     106.240 124.334 144.983  0.00  0.00    +0.000 OA
ATOM     28  C   UNL     1     106.285 125.685 145.445  0.00  0.00    +0.000 C 
ATOM     29  C   UNL     1     106.192 125.143 144.831  0.00  0.00    +0.000 C 
ATOM     30  C   UNL     1     106.236 126.494 145.294  0.00  0.00    +0.000 C 
ATOM     31  C   UNL     1     106.050 125.411 144.064  0.00  0.00    +0.000 C 
ATOM     32  C   UNL     1     106.094 126.762 144.527  0.00  0.00    +0.000 C 
BRANCH  31  35
ATOM     33  O   UNL     1     106.603 124.667 142.976  0.00  0.00    +0.000 OA
ATOM     34  O   UNL     1     105.218 124.532 143.304  0.00  0.00    +0.000 OA
ATOM     35  C   UNL     1     105.956 124.870 143.448  0.00  0.00    +0.000 C 
ENDBRANCH  31  35
ENDBRANCH  23  32
ENDBRANCH   5  23
TORSDOF 8
ENDMDL
MODEL 5
REMARK VINA RESULT:      -8.4      9.545     11.692
REMARK  Name = 131836420
REMARK  8 active torsions:
REMARK  status: ('A' for Active; 'I' for Inactive)
REMARK    1  A    between atoms: O_2  and  C_18
REMARK    2  A    between atoms: O_2  and  C_20
REMARK    3  A    between atoms: O_13  and  C_34
REMARK    4  A    between atoms: C_17  and  C_19
REMARK    5  A    between atoms: C_23  and  C_26
REMARK    6  A    between atoms: C_26  and  C_27
REMARK    7  A    between atoms: C_27  and  C_28
REMARK    8  A    between atoms: C_28  and  C_29
REMARK                            x       y       z     vdW  Elec       q    Type
REMARK                         _______ _______ _______ _____ _____    ______ ____
ROOT
ATOM      1  O   UNL     1     105.248 126.920 145.483  0.00  0.00    +0.000 OA
ATOM      2  O   UNL     1     105.657 124.128 145.028  0.00  0.00    +0.000 OA
ATOM      3  O   UNL     1     106.353 124.468 143.571  0.00  0.00    +0.000 OA
ATOM      4  O   UNL     1     106.497 126.033 143.070  0.00  0.00    +0.000 OA
ATOM      5  C   UNL     1     105.452 125.524 145.255  0.00  0.00    +0.000 A 
ATOM      6  C   UNL     1     105.524 126.307 145.006  0.00  0.00    +0.000 A 
ATOM      7  C   UNL     1     105.729 124.911 144.778  0.00  0.00    +0.000 A 
ATOM      8  C   UNL     1     105.872 126.477 144.277  0.00  0.00    +0.000 A 
ATOM      9  C   UNL     1     106.077 125.081 144.050  0.00  0.00    +0.000 A 
ATOM     10  C   UNL     1     106.149 125.864 143.799  0.00  0.00    +0.000 A 
ENDROOT
BRANCH   8  12
ATOM     11  O   UNL     1     106.627 127.688 144.206  0.00  0.00    +0.000 OA
ATOM     12  C   UNL     1     105.944 127.259 144.026  0.00  0.00    +0.000 C 
BRANCH  12  13
ATOM     13  C   UNL     1     105.335 127.613 143.597  0.00  0.00    +0.000 C 
BRANCH  13  14
ATOM     14  C   UNL     1     105.431 128.377 143.299  0.00  0.00    +0.000 C 
BRANCH  14  15
ATOM     15  C   UNL     1     104.811 128.743 142.896  0.00  0.00    +0.000 A 
ATOM     16  C   UNL     1     104.626 128.512 142.125  0.00  0.00    +0.000 A 
ATOM     17  C   UNL     1     104.375 129.339 143.263  0.00  0.00    +0.000 A 
ATOM     18  C   UNL     1     104.005 128.878 141.723  0.00  0.00    +0.000 A 
ATOM     19  C   UNL     1     103.755 129.705 142.861  0.00  0.00    +0.000 A 
ATOM     20  C   UNL     1     103.570 129.474 142.091  0.00  0.00    +0.000 A 
BRANCH  20  21
ATOM     21  O   UNL     1     102.950 129.840 141.689  0.00  0.00    +0.000 OA
ATOM     22  C   UNL     1     102.861 129.728 140.876  0.00  0.00    +0.000 C 
ENDBRANCH  20  21
ENDBRANCH  14  15
ENDBRANCH  13  14
ENDBRANCH  12  13
ENDBRANCH   8  12
BRANCH   5  23
ATOM     23  O   UNL     1     105.104 125.354 145.984  0.00  0.00    +0.000 OA
BRANCH  23  32
ATOM     24  O   UNL     1     106.373 125.473 146.630  0.00  0.00    +0.000 OA
ATOM     25  O   UNL     1     105.392 124.583 148.721  0.00  0.00    +0.000 OA
ATOM     26  O   UNL     1     104.450 124.761 147.378  0.00  0.00    +0.000 OA
ATOM     27  O   UNL     1     106.987 124.999 148.670  0.00  0.00    +0.000 OA
ATOM     28  C   UNL     1     105.719 124.880 148.024  0.00  0.00    +0.000 C 
ATOM     29  C   UNL     1     106.516 125.088 147.999  0.00  0.00    +0.000 C 
ATOM     30  C   UNL     1     105.247 124.968 147.352  0.00  0.00    +0.000 C 
ATOM     31  C   UNL     1     106.843 125.385 147.302  0.00  0.00    +0.000 C 
ATOM     32  C   UNL     1     105.575 125.265 146.656  0.00  0.00    +0.000 C 
BRANCH  31  35
ATOM     33  O   UNL     1     108.217 125.008 147.181  0.00  0.00    +0.000 OA
ATOM     34  O   UNL     1     107.864 126.384 147.345  0.00  0.00    +0.000 OA
ATOM     35  C   UNL     1     107.641 125.593 147.276  0.00  0.00    +0.000 C 
ENDBRANCH  31  35
ENDBRANCH  23  32
ENDBRANCH   5  23
TORSDOF 8
ENDMDL
MODEL 6
REMARK VINA RESULT:      -8.3      1.584      5.529
REMARK  Name = 131836420
REMARK  8 active torsions:
REMARK  status: ('A' for Active; 'I' for Inactive)
REMARK    1  A    between atoms: O_2  and  C_18
REMARK    2  A    between atoms: O_2  and  C_20
REMARK    3  A    between atoms: O_13  and  C_34
REMARK    4  A    between atoms: C_17  and  C_19
REMARK    5  A    between atoms: C_23  and  C_26
REMARK    6  A    between atoms: C_26  and  C_27
REMARK    7  A    between atoms: C_27  and  C_28
REMARK    8  A    between atoms: C_28  and  C_29
REMARK                            x       y       z     vdW  Elec       q    Type
REMARK                         _______ _______ _______ _____ _____    ______ ____
ROOT
ATOM      1  O   UNL     1     110.296 125.912 135.943  0.00  0.00    +0.000 OA
ATOM      2  O   UNL     1     111.220 125.225 138.559  0.00  0.00    +0.000 OA
ATOM      3  O   UNL     1     110.085 126.221 139.222  0.00  0.00    +0.000 OA
ATOM      4  O   UNL     1     109.055 127.063 138.246  0.00  0.00    +0.000 OA
ATOM      5  C   UNL     1     110.758 125.568 137.251  0.00  0.00    +0.000 A 
ATOM      6  C   UNL     1     110.243 125.989 136.762  0.00  0.00    +0.000 A 
ATOM      7  C   UNL     1     110.705 125.645 138.070  0.00  0.00    +0.000 A 
ATOM      8  C   UNL     1     109.675 126.487 137.094  0.00  0.00    +0.000 A 
ATOM      9  C   UNL     1     110.138 126.144 138.402  0.00  0.00    +0.000 A 
ATOM     10  C   UNL     1     109.622 126.565 137.914  0.00  0.00    +0.000 A 
ENDROOT
BRANCH   8  12
ATOM     11  O   UNL     1     108.440 126.574 136.382  0.00  0.00    +0.000 OA
ATOM     12  C   UNL     1     109.160 126.909 136.606  0.00  0.00    +0.000 C 
BRANCH  12  13
ATOM     13  C   UNL     1     109.364 127.664 136.344  0.00  0.00    +0.000 C 
BRANCH  13  14
ATOM     14  C   UNL     1     108.870 128.065 135.819  0.00  0.00    +0.000 C 
BRANCH  14  15
ATOM     15  C   UNL     1     109.046 128.840 135.599  0.00  0.00    +0.000 A 
ATOM     16  C   UNL     1     108.666 129.472 135.970  0.00  0.00    +0.000 A 
ATOM     17  C   UNL     1     109.602 128.985 135.007  0.00  0.00    +0.000 A 
ATOM     18  C   UNL     1     108.842 130.247 135.750  0.00  0.00    +0.000 A 
ATOM     19  C   UNL     1     109.778 129.761 134.787  0.00  0.00    +0.000 A 
ATOM     20  C   UNL     1     109.398 130.391 135.158  0.00  0.00    +0.000 A 
BRANCH  20  21
ATOM     21  O   UNL     1     109.574 131.166 134.937  0.00  0.00    +0.000 OA
ATOM     22  C   UNL     1     108.988 131.646 134.612  0.00  0.00    +0.000 C 
ENDBRANCH  20  21
ENDBRANCH  14  15
ENDBRANCH  13  14
ENDBRANCH  12  13
ENDBRANCH   8  12
BRANCH   5  23
ATOM     23  O   UNL     1     111.326 125.070 136.919  0.00  0.00    +0.000 OA
BRANCH  23  32
ATOM     24  O   UNL     1     112.254 126.153 136.834  0.00  0.00    +0.000 OA
ATOM     25  O   UNL     1     114.076 124.553 136.340  0.00  0.00    +0.000 OA
ATOM     26  O   UNL     1     112.541 124.003 136.590  0.00  0.00    +0.000 OA
ATOM     27  O   UNL     1     114.396 126.169 136.420  0.00  0.00    +0.000 OA
ATOM     28  C   UNL     1     113.469 125.086 136.505  0.00  0.00    +0.000 C 
ATOM     29  C   UNL     1     113.629 125.894 136.545  0.00  0.00    +0.000 C 
ATOM     30  C   UNL     1     112.701 124.811 136.630  0.00  0.00    +0.000 C 
ATOM     31  C   UNL     1     113.022 126.427 136.710  0.00  0.00    +0.000 C 
ATOM     32  C   UNL     1     112.093 125.344 136.794  0.00  0.00    +0.000 C 
BRANCH  31  35
ATOM     33  O   UNL     1     113.397 127.578 137.469  0.00  0.00    +0.000 OA
ATOM     34  O   UNL     1     113.125 127.702 136.071  0.00  0.00    +0.000 OA
ATOM     35  C   UNL     1     113.181 127.236 136.750  0.00  0.00    +0.000 C 
ENDBRANCH  31  35
ENDBRANCH  23  32
ENDBRANCH   5  23
TORSDOF 8
ENDMDL
MODEL 7
REMARK VINA RESULT:      -8.3      7.371      8.582
REMARK  Name = 131836420
REMARK  8 active torsions:
REMARK  status: ('A' for Active; 'I' for Inactive)
REMARK    1  A    between atoms: O_2  and  C_18
REMARK    2  A    between atoms: O_2  and  C_20
REMARK    3  A    between atoms: O_13  and  C_34
REMARK    4  A    between atoms: C_17  and  C_19
REMARK    5  A    between atoms: C_23  and  C_26
REMARK    6  A    between atoms: C_26  and  C_27
REMARK    7  A    between atoms: C_27  and  C_28
REMARK    8  A    between atoms: C_28  and  C_29
REMARK                            x       y       z     vdW  Elec       q    Type
REMARK                         _______ _______ _______ _____ _____    ______ ____
ROOT
ATOM      1  O   UNL     1     106.915 126.216 141.111  0.00  0.00    +0.000 OA
ATOM      2  O   UNL     1     106.362 126.781 143.857  0.00  0.00    +0.000 OA
ATOM      3  O   UNL     1     105.608 125.321 144.006  0.00  0.00    +0.000 OA
ATOM      4  O   UNL     1     105.508 124.308 142.707  0.00  0.00    +0.000 OA
ATOM      5  C   UNL     1     106.639 126.499 142.484  0.00  0.00    +0.000 A 
ATOM      6  C   UNL     1     106.589 125.993 141.834  0.00  0.00    +0.000 A 
ATOM      7  C   UNL     1     106.312 126.275 143.207  0.00  0.00    +0.000 A 
ATOM      8  C   UNL     1     106.212 125.263 141.908  0.00  0.00    +0.000 A 
ATOM      9  C   UNL     1     105.935 125.545 143.282  0.00  0.00    +0.000 A 
ATOM     10  C   UNL     1     105.885 125.038 142.633  0.00  0.00    +0.000 A 
ENDROOT
BRANCH   8  12
ATOM     11  O   UNL     1     106.796 124.261 141.073  0.00  0.00    +0.000 OA
ATOM     12  C   UNL     1     106.162 124.756 141.259  0.00  0.00    +0.000 C 
BRANCH  12  13
ATOM     13  C   UNL     1     105.478 124.744 140.797  0.00  0.00    +0.000 C 
BRANCH  13  14
ATOM     14  C   UNL     1     105.469 124.323 140.087  0.00  0.00    +0.000 C 
BRANCH  14  15
ATOM     15  C   UNL     1     104.765 124.245 139.664  0.00  0.00    +0.000 A 
ATOM     16  C   UNL     1     104.336 123.541 139.703  0.00  0.00    +0.000 A 
ATOM     17  C   UNL     1     104.489 124.870 139.202  0.00  0.00    +0.000 A 
ATOM     18  C   UNL     1     103.632 123.463 139.280  0.00  0.00    +0.000 A 
ATOM     19  C   UNL     1     103.785 124.792 138.779  0.00  0.00    +0.000 A 
ATOM     20  C   UNL     1     103.357 124.089 138.818  0.00  0.00    +0.000 A 
BRANCH  20  21
ATOM     21  O   UNL     1     102.653 124.011 138.395  0.00  0.00    +0.000 OA
ATOM     22  C   UNL     1     102.634 123.558 137.705  0.00  0.00    +0.000 C 
ENDBRANCH  20  21
ENDBRANCH  14  15
ENDBRANCH  13  14
ENDBRANCH  12  13
ENDBRANCH   8  12
BRANCH   5  23
ATOM     23  O   UNL     1     107.015 127.229 142.410  0.00  0.00    +0.000 OA
BRANCH  23  32
ATOM     24  O   UNL     1     105.772 127.834 142.049  0.00  0.00    +0.000 OA
ATOM     25  O   UNL     1     106.900 130.027 141.842  0.00  0.00    +0.000 OA
ATOM     26  O   UNL     1     107.767 128.691 142.273  0.00  0.00    +0.000 OA
ATOM     27  O   UNL     1     105.282 129.901 141.550  0.00  0.00    +0.000 OA
ATOM     28  C   UNL     1     106.524 129.296 141.911  0.00  0.00    +0.000 C 
ATOM     29  C   UNL     1     105.715 129.233 141.765  0.00  0.00    +0.000 C 
ATOM     30  C   UNL     1     106.958 128.628 142.126  0.00  0.00    +0.000 C 
ATOM     31  C   UNL     1     105.339 128.502 141.834  0.00  0.00    +0.000 C 
ATOM     32  C   UNL     1     106.582 127.897 142.195  0.00  0.00    +0.000 C 
BRANCH  31  35
ATOM     33  O   UNL     1     103.991 128.541 142.304  0.00  0.00    +0.000 OA
ATOM     34  O   UNL     1     104.260 128.273 140.926  0.00  0.00    +0.000 OA
ATOM     35  C   UNL     1     104.530 128.438 141.687  0.00  0.00    +0.000 C 
ENDBRANCH  31  35
ENDBRANCH  23  32
ENDBRANCH   5  23
TORSDOF 8
ENDMDL
MODEL 8
REMARK VINA RESULT:      -8.3      8.241      9.994
REMARK  Name = 131836420
REMARK  8 active torsions:
REMARK  status: ('A' for Active; 'I' for Inactive)
REMARK    1  A    between atoms: O_2  and  C_18
REMARK    2  A    between atoms: O_2  and  C_20
REMARK    3  A    between atoms: O_13  and  C_34
REMARK    4  A    between atoms: C_17  and  C_19
REMARK    5  A    between atoms: C_23  and  C_26
REMARK    6  A    between atoms: C_26  and  C_27
REMARK    7  A    between atoms: C_27  and  C_28
REMARK    8  A    between atoms: C_28  and  C_29
REMARK                            x       y       z     vdW  Elec       q    Type
REMARK                         _______ _______ _______ _____ _____    ______ ____
ROOT
ATOM      1  O   UNL     1     107.105 125.941 143.323  0.00  0.00    +0.000 OA
ATOM      2  O   UNL     1     105.512 127.723 144.890  0.00  0.00    +0.000 OA
ATOM      3  O   UNL     1     104.683 128.172 143.536  0.00  0.00    +0.000 OA
ATOM      4  O   UNL     1     105.065 127.506 142.076  0.00  0.00    +0.000 OA
ATOM      5  C   UNL     1     106.308 126.832 144.106  0.00  0.00    +0.000 A 
ATOM      6  C   UNL     1     106.500 126.499 143.376  0.00  0.00    +0.000 A 
ATOM      7  C   UNL     1     105.703 127.389 144.160  0.00  0.00    +0.000 A 
ATOM      8  C   UNL     1     106.085 126.723 142.699  0.00  0.00    +0.000 A 
ATOM      9  C   UNL     1     105.289 127.614 143.483  0.00  0.00    +0.000 A 
ATOM     10  C   UNL     1     105.479 127.281 142.752  0.00  0.00    +0.000 A 
ENDROOT
BRANCH   8  12
ATOM     11  O   UNL     1     106.911 126.688 141.534  0.00  0.00    +0.000 OA
ATOM     12  C   UNL     1     106.276 126.391 141.969  0.00  0.00    +0.000 C 
BRANCH  12  13
ATOM     13  C   UNL     1     105.832 125.761 141.673  0.00  0.00    +0.000 C 
BRANCH  13  14
ATOM     14  C   UNL     1     106.093 125.349 141.008  0.00  0.00    +0.000 C 
BRANCH  14  15
ATOM     15  C   UNL     1     105.595 124.805 140.638  0.00  0.00    +0.000 A 
ATOM     16  C   UNL     1     105.481 124.058 140.969  0.00  0.00    +0.000 A 
ATOM     17  C   UNL     1     105.210 125.008 139.937  0.00  0.00    +0.000 A 
ATOM     18  C   UNL     1     104.983 123.514 140.599  0.00  0.00    +0.000 A 
ATOM     19  C   UNL     1     104.712 124.464 139.567  0.00  0.00    +0.000 A 
ATOM     20  C   UNL     1     104.599 123.718 139.898  0.00  0.00    +0.000 A 
BRANCH  20  21
ATOM     21  O   UNL     1     104.101 123.174 139.528  0.00  0.00    +0.000 OA
ATOM     22  C   UNL     1     103.538 123.433 138.983  0.00  0.00    +0.000 C 
ENDBRANCH  20  21
ENDBRANCH  14  15
ENDBRANCH  13  14
ENDBRANCH  12  13
ENDBRANCH   8  12
BRANCH   5  23
ATOM     23  O   UNL     1     106.723 126.608 144.783  0.00  0.00    +0.000 OA
BRANCH  23  32
ATOM     24  O   UNL     1     105.795 125.546 145.014  0.00  0.00    +0.000 OA
ATOM     25  O   UNL     1     106.797 125.154 147.243  0.00  0.00    +0.000 OA
ATOM     26  O   UNL     1     107.391 126.347 146.269  0.00  0.00    +0.000 OA
ATOM     27  O   UNL     1     105.536 124.224 146.731  0.00  0.00    +0.000 OA
ATOM     28  C   UNL     1     106.463 125.285 146.500  0.00  0.00    +0.000 C 
ATOM     29  C   UNL     1     105.832 124.820 146.244  0.00  0.00    +0.000 C 
ATOM     30  C   UNL     1     106.761 125.881 146.014  0.00  0.00    +0.000 C 
ATOM     31  C   UNL     1     105.498 124.950 145.501  0.00  0.00    +0.000 C 
ATOM     32  C   UNL     1     106.427 126.012 145.271  0.00  0.00    +0.000 C 
BRANCH  31  35
ATOM     33  O   UNL     1     105.008 123.830 144.762  0.00  0.00    +0.000 OA
ATOM     34  O   UNL     1     104.096 124.674 145.470  0.00  0.00    +0.000 OA
ATOM     35  C   UNL     1     104.867 124.485 145.245  0.00  0.00    +0.000 C 
ENDBRANCH  31  35
ENDBRANCH  23  32
ENDBRANCH   5  23
TORSDOF 8
ENDMDL
MODEL 9
REMARK VINA RESULT:      -8.2      1.923      5.614
REMARK  Name = 131836420
REMARK  8 active torsions:
REMARK  status: ('A' for Active; 'I' for Inactive)
REMARK    1  A    between atoms: O_2  and  C_18
REMARK    2  A    between atoms: O_2  and  C_20
REMARK    3  A    between atoms: O_13  and  C_34
REMARK    4  A    between atoms: C_17  and  C_19
REMARK    5  A    between atoms: C_23  and  C_26
REMARK    6  A    between atoms: C_26  and  C_27
REMARK    7  A    between atoms: C_27  and  C_28
REMARK    8  A    between atoms: C_28  and  C_29
REMARK                            x       y       z     vdW  Elec       q    Type
REMARK                         _______ _______ _______ _____ _____    ______ ____
ROOT
ATOM      1  O   UNL     1     109.407 126.948 137.652  0.00  0.00    +0.000 OA
ATOM      2  O   UNL     1     111.208 124.891 136.820  0.00  0.00    +0.000 OA
ATOM      3  O   UNL     1     110.791 125.161 135.247  0.00  0.00    +0.000 OA
ATOM      4  O   UNL     1     109.681 126.325 134.876  0.00  0.00    +0.000 OA
ATOM      5  C   UNL     1     110.307 125.919 137.236  0.00  0.00    +0.000 A 
ATOM      6  C   UNL     1     109.752 126.501 137.051  0.00  0.00    +0.000 A 
ATOM      7  C   UNL     1     110.653 125.473 136.635  0.00  0.00    +0.000 A 
ATOM      8  C   UNL     1     109.544 126.637 136.265  0.00  0.00    +0.000 A 
ATOM      9  C   UNL     1     110.444 125.608 135.849  0.00  0.00    +0.000 A 
ATOM     10  C   UNL     1     109.890 126.190 135.663  0.00  0.00    +0.000 A 
ENDROOT
BRANCH   8  12
ATOM     11  O   UNL     1     108.188 127.024 136.035  0.00  0.00    +0.000 OA
ATOM     12  C   UNL     1     108.989 127.218 136.079  0.00  0.00    +0.000 C 
BRANCH  12  13
ATOM     13  C   UNL     1     109.235 127.993 135.937  0.00  0.00    +0.000 C 
BRANCH  13  14
ATOM     14  C   UNL     1     108.684 128.566 135.714  0.00  0.00    +0.000 C 
BRANCH  14  15
ATOM     15  C   UNL     1     108.912 129.356 135.655  0.00  0.00    +0.000 A 
ATOM     16  C   UNL     1     108.615 129.913 136.187  0.00  0.00    +0.000 A 
ATOM     17  C   UNL     1     109.438 129.591 135.064  0.00  0.00    +0.000 A 
ATOM     18  C   UNL     1     108.844 130.703 136.128  0.00  0.00    +0.000 A 
ATOM     19  C   UNL     1     109.666 130.381 135.004  0.00  0.00    +0.000 A 
ATOM     20  C   UNL     1     109.370 130.937 135.536  0.00  0.00    +0.000 A 
BRANCH  20  21
ATOM     21  O   UNL     1     109.598 131.727 135.477  0.00  0.00    +0.000 OA
ATOM     22  C   UNL     1     109.028 132.317 135.395  0.00  0.00    +0.000 C 
ENDBRANCH  20  21
ENDBRANCH  14  15
ENDBRANCH  13  14
ENDBRANCH  12  13
ENDBRANCH   8  12
BRANCH   5  23
ATOM     23  O   UNL     1     110.516 125.784 138.023  0.00  0.00    +0.000 OA
BRANCH  23  32
ATOM     24  O   UNL     1     111.583 126.727 137.902  0.00  0.00    +0.000 OA
ATOM     25  O   UNL     1     112.217 126.312 140.258  0.00  0.00    +0.000 OA
ATOM     26  O   UNL     1     110.939 125.507 139.593  0.00  0.00    +0.000 OA
ATOM     27  O   UNL     1     113.072 127.392 139.351  0.00  0.00    +0.000 OA
ATOM     28  C   UNL     1     112.006 126.450 139.472  0.00  0.00    +0.000 C 
ATOM     29  C   UNL     1     112.433 126.990 139.020  0.00  0.00    +0.000 C 
ATOM     30  C   UNL     1     111.366 126.047 139.141  0.00  0.00    +0.000 C 
ATOM     31  C   UNL     1     112.222 127.128 138.234  0.00  0.00    +0.000 C 
ATOM     32  C   UNL     1     111.155 126.186 138.355  0.00  0.00    +0.000 C 
BRANCH  31  35
ATOM     33  O   UNL     1     112.411 128.459 137.748  0.00  0.00    +0.000 OA
ATOM     34  O   UNL     1     113.314 127.420 137.360  0.00  0.00    +0.000 OA
ATOM     35  C   UNL     1     112.649 127.669 137.781  0.00  0.00    +0.000 C 
ENDBRANCH  31  35
ENDBRANCH  23  32
ENDBRANCH   5  23
TORSDOF 8
ENDMDL
MODEL 10
REMARK VINA RESULT:      -8.2      2.126      3.947
REMARK  Name = 131836420
REMARK  8 active torsions:
REMARK  status: ('A' for Active; 'I' for Inactive)
REMARK    1  A    between atoms: O_2  and  C_18
REMARK    2  A    between atoms: O_2  and  C_20
REMARK    3  A    between atoms: O_13  and  C_34
REMARK    4  A    between atoms: C_17  and  C_19
REMARK    5  A    between atoms: C_23  and  C_26
REMARK    6  A    between atoms: C_26  and  C_27
REMARK    7  A    between atoms: C_27  and  C_28
REMARK    8  A    between atoms: C_28  and  C_29
REMARK                            x       y       z     vdW  Elec       q    Type
REMARK                         _______ _______ _______ _____ _____    ______ ____
ROOT
ATOM      1  O   UNL     1     109.948 126.432 138.001  0.00  0.00    +0.000 OA
ATOM      2  O   UNL     1     110.574 125.403 135.409  0.00  0.00    +0.000 OA
ATOM      3  O   UNL     1     111.948 124.719 136.012  0.00  0.00    +0.000 OA
ATOM      4  O   UNL     1     112.323 124.891 137.610  0.00  0.00    +0.000 OA
ATOM      5  C   UNL     1     110.261 125.918 136.705  0.00  0.00    +0.000 A 
ATOM      6  C   UNL     1     110.448 126.004 137.504  0.00  0.00    +0.000 A 
ATOM      7  C   UNL     1     110.760 125.490 136.208  0.00  0.00    +0.000 A 
ATOM      8  C   UNL     1     111.135 125.662 137.805  0.00  0.00    +0.000 A 
ATOM      9  C   UNL     1     111.448 125.148 136.509  0.00  0.00    +0.000 A 
ATOM     10  C   UNL     1     111.636 125.233 137.308  0.00  0.00    +0.000 A 
ENDROOT
BRANCH   8  12
ATOM     11  O   UNL     1     110.963 125.261 139.166  0.00  0.00    +0.000 OA
ATOM     12  C   UNL     1     111.323 125.748 138.604  0.00  0.00    +0.000 C 
BRANCH  12  13
ATOM     13  C   UNL     1     111.869 126.319 138.841  0.00  0.00    +0.000 C 
BRANCH  13  14
ATOM     14  C   UNL     1     111.984 126.471 139.644  0.00  0.00    +0.000 C 
BRANCH  14  15
ATOM     15  C   UNL     1     112.578 126.991 139.884  0.00  0.00    +0.000 A 
ATOM     16  C   UNL     1     113.271 126.698 140.223  0.00  0.00    +0.000 A 
ATOM     17  C   UNL     1     112.480 127.804 139.784  0.00  0.00    +0.000 A 
ATOM     18  C   UNL     1     113.865 127.218 140.463  0.00  0.00    +0.000 A 
ATOM     19  C   UNL     1     113.074 128.324 140.024  0.00  0.00    +0.000 A 
ATOM     20  C   UNL     1     113.766 128.031 140.363  0.00  0.00    +0.000 A 
BRANCH  20  21
ATOM     21  O   UNL     1     114.360 128.551 140.603  0.00  0.00    +0.000 OA
ATOM     22  C   UNL     1     114.210 129.361 140.636  0.00  0.00    +0.000 C 
ENDBRANCH  20  21
ENDBRANCH  14  15
ENDBRANCH  13  14
ENDBRANCH  12  13
ENDBRANCH   8  12
BRANCH   5  23
ATOM     23  O   UNL     1     109.573 126.260 136.403  0.00  0.00    +0.000 OA
BRANCH  23  32
ATOM     24  O   UNL     1     110.293 127.434 136.021  0.00  0.00    +0.000 OA
ATOM     25  O   UNL     1     108.155 128.645 135.720  0.00  0.00    +0.000 OA
ATOM     26  O   UNL     1     108.148 127.067 136.202  0.00  0.00    +0.000 OA
ATOM     27  O   UNL     1     109.586 129.415 135.439  0.00  0.00    +0.000 OA
ATOM     28  C   UNL     1     108.868 128.241 135.820  0.00  0.00    +0.000 C 
ATOM     29  C   UNL     1     109.583 128.627 135.680  0.00  0.00    +0.000 C 
ATOM     30  C   UNL     1     108.864 127.452 136.061  0.00  0.00    +0.000 C 
ATOM     31  C   UNL     1     110.295 128.223 135.780  0.00  0.00    +0.000 C 
ATOM     32  C   UNL     1     109.576 127.049 136.162  0.00  0.00    +0.000 C 
BRANCH  31  35
ATOM     33  O   UNL     1     111.395 129.002 136.256  0.00  0.00    +0.000 OA
ATOM     34  O   UNL     1     111.344 128.599 134.885  0.00  0.00    +0.000 OA
ATOM     35  C   UNL     1     111.011 128.608 135.640  0.00  0.00    +0.000 C 
ENDBRANCH  31  35
ENDBRANCH  23  32
ENDBRANCH   5  23
TORSDOF 8
ENDMDL
