MODEL 1
REMARK VINA RESULT:      -9.3      0.000      0.000
REMARK  Name = 44257828
REMARK  8 active torsions:
REMARK  status: ('A' for Active; 'I' for Inactive)
REMARK    1  A    between atoms: O_2  and  C_18
REMARK    2  A    between atoms: O_2  and  C_20
REMARK    3  A    between atoms: O_6  and  C_19
REMARK    4  A    between atoms: O_6  and  C_24
REMARK    5  A    between atoms: C_16  and  C_19
REMARK    6  A    between atoms: C_24  and  C_28
REMARK    7  A    between atoms: C_28  and  C_32
REMARK    8  A    between atoms: C_30  and  C_31
REMARK                            x       y       z     vdW  Elec       q    Type
REMARK                         _______ _______ _______ _____ _____    ______ ____
ROOT
ATOM      1  O   UNL     1     104.361 123.739 139.842  0.00  0.00    +0.000 OA
ATOM      2  O   UNL     1     105.367 123.583 142.572  0.00  0.00    +0.000 OA
ATOM      3  O   UNL     1     106.205 125.271 139.231  0.00  0.00    +0.000 OA
ATOM      4  C   UNL     1     106.121 124.706 140.786  0.00  0.00    +0.000 A 
ATOM      5  C   UNL     1     105.533 124.470 140.205  0.00  0.00    +0.000 A 
ATOM      6  C   UNL     1     106.067 124.408 141.589  0.00  0.00    +0.000 A 
ATOM      7  C   UNL     1     104.919 123.959 140.409  0.00  0.00    +0.000 A 
ATOM      8  C   UNL     1     105.591 124.760 139.435  0.00  0.00    +0.000 A 
ATOM      9  C   UNL     1     105.426 123.875 141.802  0.00  0.00    +0.000 A 
ATOM     10  C   UNL     1     104.848 123.649 141.207  0.00  0.00    +0.000 A 
ATOM     11  C   UNL     1     105.032 124.540 138.868  0.00  0.00    +0.000 A 
ATOM     12  C   UNL     1     104.417 124.029 139.073  0.00  0.00    +0.000 A 
ENDROOT
BRANCH  12  14
ATOM     13  O   UNL     1     102.185 123.148 136.807  0.00  0.00    +0.000 OA
ATOM     14  C   UNL     1     103.860 123.809 138.506  0.00  0.00    +0.000 A 
ATOM     15  C   UNL     1     103.061 123.974 138.628  0.00  0.00    +0.000 A 
ATOM     16  C   UNL     1     104.101 123.422 137.818  0.00  0.00    +0.000 A 
ATOM     17  C   UNL     1     102.503 123.754 138.061  0.00  0.00    +0.000 A 
ATOM     18  C   UNL     1     103.543 123.202 137.251  0.00  0.00    +0.000 A 
ATOM     19  C   UNL     1     102.744 123.368 137.373  0.00  0.00    +0.000 A 
ENDBRANCH  12  14
BRANCH   4  20
ATOM     20  O   UNL     1     106.732 125.218 140.574  0.00  0.00    +0.000 OA
BRANCH  20  29
ATOM     21  O   UNL     1     106.398 126.374 141.344  0.00  0.00    +0.000 OA
ATOM     22  O   UNL     1     107.632 127.653 142.611  0.00  0.00    +0.000 OA
ATOM     23  O   UNL     1     108.751 126.558 142.090  0.00  0.00    +0.000 OA
ATOM     24  O   UNL     1     108.301 125.340 141.071  0.00  0.00    +0.000 OA
ATOM     25  C   UNL     1     107.407 127.044 142.102  0.00  0.00    +0.000 C 
ATOM     26  C   UNL     1     107.966 126.496 141.841  0.00  0.00    +0.000 C 
ATOM     27  C   UNL     1     106.623 126.982 141.853  0.00  0.00    +0.000 C 
ATOM     28  C   UNL     1     107.742 125.887 141.332  0.00  0.00    +0.000 C 
ATOM     29  C   UNL     1     106.958 125.826 141.083  0.00  0.00    +0.000 C 
BRANCH  27  30
ATOM     30  C   UNL     1     106.063 127.530 142.114  0.00  0.00    +0.000 C 
BRANCH  30  31
ATOM     31  O   UNL     1     105.430 127.735 141.627  0.00  0.00    +0.000 OA
BRANCH  31  33
ATOM     32  O   UNL     1     104.430 127.962 142.623  0.00  0.00    +0.000 OA
ATOM     33  C   UNL     1     104.810 128.190 141.927  0.00  0.00    +0.000 C 
BRANCH  33  34
ATOM     34  C   UNL     1     104.570 128.873 141.531  0.00  0.00    +0.000 C 
BRANCH  34  37
ATOM     35  O   UNL     1     103.468 128.664 140.646  0.00  0.00    +0.000 OA
ATOM     36  O   UNL     1     103.285 129.409 141.853  0.00  0.00    +0.000 OA
ATOM     37  C   UNL     1     103.775 128.982 141.344  0.00  0.00    +0.000 C 
ENDBRANCH  34  37
ENDBRANCH  33  34
ENDBRANCH  31  33
ENDBRANCH  30  31
ENDBRANCH  27  30
ENDBRANCH  20  29
ENDBRANCH   4  20
TORSDOF 8
ENDMDL
MODEL 2
REMARK VINA RESULT:      -9.1      1.635      2.734
REMARK  Name = 44257828
REMARK  8 active torsions:
REMARK  status: ('A' for Active; 'I' for Inactive)
REMARK    1  A    between atoms: O_2  and  C_18
REMARK    2  A    between atoms: O_2  and  C_20
REMARK    3  A    between atoms: O_6  and  C_19
REMARK    4  A    between atoms: O_6  and  C_24
REMARK    5  A    between atoms: C_16  and  C_19
REMARK    6  A    between atoms: C_24  and  C_28
REMARK    7  A    between atoms: C_28  and  C_32
REMARK    8  A    between atoms: C_30  and  C_31
REMARK                            x       y       z     vdW  Elec       q    Type
REMARK                         _______ _______ _______ _____ _____    ______ ____
ROOT
ATOM      1  O   UNL     1     105.099 123.853 139.635  0.00  0.00    +0.000 OA
ATOM      2  O   UNL     1     107.481 123.490 141.273  0.00  0.00    +0.000 OA
ATOM      3  O   UNL     1     104.942 126.214 140.357  0.00  0.00    +0.000 OA
ATOM      4  C   UNL     1     106.180 125.283 140.944  0.00  0.00    +0.000 A 
ATOM      5  C   UNL     1     105.604 124.950 140.399  0.00  0.00    +0.000 A 
ATOM      6  C   UNL     1     106.817 124.791 141.242  0.00  0.00    +0.000 A 
ATOM      7  C   UNL     1     105.657 124.162 140.159  0.00  0.00    +0.000 A 
ATOM      8  C   UNL     1     104.995 125.428 140.117  0.00  0.00    +0.000 A 
ATOM      9  C   UNL     1     106.871 123.970 140.991  0.00  0.00    +0.000 A 
ATOM     10  C   UNL     1     106.288 123.654 140.446  0.00  0.00    +0.000 A 
ATOM     11  C   UNL     1     104.437 125.118 139.593  0.00  0.00    +0.000 A 
ATOM     12  C   UNL     1     104.489 124.330 139.352  0.00  0.00    +0.000 A 
ENDROOT
BRANCH  12  14
ATOM     13  O   UNL     1     102.258 123.093 137.259  0.00  0.00    +0.000 OA
ATOM     14  C   UNL     1     103.932 124.021 138.829  0.00  0.00    +0.000 A 
ATOM     15  C   UNL     1     103.157 123.890 139.082  0.00  0.00    +0.000 A 
ATOM     16  C   UNL     1     104.149 123.843 138.053  0.00  0.00    +0.000 A 
ATOM     17  C   UNL     1     102.600 123.580 138.558  0.00  0.00    +0.000 A 
ATOM     18  C   UNL     1     103.591 123.534 137.530  0.00  0.00    +0.000 A 
ATOM     19  C   UNL     1     102.817 123.402 137.782  0.00  0.00    +0.000 A 
ENDBRANCH  12  14
BRANCH   4  20
ATOM     20  O   UNL     1     106.119 126.072 141.179  0.00  0.00    +0.000 OA
BRANCH  20  29
ATOM     21  O   UNL     1     105.999 125.977 142.600  0.00  0.00    +0.000 OA
ATOM     22  O   UNL     1     107.104 126.974 144.197  0.00  0.00    +0.000 OA
ATOM     23  O   UNL     1     107.837 127.614 142.864  0.00  0.00    +0.000 OA
ATOM     24  O   UNL     1     107.345 127.162 141.355  0.00  0.00    +0.000 OA
ATOM     25  C   UNL     1     106.859 126.749 143.442  0.00  0.00    +0.000 C 
ATOM     26  C   UNL     1     107.225 127.068 142.776  0.00  0.00    +0.000 C 
ATOM     27  C   UNL     1     106.246 126.204 143.354  0.00  0.00    +0.000 C 
ATOM     28  C   UNL     1     106.979 126.843 142.021  0.00  0.00    +0.000 C 
ATOM     29  C   UNL     1     106.366 126.298 141.933  0.00  0.00    +0.000 C 
BRANCH  27  30
ATOM     30  C   UNL     1     105.879 125.883 144.021  0.00  0.00    +0.000 C 
BRANCH  30  31
ATOM     31  O   UNL     1     105.518 125.143 143.977  0.00  0.00    +0.000 OA
BRANCH  31  33
ATOM     32  O   UNL     1     104.836 125.298 145.223  0.00  0.00    +0.000 OA
ATOM     33  C   UNL     1     105.175 124.811 144.650  0.00  0.00    +0.000 C 
BRANCH  33  34
ATOM     34  C   UNL     1     105.171 123.992 144.750  0.00  0.00    +0.000 C 
BRANCH  34  37
ATOM     35  O   UNL     1     104.598 123.489 145.958  0.00  0.00    +0.000 OA
ATOM     36  O   UNL     1     103.869 123.405 144.731  0.00  0.00    +0.000 OA
ATOM     37  C   UNL     1     104.546 123.629 145.145  0.00  0.00    +0.000 C 
ENDBRANCH  34  37
ENDBRANCH  33  34
ENDBRANCH  31  33
ENDBRANCH  30  31
ENDBRANCH  27  30
ENDBRANCH  20  29
ENDBRANCH   4  20
TORSDOF 8
ENDMDL
MODEL 3
REMARK VINA RESULT:      -8.9      7.237      9.121
REMARK  Name = 44257828
REMARK  8 active torsions:
REMARK  status: ('A' for Active; 'I' for Inactive)
REMARK    1  A    between atoms: O_2  and  C_18
REMARK    2  A    between atoms: O_2  and  C_20
REMARK    3  A    between atoms: O_6  and  C_19
REMARK    4  A    between atoms: O_6  and  C_24
REMARK    5  A    between atoms: C_16  and  C_19
REMARK    6  A    between atoms: C_24  and  C_28
REMARK    7  A    between atoms: C_28  and  C_32
REMARK    8  A    between atoms: C_30  and  C_31
REMARK                            x       y       z     vdW  Elec       q    Type
REMARK                         _______ _______ _______ _____ _____    ______ ____
ROOT
ATOM      1  O   UNL     1     113.528 127.325 136.220  0.00  0.00    +0.000 OA
ATOM      2  O   UNL     1     113.941 129.830 134.791  0.00  0.00    +0.000 OA
ATOM      3  O   UNL     1     112.377 128.536 138.045  0.00  0.00    +0.000 OA
ATOM      4  C   UNL     1     112.948 129.400 136.752  0.00  0.00    +0.000 A 
ATOM      5  C   UNL     1     113.051 128.547 136.786  0.00  0.00    +0.000 A 
ATOM      6  C   UNL     1     113.249 129.837 136.078  0.00  0.00    +0.000 A 
ATOM      7  C   UNL     1     113.435 128.144 136.177  0.00  0.00    +0.000 A 
ATOM      8  C   UNL     1     112.760 128.133 137.437  0.00  0.00    +0.000 A 
ATOM      9  C   UNL     1     113.649 129.416 135.443  0.00  0.00    +0.000 A 
ATOM     10  C   UNL     1     113.743 128.564 135.494  0.00  0.00    +0.000 A 
ATOM     11  C   UNL     1     112.853 127.313 137.479  0.00  0.00    +0.000 A 
ATOM     12  C   UNL     1     113.237 126.910 136.870  0.00  0.00    +0.000 A 
ENDROOT
BRANCH  12  14
ATOM     13  O   UNL     1     113.609 123.635 137.041  0.00  0.00    +0.000 OA
ATOM     14  C   UNL     1     113.330 126.092 136.913  0.00  0.00    +0.000 A 
ATOM     15  C   UNL     1     112.740 125.593 136.623  0.00  0.00    +0.000 A 
ATOM     16  C   UNL     1     114.014 125.771 137.246  0.00  0.00    +0.000 A 
ATOM     17  C   UNL     1     112.833 124.775 136.666  0.00  0.00    +0.000 A 
ATOM     18  C   UNL     1     114.107 124.952 137.289  0.00  0.00    +0.000 A 
ATOM     19  C   UNL     1     113.517 124.454 136.999  0.00  0.00    +0.000 A 
ENDBRANCH  12  14
BRANCH   4  20
ATOM     20  O   UNL     1     112.563 129.795 137.366  0.00  0.00    +0.000 OA
BRANCH  20  29
ATOM     21  O   UNL     1     111.302 130.081 136.758  0.00  0.00    +0.000 OA
ATOM     22  O   UNL     1     110.134 131.924 136.688  0.00  0.00    +0.000 OA
ATOM     23  O   UNL     1     111.443 132.417 137.564  0.00  0.00    +0.000 OA
ATOM     24  O   UNL     1     112.657 131.353 137.902  0.00  0.00    +0.000 OA
ATOM     25  C   UNL     1     110.742 131.392 136.858  0.00  0.00    +0.000 C 
ATOM     26  C   UNL     1     111.396 131.638 137.295  0.00  0.00    +0.000 C 
ATOM     27  C   UNL     1     110.695 130.613 136.589  0.00  0.00    +0.000 C 
ATOM     28  C   UNL     1     112.003 131.107 137.465  0.00  0.00    +0.000 C 
ATOM     29  C   UNL     1     111.956 130.328 137.196  0.00  0.00    +0.000 C 
BRANCH  27  30
ATOM     30  C   UNL     1     110.040 130.367 136.151  0.00  0.00    +0.000 C 
BRANCH  30  31
ATOM     31  O   UNL     1     109.719 129.617 136.277  0.00  0.00    +0.000 OA
BRANCH  31  33
ATOM     32  O   UNL     1     108.517 129.771 135.518  0.00  0.00    +0.000 OA
ATOM     33  C   UNL     1     109.163 129.313 135.748  0.00  0.00    +0.000 C 
BRANCH  33  34
ATOM     34  C   UNL     1     109.255 128.549 135.449  0.00  0.00    +0.000 C 
BRANCH  34  37
ATOM     35  O   UNL     1     109.250 127.310 136.160  0.00  0.00    +0.000 OA
ATOM     36  O   UNL     1     108.016 127.906 135.753  0.00  0.00    +0.000 OA
ATOM     37  C   UNL     1     108.840 127.922 135.787  0.00  0.00    +0.000 C 
ENDBRANCH  34  37
ENDBRANCH  33  34
ENDBRANCH  31  33
ENDBRANCH  30  31
ENDBRANCH  27  30
ENDBRANCH  20  29
ENDBRANCH   4  20
TORSDOF 8
ENDMDL
MODEL 4
REMARK VINA RESULT:      -8.9      4.267      6.443
REMARK  Name = 44257828
REMARK  8 active torsions:
REMARK  status: ('A' for Active; 'I' for Inactive)
REMARK    1  A    between atoms: O_2  and  C_18
REMARK    2  A    between atoms: O_2  and  C_20
REMARK    3  A    between atoms: O_6  and  C_19
REMARK    4  A    between atoms: O_6  and  C_24
REMARK    5  A    between atoms: C_16  and  C_19
REMARK    6  A    between atoms: C_24  and  C_28
REMARK    7  A    between atoms: C_28  and  C_32
REMARK    8  A    between atoms: C_30  and  C_31
REMARK                            x       y       z     vdW  Elec       q    Type
REMARK                         _______ _______ _______ _____ _____    ______ ____
ROOT
ATOM      1  O   UNL     1     105.439 128.108 144.554  0.00  0.00    +0.000 OA
ATOM      2  O   UNL     1     105.772 128.654 147.396  0.00  0.00    +0.000 OA
ATOM      3  O   UNL     1     106.829 126.072 144.764  0.00  0.00    +0.000 OA
ATOM      4  C   UNL     1     106.553 126.991 146.115  0.00  0.00    +0.000 A 
ATOM      5  C   UNL     1     106.219 127.220 145.357  0.00  0.00    +0.000 A 
ATOM      6  C   UNL     1     106.404 127.475 146.808  0.00  0.00    +0.000 A 
ATOM      7  C   UNL     1     105.755 127.899 145.287  0.00  0.00    +0.000 A 
ATOM      8  C   UNL     1     106.366 126.751 144.695  0.00  0.00    +0.000 A 
ATOM      9  C   UNL     1     105.921 128.183 146.735  0.00  0.00    +0.000 A 
ATOM     10  C   UNL     1     105.594 128.396 145.969  0.00  0.00    +0.000 A 
ATOM     11  C   UNL     1     106.049 126.961 143.961  0.00  0.00    +0.000 A 
ATOM     12  C   UNL     1     105.586 127.640 143.892  0.00  0.00    +0.000 A 
ENDROOT
BRANCH  12  14
ATOM     13  O   UNL     1     104.321 128.479 140.961  0.00  0.00    +0.000 OA
ATOM     14  C   UNL     1     105.270 127.850 143.160  0.00  0.00    +0.000 A 
ATOM     15  C   UNL     1     104.794 128.520 143.092  0.00  0.00    +0.000 A 
ATOM     16  C   UNL     1     105.430 127.389 142.494  0.00  0.00    +0.000 A 
ATOM     17  C   UNL     1     104.478 128.729 142.360  0.00  0.00    +0.000 A 
ATOM     18  C   UNL     1     105.114 127.598 141.761  0.00  0.00    +0.000 A 
ATOM     19  C   UNL     1     104.638 128.269 141.694  0.00  0.00    +0.000 A 
ENDBRANCH  12  14
BRANCH   4  20
ATOM     20  O   UNL     1     107.016 126.311 146.175  0.00  0.00    +0.000 OA
BRANCH  20  29
ATOM     21  O   UNL     1     106.133 125.436 146.881  0.00  0.00    +0.000 OA
ATOM     22  O   UNL     1     106.474 124.160 148.619  0.00  0.00    +0.000 OA
ATOM     23  O   UNL     1     107.968 124.835 148.430  0.00  0.00    +0.000 OA
ATOM     24  O   UNL     1     108.239 125.910 147.208  0.00  0.00    +0.000 OA
ATOM     25  C   UNL     1     106.610 124.698 148.008  0.00  0.00    +0.000 C 
ATOM     26  C   UNL     1     107.357 125.035 147.913  0.00  0.00    +0.000 C 
ATOM     27  C   UNL     1     105.999 124.898 147.492  0.00  0.00    +0.000 C 
ATOM     28  C   UNL     1     107.493 125.573 147.303  0.00  0.00    +0.000 C 
ATOM     29  C   UNL     1     106.881 125.773 146.786  0.00  0.00    +0.000 C 
BRANCH  27  30
ATOM     30  C   UNL     1     105.251 124.561 147.587  0.00  0.00    +0.000 C 
BRANCH  30  31
ATOM     31  O   UNL     1     104.760 124.459 146.932  0.00  0.00    +0.000 OA
BRANCH  31  33
ATOM     32  O   UNL     1     103.528 124.403 147.657  0.00  0.00    +0.000 OA
ATOM     33  C   UNL     1     104.001 124.147 147.031  0.00  0.00    +0.000 C 
BRANCH  33  34
ATOM     34  C   UNL     1     103.717 123.580 146.503  0.00  0.00    +0.000 C 
BRANCH  34  37
ATOM     35  O   UNL     1     102.533 124.008 145.828  0.00  0.00    +0.000 OA
ATOM     36  O   UNL     1     102.467 122.946 146.782  0.00  0.00    +0.000 OA
ATOM     37  C   UNL     1     102.906 123.511 146.371  0.00  0.00    +0.000 C 
ENDBRANCH  34  37
ENDBRANCH  33  34
ENDBRANCH  31  33
ENDBRANCH  30  31
ENDBRANCH  27  30
ENDBRANCH  20  29
ENDBRANCH   4  20
TORSDOF 8
ENDMDL
MODEL 5
REMARK VINA RESULT:      -8.8      5.212      7.484
REMARK  Name = 44257828
REMARK  8 active torsions:
REMARK  status: ('A' for Active; 'I' for Inactive)
REMARK    1  A    between atoms: O_2  and  C_18
REMARK    2  A    between atoms: O_2  and  C_20
REMARK    3  A    between atoms: O_6  and  C_19
REMARK    4  A    between atoms: O_6  and  C_24
REMARK    5  A    between atoms: C_16  and  C_19
REMARK    6  A    between atoms: C_24  and  C_28
REMARK    7  A    between atoms: C_28  and  C_32
REMARK    8  A    between atoms: C_30  and  C_31
REMARK                            x       y       z     vdW  Elec       q    Type
REMARK                         _______ _______ _______ _____ _____    ______ ____
ROOT
ATOM      1  O   UNL     1     113.590 126.470 138.891  0.00  0.00    +0.000 OA
ATOM      2  O   UNL     1     113.154 127.842 141.424  0.00  0.00    +0.000 OA
ATOM      3  O   UNL     1     111.300 125.539 138.983  0.00  0.00    +0.000 OA
ATOM      4  C   UNL     1     111.810 126.519 140.216  0.00  0.00    +0.000 A 
ATOM      5  C   UNL     1     112.333 126.339 139.558  0.00  0.00    +0.000 A 
ATOM      6  C   UNL     1     112.086 127.028 140.851  0.00  0.00    +0.000 A 
ATOM      7  C   UNL     1     113.097 126.650 139.529  0.00  0.00    +0.000 A 
ATOM      8  C   UNL     1     112.063 125.849 138.953  0.00  0.00    +0.000 A 
ATOM      9  C   UNL     1     112.882 127.352 140.819  0.00  0.00    +0.000 A 
ATOM     10  C   UNL     1     113.390 127.161 140.154  0.00  0.00    +0.000 A 
ATOM     11  C   UNL     1     112.557 125.670 138.316  0.00  0.00    +0.000 A 
ATOM     12  C   UNL     1     113.320 125.981 138.286  0.00  0.00    +0.000 A 
ENDROOT
BRANCH  12  14
ATOM     13  O   UNL     1     115.294 125.264 135.740  0.00  0.00    +0.000 OA
ATOM     14  C   UNL     1     113.813 125.802 137.649  0.00  0.00    +0.000 A 
ATOM     15  C   UNL     1     114.313 125.146 137.686  0.00  0.00    +0.000 A 
ATOM     16  C   UNL     1     113.807 126.278 136.975  0.00  0.00    +0.000 A 
ATOM     17  C   UNL     1     114.807 124.967 137.050  0.00  0.00    +0.000 A 
ATOM     18  C   UNL     1     114.300 126.099 136.339  0.00  0.00    +0.000 A 
ATOM     19  C   UNL     1     114.800 125.444 136.376  0.00  0.00    +0.000 A 
ENDBRANCH  12  14
BRANCH   4  20
ATOM     20  O   UNL     1     111.048 126.203 140.238  0.00  0.00    +0.000 OA
BRANCH  20  29
ATOM     21  O   UNL     1     110.240 127.368 140.057  0.00  0.00    +0.000 OA
ATOM     22  O   UNL     1     108.507 128.092 141.169  0.00  0.00    +0.000 OA
ATOM     23  O   UNL     1     108.852 126.706 141.996  0.00  0.00    +0.000 OA
ATOM     24  O   UNL     1     110.122 125.762 141.531  0.00  0.00    +0.000 OA
ATOM     25  C   UNL     1     109.142 127.619 140.937  0.00  0.00    +0.000 C 
ATOM     26  C   UNL     1     109.315 126.927 141.350  0.00  0.00    +0.000 C 
ATOM     27  C   UNL     1     109.605 127.840 140.290  0.00  0.00    +0.000 C 
ATOM     28  C   UNL     1     109.950 126.454 141.118  0.00  0.00    +0.000 C 
ATOM     29  C   UNL     1     110.413 126.675 140.472  0.00  0.00    +0.000 C 
BRANCH  27  30
ATOM     30  C   UNL     1     109.432 128.533 139.876  0.00  0.00    +0.000 C 
BRANCH  30  31
ATOM     31  O   UNL     1     109.433 128.531 139.052  0.00  0.00    +0.000 OA
BRANCH  31  33
ATOM     32  O   UNL     1     108.832 129.822 138.925  0.00  0.00    +0.000 OA
ATOM     33  C   UNL     1     109.340 129.239 138.637  0.00  0.00    +0.000 C 
BRANCH  33  34
ATOM     34  C   UNL     1     109.755 129.363 137.936  0.00  0.00    +0.000 C 
BRANCH  34  37
ATOM     35  O   UNL     1     108.954 128.996 136.811  0.00  0.00    +0.000 OA
ATOM     36  O   UNL     1     109.339 130.360 137.000  0.00  0.00    +0.000 OA
ATOM     37  C   UNL     1     109.350 129.573 137.249  0.00  0.00    +0.000 C 
ENDBRANCH  34  37
ENDBRANCH  33  34
ENDBRANCH  31  33
ENDBRANCH  30  31
ENDBRANCH  27  30
ENDBRANCH  20  29
ENDBRANCH   4  20
TORSDOF 8
ENDMDL
MODEL 6
REMARK VINA RESULT:      -8.8      6.069      7.997
REMARK  Name = 44257828
REMARK  8 active torsions:
REMARK  status: ('A' for Active; 'I' for Inactive)
REMARK    1  A    between atoms: O_2  and  C_18
REMARK    2  A    between atoms: O_2  and  C_20
REMARK    3  A    between atoms: O_6  and  C_19
REMARK    4  A    between atoms: O_6  and  C_24
REMARK    5  A    between atoms: C_16  and  C_19
REMARK    6  A    between atoms: C_24  and  C_28
REMARK    7  A    between atoms: C_28  and  C_32
REMARK    8  A    between atoms: C_30  and  C_31
REMARK                            x       y       z     vdW  Elec       q    Type
REMARK                         _______ _______ _______ _____ _____    ______ ____
ROOT
ATOM      1  O   UNL     1     111.618 125.837 137.609  0.00  0.00    +0.000 OA
ATOM      2  O   UNL     1     108.926 126.350 138.598  0.00  0.00    +0.000 OA
ATOM      3  O   UNL     1     111.265 127.446 135.763  0.00  0.00    +0.000 OA
ATOM      4  C   UNL     1     110.035 127.190 136.842  0.00  0.00    +0.000 A 
ATOM      5  C   UNL     1     110.781 126.771 136.924  0.00  0.00    +0.000 A 
ATOM      6  C   UNL     1     109.405 127.050 137.408  0.00  0.00    +0.000 A 
ATOM      7  C   UNL     1     110.898 126.234 137.540  0.00  0.00    +0.000 A 
ATOM      8  C   UNL     1     111.382 126.910 136.378  0.00  0.00    +0.000 A 
ATOM      9  C   UNL     1     109.527 126.491 138.050  0.00  0.00    +0.000 A 
ATOM     10  C   UNL     1     110.279 126.080 138.116  0.00  0.00    +0.000 A 
ATOM     11  C   UNL     1     112.103 126.512 136.447  0.00  0.00    +0.000 A 
ATOM     12  C   UNL     1     112.220 125.976 137.063  0.00  0.00    +0.000 A 
ENDROOT
BRANCH  12  14
ATOM     13  O   UNL     1     115.099 124.386 137.339  0.00  0.00    +0.000 OA
ATOM     14  C   UNL     1     112.939 125.578 137.132  0.00  0.00    +0.000 A 
ATOM     15  C   UNL     1     113.059 124.868 136.730  0.00  0.00    +0.000 A 
ATOM     16  C   UNL     1     113.540 125.892 137.603  0.00  0.00    +0.000 A 
ATOM     17  C   UNL     1     113.779 124.471 136.799  0.00  0.00    +0.000 A 
ATOM     18  C   UNL     1     114.260 125.495 137.672  0.00  0.00    +0.000 A 
ATOM     19  C   UNL     1     114.379 124.784 137.270  0.00  0.00    +0.000 A 
ENDBRANCH  12  14
BRANCH   4  20
ATOM     20  O   UNL     1     109.927 127.725 136.224  0.00  0.00    +0.000 OA
BRANCH  20  29
ATOM     21  O   UNL     1     110.012 128.974 136.912  0.00  0.00    +0.000 OA
ATOM     22  O   UNL     1     108.728 130.738 136.837  0.00  0.00    +0.000 OA
ATOM     23  O   UNL     1     107.958 129.745 135.767  0.00  0.00    +0.000 OA
ATOM     24  O   UNL     1     108.557 128.239 135.460  0.00  0.00    +0.000 OA
ATOM     25  C   UNL     1     109.027 129.984 136.683  0.00  0.00    +0.000 C 
ATOM     26  C   UNL     1     108.642 129.488 136.148  0.00  0.00    +0.000 C 
ATOM     27  C   UNL     1     109.712 129.727 137.065  0.00  0.00    +0.000 C 
ATOM     28  C   UNL     1     108.942 128.735 135.995  0.00  0.00    +0.000 C 
ATOM     29  C   UNL     1     109.626 128.478 136.376  0.00  0.00    +0.000 C 
BRANCH  27  30
ATOM     30  C   UNL     1     110.097 130.224 137.600  0.00  0.00    +0.000 C 
BRANCH  30  31
ATOM     31  O   UNL     1     110.888 130.088 137.792  0.00  0.00    +0.000 OA
BRANCH  31  33
ATOM     32  O   UNL     1     111.260 131.321 138.413  0.00  0.00    +0.000 OA
ATOM     33  C   UNL     1     111.236 130.496 138.420  0.00  0.00    +0.000 C 
BRANCH  33  34
ATOM     34  C   UNL     1     111.559 130.079 139.054  0.00  0.00    +0.000 C 
BRANCH  34  37
ATOM     35  O   UNL     1     112.816 129.434 138.841  0.00  0.00    +0.000 OA
ATOM     36  O   UNL     1     112.756 130.658 139.577  0.00  0.00    +0.000 OA
ATOM     37  C   UNL     1     112.377 130.057 139.158  0.00  0.00    +0.000 C 
ENDBRANCH  34  37
ENDBRANCH  33  34
ENDBRANCH  31  33
ENDBRANCH  30  31
ENDBRANCH  27  30
ENDBRANCH  20  29
ENDBRANCH   4  20
TORSDOF 8
ENDMDL
MODEL 7
REMARK VINA RESULT:      -8.8      6.985      8.473
REMARK  Name = 44257828
REMARK  8 active torsions:
REMARK  status: ('A' for Active; 'I' for Inactive)
REMARK    1  A    between atoms: O_2  and  C_18
REMARK    2  A    between atoms: O_2  and  C_20
REMARK    3  A    between atoms: O_6  and  C_19
REMARK    4  A    between atoms: O_6  and  C_24
REMARK    5  A    between atoms: C_16  and  C_19
REMARK    6  A    between atoms: C_24  and  C_28
REMARK    7  A    between atoms: C_28  and  C_32
REMARK    8  A    between atoms: C_30  and  C_31
REMARK                            x       y       z     vdW  Elec       q    Type
REMARK                         _______ _______ _______ _____ _____    ______ ____
ROOT
ATOM      1  O   UNL     1     112.730 126.361 138.117  0.00  0.00    +0.000 OA
ATOM      2  O   UNL     1     113.031 128.592 139.967  0.00  0.00    +0.000 OA
ATOM      3  O   UNL     1     113.168 127.867 136.203  0.00  0.00    +0.000 OA
ATOM      4  C   UNL     1     113.179 128.501 137.734  0.00  0.00    +0.000 A 
ATOM      5  C   UNL     1     113.024 127.665 137.610  0.00  0.00    +0.000 A 
ATOM      6  C   UNL     1     113.182 128.818 138.531  0.00  0.00    +0.000 A 
ATOM      7  C   UNL     1     112.878 127.163 138.249  0.00  0.00    +0.000 A 
ATOM      8  C   UNL     1     113.022 127.366 136.841  0.00  0.00    +0.000 A 
ATOM      9  C   UNL     1     113.030 128.295 139.197  0.00  0.00    +0.000 A 
ATOM     10  C   UNL     1     112.877 127.462 139.054  0.00  0.00    +0.000 A 
ATOM     11  C   UNL     1     112.874 126.564 136.711  0.00  0.00    +0.000 A 
ATOM     12  C   UNL     1     112.728 126.062 137.349  0.00  0.00    +0.000 A 
ENDROOT
BRANCH  12  14
ATOM     13  O   UNL     1     112.136 122.858 136.826  0.00  0.00    +0.000 OA
ATOM     14  C   UNL     1     112.580 125.262 137.219  0.00  0.00    +0.000 A 
ATOM     15  C   UNL     1     111.805 124.980 137.218  0.00  0.00    +0.000 A 
ATOM     16  C   UNL     1     113.208 124.742 137.088  0.00  0.00    +0.000 A 
ATOM     17  C   UNL     1     111.657 124.179 137.088  0.00  0.00    +0.000 A 
ATOM     18  C   UNL     1     113.060 123.941 136.958  0.00  0.00    +0.000 A 
ATOM     19  C   UNL     1     112.285 123.659 136.957  0.00  0.00    +0.000 A 
ENDBRANCH  12  14
BRANCH   4  20
ATOM     20  O   UNL     1     113.324 128.995 137.089  0.00  0.00    +0.000 OA
BRANCH  20  29
ATOM     21  O   UNL     1     112.118 129.759 137.029  0.00  0.00    +0.000 OA
ATOM     22  O   UNL     1     111.797 131.912 136.870  0.00  0.00    +0.000 OA
ATOM     23  O   UNL     1     113.445 131.843 136.881  0.00  0.00    +0.000 OA
ATOM     24  O   UNL     1     114.209 130.384 136.990  0.00  0.00    +0.000 OA
ATOM     25  C   UNL     1     112.179 131.183 136.925  0.00  0.00    +0.000 C 
ATOM     26  C   UNL     1     113.003 131.148 136.930  0.00  0.00    +0.000 C 
ATOM     27  C   UNL     1     111.737 130.489 136.974  0.00  0.00    +0.000 C 
ATOM     28  C   UNL     1     113.386 130.419 136.985  0.00  0.00    +0.000 C 
ATOM     29  C   UNL     1     112.943 129.725 137.035  0.00  0.00    +0.000 C 
BRANCH  27  30
ATOM     30  C   UNL     1     110.912 130.523 136.969  0.00  0.00    +0.000 C 
BRANCH  30  31
ATOM     31  O   UNL     1     110.474 129.865 136.733  0.00  0.00    +0.000 OA
BRANCH  31  33
ATOM     32  O   UNL     1     109.231 130.122 137.391  0.00  0.00    +0.000 OA
ATOM     33  C   UNL     1     109.649 129.905 136.714  0.00  0.00    +0.000 C 
BRANCH  33  34
ATOM     34  C   UNL     1     109.245 129.727 136.018  0.00  0.00    +0.000 C 
BRANCH  34  37
ATOM     35  O   UNL     1     107.818 129.649 136.001  0.00  0.00    +0.000 OA
ATOM     36  O   UNL     1     108.597 128.457 136.123  0.00  0.00    +0.000 OA
ATOM     37  C   UNL     1     108.554 129.277 136.047  0.00  0.00    +0.000 C 
ENDBRANCH  34  37
ENDBRANCH  33  34
ENDBRANCH  31  33
ENDBRANCH  30  31
ENDBRANCH  27  30
ENDBRANCH  20  29
ENDBRANCH   4  20
TORSDOF 8
ENDMDL
MODEL 8
REMARK VINA RESULT:      -8.7      6.705      8.589
REMARK  Name = 44257828
REMARK  8 active torsions:
REMARK  status: ('A' for Active; 'I' for Inactive)
REMARK    1  A    between atoms: O_2  and  C_18
REMARK    2  A    between atoms: O_2  and  C_20
REMARK    3  A    between atoms: O_6  and  C_19
REMARK    4  A    between atoms: O_6  and  C_24
REMARK    5  A    between atoms: C_16  and  C_19
REMARK    6  A    between atoms: C_24  and  C_28
REMARK    7  A    between atoms: C_28  and  C_32
REMARK    8  A    between atoms: C_30  and  C_31
REMARK                            x       y       z     vdW  Elec       q    Type
REMARK                         _______ _______ _______ _____ _____    ______ ____
ROOT
ATOM      1  O   UNL     1     112.566 126.850 138.073  0.00  0.00    +0.000 OA
ATOM      2  O   UNL     1     110.258 128.440 138.868  0.00  0.00    +0.000 OA
ATOM      3  O   UNL     1     113.184 126.530 140.448  0.00  0.00    +0.000 OA
ATOM      4  C   UNL     1     111.837 127.424 140.089  0.00  0.00    +0.000 A 
ATOM      5  C   UNL     1     112.310 127.079 139.460  0.00  0.00    +0.000 A 
ATOM      6  C   UNL     1     111.141 127.886 139.892  0.00  0.00    +0.000 A 
ATOM      7  C   UNL     1     112.104 127.186 138.669  0.00  0.00    +0.000 A 
ATOM      8  C   UNL     1     112.978 126.637 139.657  0.00  0.00    +0.000 A 
ATOM      9  C   UNL     1     110.926 127.997 139.067  0.00  0.00    +0.000 A 
ATOM     10  C   UNL     1     111.410 127.645 138.451  0.00  0.00    +0.000 A 
ATOM     11  C   UNL     1     113.440 126.300 139.060  0.00  0.00    +0.000 A 
ATOM     12  C   UNL     1     113.233 126.408 138.269  0.00  0.00    +0.000 A 
ENDROOT
BRANCH  12  14
ATOM     13  O   UNL     1     115.081 125.064 135.887  0.00  0.00    +0.000 OA
ATOM     14  C   UNL     1     113.695 126.072 137.674  0.00  0.00    +0.000 A 
ATOM     15  C   UNL     1     113.887 126.511 137.002  0.00  0.00    +0.000 A 
ATOM     16  C   UNL     1     113.965 125.296 137.749  0.00  0.00    +0.000 A 
ATOM     17  C   UNL     1     114.348 126.176 136.407  0.00  0.00    +0.000 A 
ATOM     18  C   UNL     1     114.427 124.960 137.154  0.00  0.00    +0.000 A 
ATOM     19  C   UNL     1     114.619 125.399 136.483  0.00  0.00    +0.000 A 
ENDBRANCH  12  14
BRANCH   4  20
ATOM     20  O   UNL     1     112.051 127.312 140.878  0.00  0.00    +0.000 OA
BRANCH  20  29
ATOM     21  O   UNL     1     112.368 128.634 141.317  0.00  0.00    +0.000 OA
ATOM     22  O   UNL     1     111.684 129.767 143.053  0.00  0.00    +0.000 OA
ATOM     23  O   UNL     1     110.865 128.350 143.263  0.00  0.00    +0.000 OA
ATOM     24  O   UNL     1     111.049 127.122 142.175  0.00  0.00    +0.000 OA
ATOM     25  C   UNL     1     111.775 129.153 142.510  0.00  0.00    +0.000 C 
ATOM     26  C   UNL     1     111.366 128.445 142.614  0.00  0.00    +0.000 C 
ATOM     27  C   UNL     1     112.276 129.248 141.861  0.00  0.00    +0.000 C 
ATOM     28  C   UNL     1     111.458 127.830 142.071  0.00  0.00    +0.000 C 
ATOM     29  C   UNL     1     111.958 127.925 141.422  0.00  0.00    +0.000 C 
BRANCH  27  30
ATOM     30  C   UNL     1     112.685 129.957 141.756  0.00  0.00    +0.000 C 
BRANCH  30  31
ATOM     31  O   UNL     1     113.458 129.947 141.467  0.00  0.00    +0.000 OA
BRANCH  31  33
ATOM     32  O   UNL     1     113.741 131.319 141.752  0.00  0.00    +0.000 OA
ATOM     33  C   UNL     1     113.833 130.656 141.270  0.00  0.00    +0.000 C 
BRANCH  33  34
ATOM     34  C   UNL     1     114.301 130.700 140.592  0.00  0.00    +0.000 C 
BRANCH  34  37
ATOM     35  O   UNL     1     115.299 131.717 140.693  0.00  0.00    +0.000 OA
ATOM     36  O   UNL     1     115.681 130.339 140.673  0.00  0.00    +0.000 OA
ATOM     37  C   UNL     1     115.094 130.918 140.653  0.00  0.00    +0.000 C 
ENDBRANCH  34  37
ENDBRANCH  33  34
ENDBRANCH  31  33
ENDBRANCH  30  31
ENDBRANCH  27  30
ENDBRANCH  20  29
ENDBRANCH   4  20
TORSDOF 8
ENDMDL
MODEL 9
REMARK VINA RESULT:      -8.7      6.982      8.641
REMARK  Name = 44257828
REMARK  8 active torsions:
REMARK  status: ('A' for Active; 'I' for Inactive)
REMARK    1  A    between atoms: O_2  and  C_18
REMARK    2  A    between atoms: O_2  and  C_20
REMARK    3  A    between atoms: O_6  and  C_19
REMARK    4  A    between atoms: O_6  and  C_24
REMARK    5  A    between atoms: C_16  and  C_19
REMARK    6  A    between atoms: C_24  and  C_28
REMARK    7  A    between atoms: C_28  and  C_32
REMARK    8  A    between atoms: C_30  and  C_31
REMARK                            x       y       z     vdW  Elec       q    Type
REMARK                         _______ _______ _______ _____ _____    ______ ____
ROOT
ATOM      1  O   UNL     1     112.880 127.117 136.112  0.00  0.00    +0.000 OA
ATOM      2  O   UNL     1     112.240 129.531 134.612  0.00  0.00    +0.000 OA
ATOM      3  O   UNL     1     110.511 126.888 136.788  0.00  0.00    +0.000 OA
ATOM      4  C   UNL     1     110.945 128.164 135.825  0.00  0.00    +0.000 A 
ATOM      5  C   UNL     1     111.534 127.594 136.083  0.00  0.00    +0.000 A 
ATOM      6  C   UNL     1     111.181 128.822 135.326  0.00  0.00    +0.000 A 
ATOM      7  C   UNL     1     112.323 127.671 135.858  0.00  0.00    +0.000 A 
ATOM      8  C   UNL     1     111.300 126.965 136.562  0.00  0.00    +0.000 A 
ATOM      9  C   UNL     1     112.004 128.902 135.091  0.00  0.00    +0.000 A 
ATOM     10  C   UNL     1     112.579 128.322 135.359  0.00  0.00    +0.000 A 
ATOM     11  C   UNL     1     111.858 126.411 136.816  0.00  0.00    +0.000 A 
ATOM     12  C   UNL     1     112.648 126.488 136.591  0.00  0.00    +0.000 A 
ENDROOT
BRANCH  12  14
ATOM     13  O   UNL     1     114.875 124.275 137.607  0.00  0.00    +0.000 OA
ATOM     14  C   UNL     1     113.204 125.935 136.844  0.00  0.00    +0.000 A 
ATOM     15  C   UNL     1     113.677 126.096 137.501  0.00  0.00    +0.000 A 
ATOM     16  C   UNL     1     113.289 125.219 136.442  0.00  0.00    +0.000 A 
ATOM     17  C   UNL     1     114.234 125.543 137.755  0.00  0.00    +0.000 A 
ATOM     18  C   UNL     1     113.845 124.666 136.695  0.00  0.00    +0.000 A 
ATOM     19  C   UNL     1     114.318 124.828 137.352  0.00  0.00    +0.000 A 
ENDBRANCH  12  14
BRANCH   4  20
ATOM     20  O   UNL     1     110.157 128.080 136.055  0.00  0.00    +0.000 OA
BRANCH  20  29
ATOM     21  O   UNL     1     110.070 129.161 136.985  0.00  0.00    +0.000 OA
ATOM     22  O   UNL     1     108.513 130.660 137.293  0.00  0.00    +0.000 OA
ATOM     23  O   UNL     1     107.864 129.786 136.053  0.00  0.00    +0.000 OA
ATOM     24  O   UNL     1     108.686 128.496 135.434  0.00  0.00    +0.000 OA
ATOM     25  C   UNL     1     108.924 130.014 136.983  0.00  0.00    +0.000 C 
ATOM     26  C   UNL     1     108.600 129.578 136.363  0.00  0.00    +0.000 C 
ATOM     27  C   UNL     1     109.659 129.806 137.294  0.00  0.00    +0.000 C 
ATOM     28  C   UNL     1     109.010 128.933 136.054  0.00  0.00    +0.000 C 
ATOM     29  C   UNL     1     109.745 128.724 136.364  0.00  0.00    +0.000 C 
BRANCH  27  30
ATOM     30  C   UNL     1     109.984 130.243 137.915  0.00  0.00    +0.000 C 
BRANCH  30  31
ATOM     31  O   UNL     1     110.668 129.978 138.291  0.00  0.00    +0.000 OA
BRANCH  31  33
ATOM     32  O   UNL     1     110.726 130.866 139.410  0.00  0.00    +0.000 OA
ATOM     33  C   UNL     1     111.097 130.491 138.776  0.00  0.00    +0.000 C 
BRANCH  33  34
ATOM     34  C   UNL     1     111.896 130.627 138.625  0.00  0.00    +0.000 C 
BRANCH  34  37
ATOM     35  O   UNL     1     112.758 130.709 139.762  0.00  0.00    +0.000 OA
ATOM     36  O   UNL     1     112.757 129.533 138.949  0.00  0.00    +0.000 OA
ATOM     37  C   UNL     1     112.470 130.290 139.112  0.00  0.00    +0.000 C 
ENDBRANCH  34  37
ENDBRANCH  33  34
ENDBRANCH  31  33
ENDBRANCH  30  31
ENDBRANCH  27  30
ENDBRANCH  20  29
ENDBRANCH   4  20
TORSDOF 8
ENDMDL
MODEL 10
REMARK VINA RESULT:      -8.7      7.773      9.559
REMARK  Name = 44257828
REMARK  8 active torsions:
REMARK  status: ('A' for Active; 'I' for Inactive)
REMARK    1  A    between atoms: O_2  and  C_18
REMARK    2  A    between atoms: O_2  and  C_20
REMARK    3  A    between atoms: O_6  and  C_19
REMARK    4  A    between atoms: O_6  and  C_24
REMARK    5  A    between atoms: C_16  and  C_19
REMARK    6  A    between atoms: C_24  and  C_28
REMARK    7  A    between atoms: C_28  and  C_32
REMARK    8  A    between atoms: C_30  and  C_31
REMARK                            x       y       z     vdW  Elec       q    Type
REMARK                         _______ _______ _______ _____ _____    ______ ____
ROOT
ATOM      1  O   UNL     1     111.899 126.488 136.256  0.00  0.00    +0.000 OA
ATOM      2  O   UNL     1     111.045 129.091 135.264  0.00  0.00    +0.000 OA
ATOM      3  O   UNL     1     114.255 127.242 136.257  0.00  0.00    +0.000 OA
ATOM      4  C   UNL     1     113.081 128.300 135.762  0.00  0.00    +0.000 A 
ATOM      5  C   UNL     1     112.873 127.505 136.013  0.00  0.00    +0.000 A 
ATOM      6  C   UNL     1     112.464 128.840 135.508  0.00  0.00    +0.000 A 
ATOM      7  C   UNL     1     112.087 127.254 136.013  0.00  0.00    +0.000 A 
ATOM      8  C   UNL     1     113.470 126.992 136.257  0.00  0.00    +0.000 A 
ATOM      9  C   UNL     1     111.645 128.578 135.507  0.00  0.00    +0.000 A 
ATOM     10  C   UNL     1     111.455 127.780 135.762  0.00  0.00    +0.000 A 
ATOM     11  C   UNL     1     113.282 126.225 136.500  0.00  0.00    +0.000 A 
ATOM     12  C   UNL     1     112.496 125.974 136.499  0.00  0.00    +0.000 A 
ENDROOT
BRANCH  12  14
ATOM     13  O   UNL     1     111.743 122.912 137.472  0.00  0.00    +0.000 OA
ATOM     14  C   UNL     1     112.308 125.209 136.742  0.00  0.00    +0.000 A 
ATOM     15  C   UNL     1     111.830 125.092 137.405  0.00  0.00    +0.000 A 
ATOM     16  C   UNL     1     112.597 124.560 136.323  0.00  0.00    +0.000 A 
ATOM     17  C   UNL     1     111.642 124.326 137.648  0.00  0.00    +0.000 A 
ATOM     18  C   UNL     1     112.409 123.794 136.566  0.00  0.00    +0.000 A 
ATOM     19  C   UNL     1     111.931 123.677 137.228  0.00  0.00    +0.000 A 
ENDBRANCH  12  14
BRANCH   4  20
ATOM     20  O   UNL     1     113.869 128.543 135.766  0.00  0.00    +0.000 OA
BRANCH  20  29
ATOM     21  O   UNL     1     113.877 129.599 136.728  0.00  0.00    +0.000 OA
ATOM     22  O   UNL     1     114.639 131.641 136.603  0.00  0.00    +0.000 OA
ATOM     23  O   UNL     1     115.008 131.077 135.097  0.00  0.00    +0.000 OA
ATOM     24  O   UNL     1     114.624 129.528 134.678  0.00  0.00    +0.000 OA
ATOM     25  C   UNL     1     114.447 130.866 136.393  0.00  0.00    +0.000 C 
ATOM     26  C   UNL     1     114.631 130.585 135.640  0.00  0.00    +0.000 C 
ATOM     27  C   UNL     1     114.070 130.374 136.937  0.00  0.00    +0.000 C 
ATOM     28  C   UNL     1     114.439 129.810 135.431  0.00  0.00    +0.000 C 
ATOM     29  C   UNL     1     114.062 129.317 135.974  0.00  0.00    +0.000 C 
BRANCH  27  30
ATOM     30  C   UNL     1     113.885 130.656 137.690  0.00  0.00    +0.000 C 
BRANCH  30  31
ATOM     31  O   UNL     1     114.040 130.190 138.354  0.00  0.00    +0.000 OA
BRANCH  31  33
ATOM     32  O   UNL     1     113.092 130.742 139.271  0.00  0.00    +0.000 OA
ATOM     33  C   UNL     1     113.854 130.472 139.107  0.00  0.00    +0.000 C 
BRANCH  33  34
ATOM     34  C   UNL     1     114.432 130.483 139.696  0.00  0.00    +0.000 C 
BRANCH  34  37
ATOM     35  O   UNL     1     114.151 129.563 140.752  0.00  0.00    +0.000 OA
ATOM     36  O   UNL     1     114.084 130.970 140.994  0.00  0.00    +0.000 OA
ATOM     37  C   UNL     1     114.222 130.339 140.481  0.00  0.00    +0.000 C 
ENDBRANCH  34  37
ENDBRANCH  33  34
ENDBRANCH  31  33
ENDBRANCH  30  31
ENDBRANCH  27  30
ENDBRANCH  20  29
ENDBRANCH   4  20
TORSDOF 8
ENDMDL
