MODEL 1
REMARK VINA RESULT:      -8.0      0.000      0.000
REMARK  Name = 5322009
REMARK  8 active torsions:
REMARK  status: ('A' for Active; 'I' for Inactive)
REMARK    1  A    between atoms: O_2  and  C_12
REMARK    2  A    between atoms: O_2  and  C_25
REMARK    3  A    between atoms: O_3  and  C_15
REMARK    4  A    between atoms: O_4  and  C_17
REMARK    5  A    between atoms: O_4  and  C_27
REMARK    6  A    between atoms: O_6  and  C_24
REMARK    7  A    between atoms: O_6  and  C_30
REMARK    8  A    between atoms: C_13  and  C_19
REMARK                            x       y       z     vdW  Elec       q    Type
REMARK                         _______ _______ _______ _____ _____    ______ ____
ROOT
ATOM      1  O   UNL     1     112.632 127.456 136.020  0.00  0.00    +0.000 OA
ATOM      2  O   UNL     1     114.175 125.899 137.288  0.00  0.00    +0.000 OA
ATOM      3  C   UNL     1     112.885 126.160 136.654  0.00  0.00    +0.000 A 
ATOM      4  C   UNL     1     112.380 126.665 136.241  0.00  0.00    +0.000 A 
ATOM      5  C   UNL     1     112.631 125.402 136.861  0.00  0.00    +0.000 A 
ATOM      6  C   UNL     1     113.421 127.725 136.232  0.00  0.00    +0.000 A 
ATOM      7  C   UNL     1     113.676 126.410 136.875  0.00  0.00    +0.000 A 
ATOM      8  C   UNL     1     111.874 125.150 136.654  0.00  0.00    +0.000 A 
ATOM      9  C   UNL     1     111.622 126.412 136.034  0.00  0.00    +0.000 A 
ATOM     10  C   UNL     1     111.369 125.655 136.241  0.00  0.00    +0.000 A 
ATOM     11  C   UNL     1     113.946 127.199 136.663  0.00  0.00    +0.000 A 
ENDROOT
BRANCH   6  12
ATOM     12  C   UNL     1     113.671 128.483 136.024  0.00  0.00    +0.000 A 
ATOM     13  C   UNL     1     113.512 129.122 136.522  0.00  0.00    +0.000 A 
ATOM     14  C   UNL     1     114.079 128.603 135.317  0.00  0.00    +0.000 A 
ATOM     15  C   UNL     1     113.762 129.879 136.313  0.00  0.00    +0.000 A 
ATOM     16  C   UNL     1     114.330 129.360 135.108  0.00  0.00    +0.000 A 
ATOM     17  C   UNL     1     114.171 129.999 135.606  0.00  0.00    +0.000 A 
BRANCH  17  18
ATOM     18  O   UNL     1     114.421 130.756 135.397  0.00  0.00    +0.000 OA
BRANCH  18  20
ATOM     19  O   UNL     1     115.691 130.935 136.027  0.00  0.00    +0.000 OA
ATOM     20  C   UNL     1     115.226 130.925 135.345  0.00  0.00    +0.000 C 
ATOM     21  C   UNL     1     115.568 131.085 134.612  0.00  0.00    +0.000 C 
ENDBRANCH  18  20
ENDBRANCH  17  18
ENDBRANCH   6  12
BRANCH   8  22
ATOM     22  O   UNL     1     111.620 124.392 136.861  0.00  0.00    +0.000 OA
ATOM     23  C   UNL     1     111.240 124.266 137.582  0.00  0.00    +0.000 C 
ENDBRANCH   8  22
BRANCH   5  24
ATOM     24  O   UNL     1     113.136 124.897 137.274  0.00  0.00    +0.000 OA
BRANCH  24  26
ATOM     25  O   UNL     1     113.632 124.217 136.119  0.00  0.00    +0.000 OA
ATOM     26  C   UNL     1     113.752 124.515 136.880  0.00  0.00    +0.000 C 
ATOM     27  C   UNL     1     114.487 124.431 137.245  0.00  0.00    +0.000 C 
ENDBRANCH  24  26
ENDBRANCH   5  24
BRANCH  10  28
ATOM     28  O   UNL     1     110.611 125.402 136.034  0.00  0.00    +0.000 OA
BRANCH  28  30
ATOM     29  O   UNL     1     109.690 126.482 135.865  0.00  0.00    +0.000 OA
ATOM     30  C   UNL     1     110.140 125.869 135.543  0.00  0.00    +0.000 C 
ATOM     31  C   UNL     1     110.120 125.723 134.732  0.00  0.00    +0.000 C 
ENDBRANCH  28  30
ENDBRANCH  10  28
TORSDOF 8
ENDMDL
MODEL 2
REMARK VINA RESULT:      -7.7     10.298     12.107
REMARK  Name = 5322009
REMARK  8 active torsions:
REMARK  status: ('A' for Active; 'I' for Inactive)
REMARK    1  A    between atoms: O_2  and  C_12
REMARK    2  A    between atoms: O_2  and  C_25
REMARK    3  A    between atoms: O_3  and  C_15
REMARK    4  A    between atoms: O_4  and  C_17
REMARK    5  A    between atoms: O_4  and  C_27
REMARK    6  A    between atoms: O_6  and  C_24
REMARK    7  A    between atoms: O_6  and  C_30
REMARK    8  A    between atoms: C_13  and  C_19
REMARK                            x       y       z     vdW  Elec       q    Type
REMARK                         _______ _______ _______ _____ _____    ______ ____
ROOT
ATOM      1  O   UNL     1     105.135 126.200 145.009  0.00  0.00    +0.000 OA
ATOM      2  O   UNL     1     107.149 126.703 146.458  0.00  0.00    +0.000 OA
ATOM      3  C   UNL     1     105.929 125.939 146.212  0.00  0.00    +0.000 A 
ATOM      4  C   UNL     1     105.272 125.773 145.742  0.00  0.00    +0.000 A 
ATOM      5  C   UNL     1     106.050 125.522 146.914  0.00  0.00    +0.000 A 
ATOM      6  C   UNL     1     105.690 126.808 144.763  0.00  0.00    +0.000 A 
ATOM      7  C   UNL     1     106.495 126.543 145.982  0.00  0.00    +0.000 A 
ATOM      8  C   UNL     1     105.514 124.940 147.145  0.00  0.00    +0.000 A 
ATOM      9  C   UNL     1     104.735 125.190 145.974  0.00  0.00    +0.000 A 
ATOM     10  C   UNL     1     104.857 124.774 146.675  0.00  0.00    +0.000 A 
ATOM     11  C   UNL     1     106.374 126.981 145.252  0.00  0.00    +0.000 A 
ENDROOT
BRANCH   6  12
ATOM     12  C   UNL     1     105.566 127.223 144.060  0.00  0.00    +0.000 A 
ATOM     13  C   UNL     1     105.801 126.896 143.340  0.00  0.00    +0.000 A 
ATOM     14  C   UNL     1     105.206 127.965 144.078  0.00  0.00    +0.000 A 
ATOM     15  C   UNL     1     105.677 127.310 142.638  0.00  0.00    +0.000 A 
ATOM     16  C   UNL     1     105.081 128.381 143.376  0.00  0.00    +0.000 A 
ATOM     17  C   UNL     1     105.316 128.054 142.656  0.00  0.00    +0.000 A 
BRANCH  17  18
ATOM     18  O   UNL     1     105.192 128.468 141.955  0.00  0.00    +0.000 OA
BRANCH  18  20
ATOM     19  O   UNL     1     104.393 127.709 141.046  0.00  0.00    +0.000 OA
ATOM     20  C   UNL     1     104.490 128.367 141.534  0.00  0.00    +0.000 C 
ATOM     21  C   UNL     1     103.884 128.923 141.601  0.00  0.00    +0.000 C 
ENDBRANCH  18  20
ENDBRANCH  17  18
ENDBRANCH   6  12
BRANCH   8  22
ATOM     22  O   UNL     1     105.634 124.523 147.847  0.00  0.00    +0.000 OA
ATOM     23  C   UNL     1     105.218 124.730 148.528  0.00  0.00    +0.000 C 
ENDBRANCH   8  22
BRANCH   5  24
ATOM     24  O   UNL     1     106.707 125.688 147.384  0.00  0.00    +0.000 OA
BRANCH  24  26
ATOM     25  O   UNL     1     107.515 124.815 146.593  0.00  0.00    +0.000 OA
ATOM     26  C   UNL     1     107.410 125.272 147.272  0.00  0.00    +0.000 C 
ATOM     27  C   UNL     1     108.009 125.314 147.838  0.00  0.00    +0.000 C 
ENDBRANCH  24  26
ENDBRANCH   5  24
BRANCH  10  28
ATOM     28  O   UNL     1     104.320 124.190 146.907  0.00  0.00    +0.000 OA
BRANCH  28  30
ATOM     29  O   UNL     1     104.299 123.205 145.873  0.00  0.00    +0.000 OA
ATOM     30  C   UNL     1     103.905 123.762 146.337  0.00  0.00    +0.000 C 
ATOM     31  C   UNL     1     103.098 123.890 146.232  0.00  0.00    +0.000 C 
ENDBRANCH  28  30
ENDBRANCH  10  28
TORSDOF 8
ENDMDL
MODEL 3
REMARK VINA RESULT:      -7.6      1.672      2.112
REMARK  Name = 5322009
REMARK  8 active torsions:
REMARK  status: ('A' for Active; 'I' for Inactive)
REMARK    1  A    between atoms: O_2  and  C_12
REMARK    2  A    between atoms: O_2  and  C_25
REMARK    3  A    between atoms: O_3  and  C_15
REMARK    4  A    between atoms: O_4  and  C_17
REMARK    5  A    between atoms: O_4  and  C_27
REMARK    6  A    between atoms: O_6  and  C_24
REMARK    7  A    between atoms: O_6  and  C_30
REMARK    8  A    between atoms: C_13  and  C_19
REMARK                            x       y       z     vdW  Elec       q    Type
REMARK                         _______ _______ _______ _____ _____    ______ ____
ROOT
ATOM      1  O   UNL     1     112.003 127.415 137.017  0.00  0.00    +0.000 OA
ATOM      2  O   UNL     1     113.907 126.034 137.953  0.00  0.00    +0.000 OA
ATOM      3  C   UNL     1     112.682 126.126 137.163  0.00  0.00    +0.000 A 
ATOM      4  C   UNL     1     112.061 126.574 136.857  0.00  0.00    +0.000 A 
ATOM      5  C   UNL     1     112.727 125.318 137.002  0.00  0.00    +0.000 A 
ATOM      6  C   UNL     1     112.600 127.797 137.503  0.00  0.00    +0.000 A 
ATOM      7  C   UNL     1     113.289 126.489 137.651  0.00  0.00    +0.000 A 
ATOM      8  C   UNL     1     112.151 124.958 136.535  0.00  0.00    +0.000 A 
ATOM      9  C   UNL     1     111.484 126.213 136.389  0.00  0.00    +0.000 A 
ATOM     10  C   UNL     1     111.529 125.405 136.228  0.00  0.00    +0.000 A 
ATOM     11  C   UNL     1     113.248 127.331 137.823  0.00  0.00    +0.000 A 
ENDROOT
BRANCH   6  12
ATOM     12  C   UNL     1     112.552 128.605 137.663  0.00  0.00    +0.000 A 
ATOM     13  C   UNL     1     112.903 129.149 137.151  0.00  0.00    +0.000 A 
ATOM     14  C   UNL     1     112.152 128.870 138.334  0.00  0.00    +0.000 A 
ATOM     15  C   UNL     1     112.855 129.956 137.310  0.00  0.00    +0.000 A 
ATOM     16  C   UNL     1     112.104 129.678 138.494  0.00  0.00    +0.000 A 
ATOM     17  C   UNL     1     112.455 130.221 137.982  0.00  0.00    +0.000 A 
BRANCH  17  18
ATOM     18  O   UNL     1     112.406 131.028 138.141  0.00  0.00    +0.000 OA
BRANCH  18  20
ATOM     19  O   UNL     1     111.108 131.503 138.502  0.00  0.00    +0.000 OA
ATOM     20  C   UNL     1     111.721 131.446 137.952  0.00  0.00    +0.000 C 
ATOM     21  C   UNL     1     111.646 131.807 137.214  0.00  0.00    +0.000 C 
ENDBRANCH  18  20
ENDBRANCH  17  18
ENDBRANCH   6  12
BRANCH   8  22
ATOM     22  O   UNL     1     112.195 124.150 136.373  0.00  0.00    +0.000 OA
ATOM     23  C   UNL     1     111.801 123.610 136.855  0.00  0.00    +0.000 C 
ENDBRANCH   8  22
BRANCH   5  24
ATOM     24  O   UNL     1     113.348 124.870 137.308  0.00  0.00    +0.000 OA
BRANCH  24  26
ATOM     25  O   UNL     1     114.148 124.957 136.127  0.00  0.00    +0.000 OA
ATOM     26  C   UNL     1     114.090 124.893 136.948  0.00  0.00    +0.000 C 
ATOM     27  C   UNL     1     114.774 124.852 137.408  0.00  0.00    +0.000 C 
ENDBRANCH  24  26
ENDBRANCH   5  24
BRANCH  10  28
ATOM     28  O   UNL     1     110.952 125.045 135.760  0.00  0.00    +0.000 OA
BRANCH  28  30
ATOM     29  O   UNL     1     109.698 125.727 135.821  0.00  0.00    +0.000 OA
ATOM     30  C   UNL     1     110.370 125.503 135.397  0.00  0.00    +0.000 C 
ATOM     31  C   UNL     1     110.460 125.737 134.612  0.00  0.00    +0.000 C 
ENDBRANCH  28  30
ENDBRANCH  10  28
TORSDOF 8
ENDMDL
MODEL 4
REMARK VINA RESULT:      -7.5      9.670     12.040
REMARK  Name = 5322009
REMARK  8 active torsions:
REMARK  status: ('A' for Active; 'I' for Inactive)
REMARK    1  A    between atoms: O_2  and  C_12
REMARK    2  A    between atoms: O_2  and  C_25
REMARK    3  A    between atoms: O_3  and  C_15
REMARK    4  A    between atoms: O_4  and  C_17
REMARK    5  A    between atoms: O_4  and  C_27
REMARK    6  A    between atoms: O_6  and  C_24
REMARK    7  A    between atoms: O_6  and  C_30
REMARK    8  A    between atoms: C_13  and  C_19
REMARK                            x       y       z     vdW  Elec       q    Type
REMARK                         _______ _______ _______ _____ _____    ______ ____
ROOT
ATOM      1  O   UNL     1     106.626 126.384 145.519  0.00  0.00    +0.000 OA
ATOM      2  O   UNL     1     105.381 124.641 144.169  0.00  0.00    +0.000 OA
ATOM      3  C   UNL     1     106.071 125.926 144.243  0.00  0.00    +0.000 A 
ATOM      4  C   UNL     1     106.477 126.496 144.681  0.00  0.00    +0.000 A 
ATOM      5  C   UNL     1     105.934 126.045 143.438  0.00  0.00    +0.000 A 
ATOM      6  C   UNL     1     106.349 125.669 145.908  0.00  0.00    +0.000 A 
ATOM      7  C   UNL     1     105.786 125.206 144.614  0.00  0.00    +0.000 A 
ATOM      8  C   UNL     1     106.202 126.733 143.071  0.00  0.00    +0.000 A 
ATOM      9  C   UNL     1     106.746 127.184 144.313  0.00  0.00    +0.000 A 
ATOM     10  C   UNL     1     106.608 127.302 143.509  0.00  0.00    +0.000 A 
ATOM     11  C   UNL     1     105.926 125.076 145.452  0.00  0.00    +0.000 A 
ENDROOT
BRANCH   6  12
ATOM     12  C   UNL     1     106.488 125.554 146.713  0.00  0.00    +0.000 A 
ATOM     13  C   UNL     1     105.878 125.666 147.258  0.00  0.00    +0.000 A 
ATOM     14  C   UNL     1     107.237 125.326 146.973  0.00  0.00    +0.000 A 
ATOM     15  C   UNL     1     106.018 125.551 148.062  0.00  0.00    +0.000 A 
ATOM     16  C   UNL     1     107.377 125.211 147.778  0.00  0.00    +0.000 A 
ATOM     17  C   UNL     1     106.768 125.323 148.323  0.00  0.00    +0.000 A 
BRANCH  17  18
ATOM     18  O   UNL     1     106.907 125.208 149.127  0.00  0.00    +0.000 OA
BRANCH  18  20
ATOM     19  O   UNL     1     106.594 123.856 149.470  0.00  0.00    +0.000 OA
ATOM     20  C   UNL     1     107.144 124.468 149.403  0.00  0.00    +0.000 C 
ATOM     21  C   UNL     1     107.932 124.338 149.611  0.00  0.00    +0.000 C 
ENDBRANCH  18  20
ENDBRANCH  17  18
ENDBRANCH   6  12
BRANCH   8  22
ATOM     22  O   UNL     1     106.065 126.852 142.266  0.00  0.00    +0.000 OA
ATOM     23  C   UNL     1     105.449 127.341 142.020  0.00  0.00    +0.000 C 
ENDBRANCH   8  22
BRANCH   5  24
ATOM     24  O   UNL     1     105.528 125.476 143.001  0.00  0.00    +0.000 OA
BRANCH  24  26
ATOM     25  O   UNL     1     106.739 124.922 142.483  0.00  0.00    +0.000 OA
ATOM     26  C   UNL     1     105.937 124.844 142.664  0.00  0.00    +0.000 C 
ATOM     27  C   UNL     1     105.546 124.135 142.507  0.00  0.00    +0.000 C 
ENDBRANCH  24  26
ENDBRANCH   5  24
BRANCH  10  28
ATOM     28  O   UNL     1     106.877 127.991 143.141  0.00  0.00    +0.000 OA
BRANCH  28  30
ATOM     29  O   UNL     1     108.291 128.071 143.334  0.00  0.00    +0.000 OA
ATOM     30  C   UNL     1     107.536 128.388 143.440  0.00  0.00    +0.000 C 
ATOM     31  C   UNL     1     107.440 129.100 143.843  0.00  0.00    +0.000 C 
ENDBRANCH  28  30
ENDBRANCH  10  28
TORSDOF 8
ENDMDL
MODEL 5
REMARK VINA RESULT:      -7.4      6.696      9.655
REMARK  Name = 5322009
REMARK  8 active torsions:
REMARK  status: ('A' for Active; 'I' for Inactive)
REMARK    1  A    between atoms: O_2  and  C_12
REMARK    2  A    between atoms: O_2  and  C_25
REMARK    3  A    between atoms: O_3  and  C_15
REMARK    4  A    between atoms: O_4  and  C_17
REMARK    5  A    between atoms: O_4  and  C_27
REMARK    6  A    between atoms: O_6  and  C_24
REMARK    7  A    between atoms: O_6  and  C_30
REMARK    8  A    between atoms: C_13  and  C_19
REMARK                            x       y       z     vdW  Elec       q    Type
REMARK                         _______ _______ _______ _____ _____    ______ ____
ROOT
ATOM      1  O   UNL     1     106.868 125.499 140.743  0.00  0.00    +0.000 OA
ATOM      2  O   UNL     1     105.516 126.607 142.575  0.00  0.00    +0.000 OA
ATOM      3  C   UNL     1     106.790 126.410 141.888  0.00  0.00    +0.000 A 
ATOM      4  C   UNL     1     107.233 126.050 141.292  0.00  0.00    +0.000 A 
ATOM      5  C   UNL     1     107.152 126.938 142.408  0.00  0.00    +0.000 A 
ATOM      6  C   UNL     1     106.031 125.319 140.816  0.00  0.00    +0.000 A 
ATOM      7  C   UNL     1     105.952 126.243 141.976  0.00  0.00    +0.000 A 
ATOM      8  C   UNL     1     107.955 127.107 142.333  0.00  0.00    +0.000 A 
ATOM      9  C   UNL     1     108.037 126.219 141.216  0.00  0.00    +0.000 A 
ATOM     10  C   UNL     1     108.398 126.747 141.737  0.00  0.00    +0.000 A 
ATOM     11  C   UNL     1     105.570 125.693 141.437  0.00  0.00    +0.000 A 
ENDROOT
BRANCH   6  12
ATOM     12  C   UNL     1     105.673 124.790 140.294  0.00  0.00    +0.000 A 
ATOM     13  C   UNL     1     105.372 125.059 139.574  0.00  0.00    +0.000 A 
ATOM     14  C   UNL     1     105.615 123.991 140.491  0.00  0.00    +0.000 A 
ATOM     15  C   UNL     1     105.015 124.531 139.052  0.00  0.00    +0.000 A 
ATOM     16  C   UNL     1     105.258 123.461 139.969  0.00  0.00    +0.000 A 
ATOM     17  C   UNL     1     104.957 123.731 139.250  0.00  0.00    +0.000 A 
BRANCH  17  18
ATOM     18  O   UNL     1     104.600 123.203 138.728  0.00  0.00    +0.000 OA
BRANCH  18  20
ATOM     19  O   UNL     1     103.194 123.364 138.927  0.00  0.00    +0.000 OA
ATOM     20  C   UNL     1     103.850 123.365 138.426  0.00  0.00    +0.000 C 
ATOM     21  C   UNL     1     103.754 123.527 137.623  0.00  0.00    +0.000 C 
ENDBRANCH  18  20
ENDBRANCH  17  18
ENDBRANCH   6  12
BRANCH   8  22
ATOM     22  O   UNL     1     108.317 127.635 142.854  0.00  0.00    +0.000 OA
ATOM     23  C   UNL     1     108.437 128.419 142.629  0.00  0.00    +0.000 C 
ENDBRANCH   8  22
BRANCH   5  24
ATOM     24  O   UNL     1     106.709 127.298 143.004  0.00  0.00    +0.000 OA
BRANCH  24  26
ATOM     25  O   UNL     1     107.072 126.331 143.991  0.00  0.00    +0.000 OA
ATOM     26  C   UNL     1     106.535 126.885 143.696  0.00  0.00    +0.000 C 
ATOM     27  C   UNL     1     105.826 127.024 144.094  0.00  0.00    +0.000 C 
ENDBRANCH  24  26
ENDBRANCH   5  24
BRANCH  10  28
ATOM     28  O   UNL     1     109.203 126.916 141.662  0.00  0.00    +0.000 OA
BRANCH  28  30
ATOM     29  O   UNL     1     109.944 125.697 141.591  0.00  0.00    +0.000 OA
ATOM     30  C   UNL     1     109.695 126.402 141.243  0.00  0.00    +0.000 C 
ATOM     31  C   UNL     1     109.936 126.594 140.479  0.00  0.00    +0.000 C 
ENDBRANCH  28  30
ENDBRANCH  10  28
TORSDOF 8
ENDMDL
MODEL 6
REMARK VINA RESULT:      -7.4      2.431      2.906
REMARK  Name = 5322009
REMARK  8 active torsions:
REMARK  status: ('A' for Active; 'I' for Inactive)
REMARK    1  A    between atoms: O_2  and  C_12
REMARK    2  A    between atoms: O_2  and  C_25
REMARK    3  A    between atoms: O_3  and  C_15
REMARK    4  A    between atoms: O_4  and  C_17
REMARK    5  A    between atoms: O_4  and  C_27
REMARK    6  A    between atoms: O_6  and  C_24
REMARK    7  A    between atoms: O_6  and  C_30
REMARK    8  A    between atoms: C_13  and  C_19
REMARK                            x       y       z     vdW  Elec       q    Type
REMARK                         _______ _______ _______ _____ _____    ______ ____
ROOT
ATOM      1  O   UNL     1     112.057 127.034 137.986  0.00  0.00    +0.000 OA
ATOM      2  O   UNL     1     114.061 125.516 138.285  0.00  0.00    +0.000 OA
ATOM      3  C   UNL     1     112.772 125.798 137.659  0.00  0.00    +0.000 A 
ATOM      4  C   UNL     1     112.118 126.291 137.560  0.00  0.00    +0.000 A 
ATOM      5  C   UNL     1     112.819 125.087 137.244  0.00  0.00    +0.000 A 
ATOM      6  C   UNL     1     112.686 127.268 138.524  0.00  0.00    +0.000 A 
ATOM      7  C   UNL     1     113.411 126.015 138.192  0.00  0.00    +0.000 A 
ATOM      8  C   UNL     1     112.213 124.868 136.730  0.00  0.00    +0.000 A 
ATOM      9  C   UNL     1     111.511 126.072 137.046  0.00  0.00    +0.000 A 
ATOM     10  C   UNL     1     111.558 125.361 136.631  0.00  0.00    +0.000 A 
ATOM     11  C   UNL     1     113.367 126.755 138.627  0.00  0.00    +0.000 A 
ENDROOT
BRANCH   6  12
ATOM     12  C   UNL     1     112.635 127.981 138.937  0.00  0.00    +0.000 A 
ATOM     13  C   UNL     1     112.905 128.679 138.591  0.00  0.00    +0.000 A 
ATOM     14  C   UNL     1     112.315 127.994 139.697  0.00  0.00    +0.000 A 
ATOM     15  C   UNL     1     112.855 129.391 139.004  0.00  0.00    +0.000 A 
ATOM     16  C   UNL     1     112.264 128.706 140.111  0.00  0.00    +0.000 A 
ATOM     17  C   UNL     1     112.533 129.404 139.765  0.00  0.00    +0.000 A 
BRANCH  17  18
ATOM     18  O   UNL     1     112.483 130.116 140.178  0.00  0.00    +0.000 OA
BRANCH  18  20
ATOM     19  O   UNL     1     113.769 130.703 140.380  0.00  0.00    +0.000 OA
ATOM     20  C   UNL     1     113.092 130.343 140.684  0.00  0.00    +0.000 C 
ATOM     21  C   UNL     1     113.026 130.211 141.496  0.00  0.00    +0.000 C 
ENDBRANCH  18  20
ENDBRANCH  17  18
ENDBRANCH   6  12
BRANCH   8  22
ATOM     22  O   UNL     1     112.259 124.156 136.315  0.00  0.00    +0.000 OA
ATOM     23  C   UNL     1     111.880 123.484 136.604  0.00  0.00    +0.000 C 
ENDBRANCH   8  22
BRANCH   5  24
ATOM     24  O   UNL     1     113.473 124.594 137.344  0.00  0.00    +0.000 OA
BRANCH  24  26
ATOM     25  O   UNL     1     114.167 125.037 136.175  0.00  0.00    +0.000 OA
ATOM     26  C   UNL     1     114.180 124.763 136.954  0.00  0.00    +0.000 C 
ATOM     27  C   UNL     1     114.901 124.659 137.342  0.00  0.00    +0.000 C 
ENDBRANCH  24  26
ENDBRANCH   5  24
BRANCH  10  28
ATOM     28  O   UNL     1     110.951 125.142 136.116  0.00  0.00    +0.000 OA
BRANCH  28  30
ATOM     29  O   UNL     1     109.809 125.994 136.226  0.00  0.00    +0.000 OA
ATOM     30  C   UNL     1     110.456 125.717 135.794  0.00  0.00    +0.000 C 
ATOM     31  C   UNL     1     110.608 126.016 135.041  0.00  0.00    +0.000 C 
ENDBRANCH  28  30
ENDBRANCH  10  28
TORSDOF 8
ENDMDL
MODEL 7
REMARK VINA RESULT:      -7.4      1.908      5.211
REMARK  Name = 5322009
REMARK  8 active torsions:
REMARK  status: ('A' for Active; 'I' for Inactive)
REMARK    1  A    between atoms: O_2  and  C_12
REMARK    2  A    between atoms: O_2  and  C_25
REMARK    3  A    between atoms: O_3  and  C_15
REMARK    4  A    between atoms: O_4  and  C_17
REMARK    5  A    between atoms: O_4  and  C_27
REMARK    6  A    between atoms: O_6  and  C_24
REMARK    7  A    between atoms: O_6  and  C_30
REMARK    8  A    between atoms: C_13  and  C_19
REMARK                            x       y       z     vdW  Elec       q    Type
REMARK                         _______ _______ _______ _____ _____    ______ ____
ROOT
ATOM      1  O   UNL     1     112.586 127.936 137.225  0.00  0.00    +0.000 OA
ATOM      2  O   UNL     1     113.911 129.400 135.639  0.00  0.00    +0.000 OA
ATOM      3  C   UNL     1     113.008 129.266 136.779  0.00  0.00    +0.000 A 
ATOM      4  C   UNL     1     112.575 128.792 137.297  0.00  0.00    +0.000 A 
ATOM      5  C   UNL     1     112.989 130.088 136.859  0.00  0.00    +0.000 A 
ATOM      6  C   UNL     1     113.054 127.569 136.604  0.00  0.00    +0.000 A 
ATOM      7  C   UNL     1     113.481 128.918 136.153  0.00  0.00    +0.000 A 
ATOM      8  C   UNL     1     112.538 130.434 137.456  0.00  0.00    +0.000 A 
ATOM      9  C   UNL     1     112.123 129.139 137.895  0.00  0.00    +0.000 A 
ATOM     10  C   UNL     1     112.105 129.960 137.974  0.00  0.00    +0.000 A 
ATOM     11  C   UNL     1     113.505 128.063 136.065  0.00  0.00    +0.000 A 
ENDROOT
BRANCH   6  12
ATOM     12  C   UNL     1     113.071 126.747 136.527  0.00  0.00    +0.000 A 
ATOM     13  C   UNL     1     113.751 126.327 136.729  0.00  0.00    +0.000 A 
ATOM     14  C   UNL     1     112.405 126.346 136.249  0.00  0.00    +0.000 A 
ATOM     15  C   UNL     1     113.767 125.506 136.652  0.00  0.00    +0.000 A 
ATOM     16  C   UNL     1     112.421 125.525 136.172  0.00  0.00    +0.000 A 
ATOM     17  C   UNL     1     113.101 125.105 136.374  0.00  0.00    +0.000 A 
BRANCH  17  18
ATOM     18  O   UNL     1     113.117 124.284 136.297  0.00  0.00    +0.000 OA
BRANCH  18  20
ATOM     19  O   UNL     1     113.471 123.644 137.524  0.00  0.00    +0.000 OA
ATOM     20  C   UNL     1     112.914 123.806 136.937  0.00  0.00    +0.000 C 
ATOM     21  C   UNL     1     112.154 123.490 136.992  0.00  0.00    +0.000 C 
ENDBRANCH  18  20
ENDBRANCH  17  18
ENDBRANCH   6  12
BRANCH   8  22
ATOM     22  O   UNL     1     112.519 131.255 137.536  0.00  0.00    +0.000 OA
ATOM     23  C   UNL     1     111.894 131.687 137.215  0.00  0.00    +0.000 C 
ENDBRANCH   8  22
BRANCH   5  24
ATOM     24  O   UNL     1     113.422 130.562 136.341  0.00  0.00    +0.000 OA
BRANCH  24  26
ATOM     25  O   UNL     1     114.535 130.689 137.227  0.00  0.00    +0.000 OA
ATOM     26  C   UNL     1     114.230 130.672 136.460  0.00  0.00    +0.000 C 
ATOM     27  C   UNL     1     114.734 130.766 135.814  0.00  0.00    +0.000 C 
ENDBRANCH  24  26
ENDBRANCH   5  24
BRANCH  10  28
ATOM     28  O   UNL     1     111.653 130.306 138.572  0.00  0.00    +0.000 OA
BRANCH  28  30
ATOM     29  O   UNL     1     112.083 129.783 139.830  0.00  0.00    +0.000 OA
ATOM     30  C   UNL     1     111.492 129.886 139.263  0.00  0.00    +0.000 C 
ATOM     31  C   UNL     1     110.741 129.570 139.388  0.00  0.00    +0.000 C 
ENDBRANCH  28  30
ENDBRANCH  10  28
TORSDOF 8
ENDMDL
MODEL 8
REMARK VINA RESULT:      -7.4      2.194      3.451
REMARK  Name = 5322009
REMARK  8 active torsions:
REMARK  status: ('A' for Active; 'I' for Inactive)
REMARK    1  A    between atoms: O_2  and  C_12
REMARK    2  A    between atoms: O_2  and  C_25
REMARK    3  A    between atoms: O_3  and  C_15
REMARK    4  A    between atoms: O_4  and  C_17
REMARK    5  A    between atoms: O_4  and  C_27
REMARK    6  A    between atoms: O_6  and  C_24
REMARK    7  A    between atoms: O_6  and  C_30
REMARK    8  A    between atoms: C_13  and  C_19
REMARK                            x       y       z     vdW  Elec       q    Type
REMARK                         _______ _______ _______ _____ _____    ______ ____
ROOT
ATOM      1  O   UNL     1     113.037 127.171 138.061  0.00  0.00    +0.000 OA
ATOM      2  O   UNL     1     110.630 126.834 137.350  0.00  0.00    +0.000 OA
ATOM      3  C   UNL     1     112.013 126.365 137.393  0.00  0.00    +0.000 A 
ATOM      4  C   UNL     1     112.797 126.472 137.623  0.00  0.00    +0.000 A 
ATOM      5  C   UNL     1     111.795 125.689 136.972  0.00  0.00    +0.000 A 
ATOM      6  C   UNL     1     112.451 127.767 138.262  0.00  0.00    +0.000 A 
ATOM      7  C   UNL     1     111.413 126.949 137.584  0.00  0.00    +0.000 A 
ATOM      8  C   UNL     1     112.362 125.121 136.783  0.00  0.00    +0.000 A 
ATOM      9  C   UNL     1     113.365 125.903 137.434  0.00  0.00    +0.000 A 
ATOM     10  C   UNL     1     113.147 125.228 137.013  0.00  0.00    +0.000 A 
ATOM     11  C   UNL     1     111.633 127.655 138.022  0.00  0.00    +0.000 A 
ENDROOT
BRANCH   6  12
ATOM     12  C   UNL     1     112.672 128.442 138.683  0.00  0.00    +0.000 A 
ATOM     13  C   UNL     1     112.732 128.415 139.506  0.00  0.00    +0.000 A 
ATOM     14  C   UNL     1     112.833 129.144 138.281  0.00  0.00    +0.000 A 
ATOM     15  C   UNL     1     112.953 129.089 139.925  0.00  0.00    +0.000 A 
ATOM     16  C   UNL     1     113.055 129.819 138.700  0.00  0.00    +0.000 A 
ATOM     17  C   UNL     1     113.115 129.791 139.523  0.00  0.00    +0.000 A 
BRANCH  17  18
ATOM     18  O   UNL     1     113.336 130.465 139.943  0.00  0.00    +0.000 OA
BRANCH  18  20
ATOM     19  O   UNL     1     114.591 130.973 139.485  0.00  0.00    +0.000 OA
ATOM     20  C   UNL     1     114.134 130.624 140.077  0.00  0.00    +0.000 C 
ATOM     21  C   UNL     1     114.476 130.435 140.804  0.00  0.00    +0.000 C 
ENDBRANCH  18  20
ENDBRANCH  17  18
ENDBRANCH   6  12
BRANCH   8  22
ATOM     22  O   UNL     1     112.145 124.445 136.362  0.00  0.00    +0.000 OA
ATOM     23  C   UNL     1     112.005 123.737 136.761  0.00  0.00    +0.000 C 
ENDBRANCH   8  22
BRANCH   5  24
ATOM     24  O   UNL     1     111.011 125.582 136.742  0.00  0.00    +0.000 OA
BRANCH  24  26
ATOM     25  O   UNL     1     111.227 126.079 135.420  0.00  0.00    +0.000 OA
ATOM     26  C   UNL     1     110.725 125.953 136.063  0.00  0.00    +0.000 C 
ATOM     27  C   UNL     1     109.939 126.200 136.027  0.00  0.00    +0.000 C 
ENDBRANCH  24  26
ENDBRANCH   5  24
BRANCH  10  28
ATOM     28  O   UNL     1     113.714 124.659 136.823  0.00  0.00    +0.000 OA
BRANCH  28  30
ATOM     29  O   UNL     1     114.908 124.694 137.608  0.00  0.00    +0.000 OA
ATOM     30  C   UNL     1     114.517 124.837 136.895  0.00  0.00    +0.000 C 
ATOM     31  C   UNL     1     114.927 125.157 136.256  0.00  0.00    +0.000 C 
ENDBRANCH  28  30
ENDBRANCH  10  28
TORSDOF 8
ENDMDL
MODEL 9
REMARK VINA RESULT:      -7.4      1.727      2.587
REMARK  Name = 5322009
REMARK  8 active torsions:
REMARK  status: ('A' for Active; 'I' for Inactive)
REMARK    1  A    between atoms: O_2  and  C_12
REMARK    2  A    between atoms: O_2  and  C_25
REMARK    3  A    between atoms: O_3  and  C_15
REMARK    4  A    between atoms: O_4  and  C_17
REMARK    5  A    between atoms: O_4  and  C_27
REMARK    6  A    between atoms: O_6  and  C_24
REMARK    7  A    between atoms: O_6  and  C_30
REMARK    8  A    between atoms: C_13  and  C_19
REMARK                            x       y       z     vdW  Elec       q    Type
REMARK                         _______ _______ _______ _____ _____    ______ ____
ROOT
ATOM      1  O   UNL     1     112.754 127.791 137.308  0.00  0.00    +0.000 OA
ATOM      2  O   UNL     1     111.551 125.974 136.020  0.00  0.00    +0.000 OA
ATOM      3  C   UNL     1     111.939 126.574 137.293  0.00  0.00    +0.000 A 
ATOM      4  C   UNL     1     112.330 127.165 137.715  0.00  0.00    +0.000 A 
ATOM      5  C   UNL     1     111.536 125.978 137.696  0.00  0.00    +0.000 A 
ATOM      6  C   UNL     1     112.771 127.803 136.449  0.00  0.00    +0.000 A 
ATOM      7  C   UNL     1     111.945 126.569 136.434  0.00  0.00    +0.000 A 
ATOM      8  C   UNL     1     111.523 125.972 138.520  0.00  0.00    +0.000 A 
ATOM      9  C   UNL     1     112.318 127.160 138.541  0.00  0.00    +0.000 A 
ATOM     10  C   UNL     1     111.914 126.563 138.943  0.00  0.00    +0.000 A 
ATOM     11  C   UNL     1     112.364 127.187 136.009  0.00  0.00    +0.000 A 
ENDROOT
BRANCH   6  12
ATOM     12  C   UNL     1     113.175 128.401 136.049  0.00  0.00    +0.000 A 
ATOM     13  C   UNL     1     113.951 128.278 135.797  0.00  0.00    +0.000 A 
ATOM     14  C   UNL     1     112.803 129.123 135.902  0.00  0.00    +0.000 A 
ATOM     15  C   UNL     1     114.355 128.876 135.399  0.00  0.00    +0.000 A 
ATOM     16  C   UNL     1     113.207 129.721 135.503  0.00  0.00    +0.000 A 
ATOM     17  C   UNL     1     113.983 129.598 135.251  0.00  0.00    +0.000 A 
BRANCH  17  18
ATOM     18  O   UNL     1     114.387 130.196 134.852  0.00  0.00    +0.000 OA
BRANCH  18  20
ATOM     19  O   UNL     1     114.587 131.251 135.795  0.00  0.00    +0.000 OA
ATOM     20  C   UNL     1     114.894 130.698 135.265  0.00  0.00    +0.000 C 
ATOM     21  C   UNL     1     115.710 130.647 135.150  0.00  0.00    +0.000 C 
ENDBRANCH  18  20
ENDBRANCH  17  18
ENDBRANCH   6  12
BRANCH   8  22
ATOM     22  O   UNL     1     111.120 125.375 138.924  0.00  0.00    +0.000 OA
ATOM     23  C   UNL     1     110.360 125.513 139.212  0.00  0.00    +0.000 C 
ENDBRANCH   8  22
BRANCH   5  24
ATOM     24  O   UNL     1     111.145 125.387 137.274  0.00  0.00    +0.000 OA
BRANCH  24  26
ATOM     25  O   UNL     1     112.159 124.388 137.398  0.00  0.00    +0.000 OA
ATOM     26  C   UNL     1     111.571 124.758 136.952  0.00  0.00    +0.000 C 
ATOM     27  C   UNL     1     111.410 124.499 136.185  0.00  0.00    +0.000 C 
ENDBRANCH  24  26
ENDBRANCH   5  24
BRANCH  10  28
ATOM     28  O   UNL     1     111.902 126.557 139.768  0.00  0.00    +0.000 OA
BRANCH  28  30
ATOM     29  O   UNL     1     113.242 126.549 140.266  0.00  0.00    +0.000 OA
ATOM     30  C   UNL     1     112.509 126.922 140.193  0.00  0.00    +0.000 C 
ATOM     31  C   UNL     1     112.383 127.657 140.543  0.00  0.00    +0.000 C 
ENDBRANCH  28  30
ENDBRANCH  10  28
TORSDOF 8
ENDMDL
MODEL 10
REMARK VINA RESULT:      -7.3      2.720      4.025
REMARK  Name = 5322009
REMARK  8 active torsions:
REMARK  status: ('A' for Active; 'I' for Inactive)
REMARK    1  A    between atoms: O_2  and  C_12
REMARK    2  A    between atoms: O_2  and  C_25
REMARK    3  A    between atoms: O_3  and  C_15
REMARK    4  A    between atoms: O_4  and  C_17
REMARK    5  A    between atoms: O_4  and  C_27
REMARK    6  A    between atoms: O_6  and  C_24
REMARK    7  A    between atoms: O_6  and  C_30
REMARK    8  A    between atoms: C_13  and  C_19
REMARK                            x       y       z     vdW  Elec       q    Type
REMARK                         _______ _______ _______ _____ _____    ______ ____
ROOT
ATOM      1  O   UNL     1     111.317 127.267 137.005  0.00  0.00    +0.000 OA
ATOM      2  O   UNL     1     111.505 125.088 135.731  0.00  0.00    +0.000 OA
ATOM      3  C   UNL     1     111.963 125.968 136.802  0.00  0.00    +0.000 A 
ATOM      4  C   UNL     1     111.903 126.678 137.219  0.00  0.00    +0.000 A 
ATOM      5  C   UNL     1     112.531 125.410 137.018  0.00  0.00    +0.000 A 
ATOM      6  C   UNL     1     110.784 127.116 136.348  0.00  0.00    +0.000 A 
ATOM      7  C   UNL     1     111.439 125.800 136.143  0.00  0.00    +0.000 A 
ATOM      8  C   UNL     1     113.039 125.560 137.649  0.00  0.00    +0.000 A 
ATOM      9  C   UNL     1     112.412 126.829 137.851  0.00  0.00    +0.000 A 
ATOM     10  C   UNL     1     112.980 126.270 138.066  0.00  0.00    +0.000 A 
ATOM     11  C   UNL     1     110.845 126.378 135.914  0.00  0.00    +0.000 A 
ENDROOT
BRANCH   6  12
ATOM     12  C   UNL     1     110.217 127.678 136.136  0.00  0.00    +0.000 A 
ATOM     13  C   UNL     1     110.413 128.287 135.616  0.00  0.00    +0.000 A 
ATOM     14  C   UNL     1     109.453 127.628 136.444  0.00  0.00    +0.000 A 
ATOM     15  C   UNL     1     109.847 128.847 135.404  0.00  0.00    +0.000 A 
ATOM     16  C   UNL     1     108.886 128.189 136.232  0.00  0.00    +0.000 A 
ATOM     17  C   UNL     1     109.082 128.799 135.712  0.00  0.00    +0.000 A 
BRANCH  17  18
ATOM     18  O   UNL     1     108.516 129.359 135.501  0.00  0.00    +0.000 OA
BRANCH  18  20
ATOM     19  O   UNL     1     108.160 130.123 136.654  0.00  0.00    +0.000 OA
ATOM     20  C   UNL     1     108.483 130.082 135.896  0.00  0.00    +0.000 C 
ATOM     21  C   UNL     1     108.772 130.764 135.534  0.00  0.00    +0.000 C 
ENDBRANCH  18  20
ENDBRANCH  17  18
ENDBRANCH   6  12
BRANCH   8  22
ATOM     22  O   UNL     1     113.607 125.002 137.864  0.00  0.00    +0.000 OA
ATOM     23  C   UNL     1     114.384 125.081 137.601  0.00  0.00    +0.000 C 
ENDBRANCH   8  22
BRANCH   5  24
ATOM     24  O   UNL     1     112.590 124.701 136.601  0.00  0.00    +0.000 OA
BRANCH  24  26
ATOM     25  O   UNL     1     111.763 123.993 137.526  0.00  0.00    +0.000 OA
ATOM     26  C   UNL     1     112.072 124.080 136.766  0.00  0.00    +0.000 C 
ATOM     27  C   UNL     1     111.863 123.547 136.172  0.00  0.00    +0.000 C 
ENDBRANCH  24  26
ENDBRANCH   5  24
BRANCH  10  28
ATOM     28  O   UNL     1     113.489 126.421 138.698  0.00  0.00    +0.000 OA
BRANCH  28  30
ATOM     29  O   UNL     1     112.702 126.510 139.887  0.00  0.00    +0.000 OA
ATOM     30  C   UNL     1     113.223 126.854 139.348  0.00  0.00    +0.000 C 
ATOM     31  C   UNL     1     113.477 127.631 139.457  0.00  0.00    +0.000 C 
ENDBRANCH  28  30
ENDBRANCH  10  28
TORSDOF 8
ENDMDL
