MODEL 1
REMARK VINA RESULT:      -9.8      0.000      0.000
REMARK  Name = 44259791
REMARK  9 active torsions:
REMARK  status: ('A' for Active; 'I' for Inactive)
REMARK    1  A    between atoms: O_3  and  C_25
REMARK    2  A    between atoms: O_3  and  C_29
REMARK    3  A    between atoms: O_6  and  C_28
REMARK    4  A    between atoms: O_6  and  C_31
REMARK    5  A    between atoms: O_15  and  C_41
REMARK    6  A    between atoms: O_17  and  C_43
REMARK    7  A    between atoms: C_19  and  C_29
REMARK    8  A    between atoms: C_27  and  C_30
REMARK    9  A    between atoms: C_32  and  C_36
REMARK                            x       y       z     vdW  Elec       q    Type
REMARK                         _______ _______ _______ _____ _____    ______ ____
ROOT
ATOM      1  O   UNL     1     113.345 127.171 136.111  0.00  0.00    +0.000 OA
ATOM      2  O   UNL     1     113.184 128.407 138.249  0.00  0.00    +0.000 OA
ATOM      3  O   UNL     1     113.631 129.622 137.614  0.00  0.00    +0.000 OA
ATOM      4  O   UNL     1     114.252 129.586 134.761  0.00  0.00    +0.000 OA
ATOM      5  C   UNL     1     113.042 127.194 137.508  0.00  0.00    +0.000 A 
ATOM      6  C   UNL     1     113.096 126.782 136.795  0.00  0.00    +0.000 A 
ATOM      7  C   UNL     1     113.238 127.995 137.537  0.00  0.00    +0.000 A 
ATOM      8  C   UNL     1     113.487 128.384 136.854  0.00  0.00    +0.000 A 
ATOM      9  C   UNL     1     113.541 127.972 136.141  0.00  0.00    +0.000 A 
ATOM     10  C   UNL     1     113.688 129.219 136.897  0.00  0.00    +0.000 A 
ATOM     11  C   UNL     1     113.799 128.366 135.422  0.00  0.00    +0.000 A 
ATOM     12  C   UNL     1     113.948 129.629 136.189  0.00  0.00    +0.000 A 
ATOM     13  C   UNL     1     114.004 129.200 135.446  0.00  0.00    +0.000 A 
ENDROOT
BRANCH   6  15
ATOM     14  O   UNL     1     112.313 123.578 136.674  0.00  0.00    +0.000 OA
ATOM     15  C   UNL     1     112.901 125.981 136.765  0.00  0.00    +0.000 A 
ATOM     16  C   UNL     1     112.179 125.745 136.443  0.00  0.00    +0.000 A 
ATOM     17  C   UNL     1     113.427 125.416 137.058  0.00  0.00    +0.000 A 
ATOM     18  C   UNL     1     111.983 124.944 136.413  0.00  0.00    +0.000 A 
ATOM     19  C   UNL     1     113.230 124.616 137.027  0.00  0.00    +0.000 A 
ATOM     20  C   UNL     1     112.509 124.379 136.705  0.00  0.00    +0.000 A 
BRANCH  18  21
ATOM     21  O   UNL     1     111.261 124.707 136.090  0.00  0.00    +0.000 OA
ATOM     22  C   UNL     1     110.899 125.167 135.509  0.00  0.00    +0.000 C 
ENDBRANCH  18  21
ENDBRANCH   6  15
BRANCH  12  23
ATOM     23  O   UNL     1     114.142 130.430 136.221  0.00  0.00    +0.000 OA
ATOM     24  C   UNL     1     114.933 130.663 136.224  0.00  0.00    +0.000 C 
ENDBRANCH  12  23
BRANCH   5  25
ATOM     25  O   UNL     1     112.794 126.805 138.191  0.00  0.00    +0.000 OA
BRANCH  25  34
ATOM     26  O   UNL     1     111.533 127.478 138.199  0.00  0.00    +0.000 OA
ATOM     27  O   UNL     1     110.138 127.882 139.827  0.00  0.00    +0.000 OA
ATOM     28  O   UNL     1     111.331 127.073 140.631  0.00  0.00    +0.000 OA
ATOM     29  O   UNL     1     112.659 126.535 139.813  0.00  0.00    +0.000 OA
ATOM     30  C   UNL     1     110.869 127.747 138.608  0.00  0.00    +0.000 C 
ATOM     31  C   UNL     1     110.802 127.612 139.418  0.00  0.00    +0.000 C 
ATOM     32  C   UNL     1     111.398 127.208 139.821  0.00  0.00    +0.000 C 
ATOM     33  C   UNL     1     112.062 126.939 139.412  0.00  0.00    +0.000 C 
ATOM     34  C   UNL     1     112.130 127.074 138.600  0.00  0.00    +0.000 C 
BRANCH  30  35
ATOM     35  C   UNL     1     110.273 128.152 138.205  0.00  0.00    +0.000 C 
BRANCH  35  36
ATOM     36  O   UNL     1     110.044 127.905 137.452  0.00  0.00    +0.000 OA
BRANCH  36  43
ATOM     37  O   UNL     1     109.972 129.193 136.837  0.00  0.00    +0.000 OA
ATOM     38  O   UNL     1     108.687 127.440 136.637  0.00  0.00    +0.000 OA
ATOM     39  O   UNL     1     107.936 128.495 135.615  0.00  0.00    +0.000 OA
ATOM     40  O   UNL     1     108.543 130.015 135.408  0.00  0.00    +0.000 OA
ATOM     41  C   UNL     1     108.990 128.199 136.534  0.00  0.00    +0.000 C 
ATOM     42  C   UNL     1     108.615 128.728 136.023  0.00  0.00    +0.000 C 
ATOM     43  C   UNL     1     109.668 128.432 136.941  0.00  0.00    +0.000 C 
ATOM     44  C   UNL     1     108.918 129.487 135.919  0.00  0.00    +0.000 C 
ATOM     45  C   UNL     1     109.596 129.720 136.326  0.00  0.00    +0.000 C 
BRANCH  45  47
ATOM     46  O   UNL     1     110.701 130.585 136.055  0.00  0.00    +0.000 OA
ATOM     47  C   UNL     1     109.900 130.480 136.223  0.00  0.00    +0.000 C 
ENDBRANCH  45  47
ENDBRANCH  36  43
ENDBRANCH  35  36
ENDBRANCH  30  35
ENDBRANCH  25  34
ENDBRANCH   5  25
TORSDOF 9
ENDMDL
MODEL 2
REMARK VINA RESULT:      -9.5      2.660      5.093
REMARK  Name = 44259791
REMARK  9 active torsions:
REMARK  status: ('A' for Active; 'I' for Inactive)
REMARK    1  A    between atoms: O_3  and  C_25
REMARK    2  A    between atoms: O_3  and  C_29
REMARK    3  A    between atoms: O_6  and  C_28
REMARK    4  A    between atoms: O_6  and  C_31
REMARK    5  A    between atoms: O_15  and  C_41
REMARK    6  A    between atoms: O_17  and  C_43
REMARK    7  A    between atoms: C_19  and  C_29
REMARK    8  A    between atoms: C_27  and  C_30
REMARK    9  A    between atoms: C_32  and  C_36
REMARK                            x       y       z     vdW  Elec       q    Type
REMARK                         _______ _______ _______ _____ _____    ______ ____
ROOT
ATOM      1  O   UNL     1     113.384 128.478 140.112  0.00  0.00    +0.000 OA
ATOM      2  O   UNL     1     113.164 128.796 137.667  0.00  0.00    +0.000 OA
ATOM      3  O   UNL     1     112.549 127.499 137.524  0.00  0.00    +0.000 OA
ATOM      4  O   UNL     1     112.149 125.849 139.901  0.00  0.00    +0.000 OA
ATOM      5  C   UNL     1     113.578 129.282 138.945  0.00  0.00    +0.000 A 
ATOM      6  C   UNL     1     113.651 129.176 139.760  0.00  0.00    +0.000 A 
ATOM      7  C   UNL     1     113.237 128.690 138.482  0.00  0.00    +0.000 A 
ATOM      8  C   UNL     1     112.971 127.993 138.832  0.00  0.00    +0.000 A 
ATOM      9  C   UNL     1     113.044 127.887 139.647  0.00  0.00    +0.000 A 
ATOM     10  C   UNL     1     112.618 127.384 138.338  0.00  0.00    +0.000 A 
ATOM     11  C   UNL     1     112.770 127.165 140.024  0.00  0.00    +0.000 A 
ATOM     12  C   UNL     1     112.338 126.656 138.698  0.00  0.00    +0.000 A 
ATOM     13  C   UNL     1     112.415 126.546 139.546  0.00  0.00    +0.000 A 
ENDROOT
BRANCH   6  15
ATOM     14  O   UNL     1     115.009 131.540 141.619  0.00  0.00    +0.000 OA
ATOM     15  C   UNL     1     113.991 129.766 140.225  0.00  0.00    +0.000 A 
ATOM     16  C   UNL     1     113.521 130.205 140.743  0.00  0.00    +0.000 A 
ATOM     17  C   UNL     1     114.800 129.919 140.171  0.00  0.00    +0.000 A 
ATOM     18  C   UNL     1     113.861 130.796 141.207  0.00  0.00    +0.000 A 
ATOM     19  C   UNL     1     115.139 130.511 140.637  0.00  0.00    +0.000 A 
ATOM     20  C   UNL     1     114.670 130.949 141.154  0.00  0.00    +0.000 A 
BRANCH  18  21
ATOM     21  O   UNL     1     113.391 131.234 141.726  0.00  0.00    +0.000 OA
ATOM     22  C   UNL     1     112.759 130.874 142.115  0.00  0.00    +0.000 C 
ENDBRANCH  18  21
ENDBRANCH   6  15
BRANCH  12  23
ATOM     23  O   UNL     1     111.999 126.066 138.232  0.00  0.00    +0.000 OA
ATOM     24  C   UNL     1     112.451 125.422 137.986  0.00  0.00    +0.000 C 
ENDBRANCH  12  23
BRANCH   5  25
ATOM     25  O   UNL     1     113.844 129.979 138.595  0.00  0.00    +0.000 OA
BRANCH  25  34
ATOM     26  O   UNL     1     112.527 130.497 138.399  0.00  0.00    +0.000 OA
ATOM     27  O   UNL     1     111.744 131.886 136.910  0.00  0.00    +0.000 OA
ATOM     28  O   UNL     1     113.329 131.804 136.457  0.00  0.00    +0.000 OA
ATOM     29  O   UNL     1     114.379 130.850 137.300  0.00  0.00    +0.000 OA
ATOM     30  C   UNL     1     112.002 130.974 137.978  0.00  0.00    +0.000 C 
ATOM     31  C   UNL     1     112.269 131.409 137.331  0.00  0.00    +0.000 C 
ATOM     32  C   UNL     1     113.062 131.369 137.104  0.00  0.00    +0.000 C 
ATOM     33  C   UNL     1     113.587 130.892 137.526  0.00  0.00    +0.000 C 
ATOM     34  C   UNL     1     113.319 130.455 138.174  0.00  0.00    +0.000 C 
BRANCH  30  35
ATOM     35  C   UNL     1     111.210 131.014 138.205  0.00  0.00    +0.000 C 
BRANCH  35  36
ATOM     36  O   UNL     1     111.013 131.131 138.998  0.00  0.00    +0.000 OA
BRANCH  36  43
ATOM     37  O   UNL     1     110.132 130.013 139.127  0.00  0.00    +0.000 OA
ATOM     38  O   UNL     1     110.026 132.023 139.972  0.00  0.00    +0.000 OA
ATOM     39  O   UNL     1     108.650 131.352 140.589  0.00  0.00    +0.000 OA
ATOM     40  O   UNL     1     108.263 129.789 140.232  0.00  0.00    +0.000 OA
ATOM     41  C   UNL     1     109.832 131.242 139.794  0.00  0.00    +0.000 C 
ATOM     42  C   UNL     1     109.144 130.906 140.102  0.00  0.00    +0.000 C 
ATOM     43  C   UNL     1     110.326 130.796 139.306  0.00  0.00    +0.000 C 
ATOM     44  C   UNL     1     108.950 130.125 139.923  0.00  0.00    +0.000 C 
ATOM     45  C   UNL     1     109.444 129.678 139.436  0.00  0.00    +0.000 C 
BRANCH  45  47
ATOM     46  O   UNL     1     109.364 128.608 138.493  0.00  0.00    +0.000 OA
ATOM     47  C   UNL     1     109.251 128.897 139.257  0.00  0.00    +0.000 C 
ENDBRANCH  45  47
ENDBRANCH  36  43
ENDBRANCH  35  36
ENDBRANCH  30  35
ENDBRANCH  25  34
ENDBRANCH   5  25
TORSDOF 9
ENDMDL
MODEL 3
REMARK VINA RESULT:      -9.4      1.710      4.258
REMARK  Name = 44259791
REMARK  9 active torsions:
REMARK  status: ('A' for Active; 'I' for Inactive)
REMARK    1  A    between atoms: O_3  and  C_25
REMARK    2  A    between atoms: O_3  and  C_29
REMARK    3  A    between atoms: O_6  and  C_28
REMARK    4  A    between atoms: O_6  and  C_31
REMARK    5  A    between atoms: O_15  and  C_41
REMARK    6  A    between atoms: O_17  and  C_43
REMARK    7  A    between atoms: C_19  and  C_29
REMARK    8  A    between atoms: C_27  and  C_30
REMARK    9  A    between atoms: C_32  and  C_36
REMARK                            x       y       z     vdW  Elec       q    Type
REMARK                         _______ _______ _______ _____ _____    ______ ____
ROOT
ATOM      1  O   UNL     1     111.502 126.736 136.766  0.00  0.00    +0.000 OA
ATOM      2  O   UNL     1     112.020 128.676 135.320  0.00  0.00    +0.000 OA
ATOM      3  O   UNL     1     110.617 128.938 135.118  0.00  0.00    +0.000 OA
ATOM      4  O   UNL     1     108.650 127.203 136.404  0.00  0.00    +0.000 OA
ATOM      5  C   UNL     1     112.460 127.588 136.134  0.00  0.00    +0.000 A 
ATOM      6  C   UNL     1     112.287 126.941 136.616  0.00  0.00    +0.000 A 
ATOM      7  C   UNL     1     111.847 128.030 135.802  0.00  0.00    +0.000 A 
ATOM      8  C   UNL     1     111.063 127.825 135.951  0.00  0.00    +0.000 A 
ATOM      9  C   UNL     1     110.890 127.178 136.433  0.00  0.00    +0.000 A 
ATOM     10  C   UNL     1     110.434 128.293 135.598  0.00  0.00    +0.000 A 
ATOM     11  C   UNL     1     110.076 126.955 136.596  0.00  0.00    +0.000 A 
ATOM     12  C   UNL     1     109.615 128.084 135.750  0.00  0.00    +0.000 A 
ATOM     13  C   UNL     1     109.435 127.411 136.252  0.00  0.00    +0.000 A 
ENDROOT
BRANCH   6  15
ATOM     14  O   UNL     1     114.734 125.173 137.950  0.00  0.00    +0.000 OA
ATOM     15  C   UNL     1     112.899 126.499 136.949  0.00  0.00    +0.000 A 
ATOM     16  C   UNL     1     113.067 126.570 137.754  0.00  0.00    +0.000 A 
ATOM     17  C   UNL     1     113.342 125.987 136.478  0.00  0.00    +0.000 A 
ATOM     18  C   UNL     1     113.679 126.127 138.087  0.00  0.00    +0.000 A 
ATOM     19  C   UNL     1     113.954 125.545 136.812  0.00  0.00    +0.000 A 
ATOM     20  C   UNL     1     114.122 125.615 137.616  0.00  0.00    +0.000 A 
BRANCH  18  21
ATOM     21  O   UNL     1     113.848 126.198 138.892  0.00  0.00    +0.000 OA
ATOM     22  C   UNL     1     113.258 126.436 139.418  0.00  0.00    +0.000 C 
ENDBRANCH  18  21
ENDBRANCH   6  15
BRANCH  12  23
ATOM     23  O   UNL     1     109.004 128.528 135.416  0.00  0.00    +0.000 OA
ATOM     24  C   UNL     1     108.625 129.110 135.861  0.00  0.00    +0.000 C 
ENDBRANCH  12  23
BRANCH   5  25
ATOM     25  O   UNL     1     113.245 127.793 135.985  0.00  0.00    +0.000 OA
BRANCH  25  34
ATOM     26  O   UNL     1     113.220 128.939 136.838  0.00  0.00    +0.000 OA
ATOM     27  O   UNL     1     114.335 130.813 136.746  0.00  0.00    +0.000 OA
ATOM     28  O   UNL     1     114.930 130.031 135.420  0.00  0.00    +0.000 OA
ATOM     29  O   UNL     1     114.385 128.521 135.040  0.00  0.00    +0.000 OA
ATOM     30  C   UNL     1     113.493 129.694 137.028  0.00  0.00    +0.000 C 
ATOM     31  C   UNL     1     114.062 130.058 136.556  0.00  0.00    +0.000 C 
ATOM     32  C   UNL     1     114.360 129.667 135.893  0.00  0.00    +0.000 C 
ATOM     33  C   UNL     1     114.088 128.912 135.702  0.00  0.00    +0.000 C 
ATOM     34  C   UNL     1     113.517 128.548 136.175  0.00  0.00    +0.000 C 
BRANCH  30  35
ATOM     35  C   UNL     1     113.194 130.085 137.691  0.00  0.00    +0.000 C 
BRANCH  35  36
ATOM     36  O   UNL     1     113.245 129.732 138.434  0.00  0.00    +0.000 OA
BRANCH  36  43
ATOM     37  O   UNL     1     111.907 129.980 138.872  0.00  0.00    +0.000 OA
ATOM     38  O   UNL     1     113.806 130.095 139.943  0.00  0.00    +0.000 OA
ATOM     39  O   UNL     1     112.749 130.526 141.135  0.00  0.00    +0.000 OA
ATOM     40  O   UNL     1     111.132 130.593 140.818  0.00  0.00    +0.000 OA
ATOM     41  C   UNL     1     112.998 130.129 139.785  0.00  0.00    +0.000 C 
ATOM     42  C   UNL     1     112.469 130.344 140.380  0.00  0.00    +0.000 C 
ATOM     43  C   UNL     1     112.717 129.947 139.031  0.00  0.00    +0.000 C 
ATOM     44  C   UNL     1     111.660 130.378 140.222  0.00  0.00    +0.000 C 
ATOM     45  C   UNL     1     111.380 130.196 139.468  0.00  0.00    +0.000 C 
BRANCH  45  47
ATOM     46  O   UNL     1     110.199 129.600 138.927  0.00  0.00    +0.000 OA
ATOM     47  C   UNL     1     110.571 130.229 139.309  0.00  0.00    +0.000 C 
ENDBRANCH  45  47
ENDBRANCH  36  43
ENDBRANCH  35  36
ENDBRANCH  30  35
ENDBRANCH  25  34
ENDBRANCH   5  25
TORSDOF 9
ENDMDL
MODEL 4
REMARK VINA RESULT:      -9.4      1.472      4.492
REMARK  Name = 44259791
REMARK  9 active torsions:
REMARK  status: ('A' for Active; 'I' for Inactive)
REMARK    1  A    between atoms: O_3  and  C_25
REMARK    2  A    between atoms: O_3  and  C_29
REMARK    3  A    between atoms: O_6  and  C_28
REMARK    4  A    between atoms: O_6  and  C_31
REMARK    5  A    between atoms: O_15  and  C_41
REMARK    6  A    between atoms: O_17  and  C_43
REMARK    7  A    between atoms: C_19  and  C_29
REMARK    8  A    between atoms: C_27  and  C_30
REMARK    9  A    between atoms: C_32  and  C_36
REMARK                            x       y       z     vdW  Elec       q    Type
REMARK                         _______ _______ _______ _____ _____    ______ ____
ROOT
ATOM      1  O   UNL     1     113.368 126.640 139.251  0.00  0.00    +0.000 OA
ATOM      2  O   UNL     1     111.369 126.497 137.799  0.00  0.00    +0.000 OA
ATOM      3  O   UNL     1     112.051 125.598 136.900  0.00  0.00    +0.000 OA
ATOM      4  O   UNL     1     114.808 124.830 137.481  0.00  0.00    +0.000 OA
ATOM      5  C   UNL     1     112.019 127.013 138.962  0.00  0.00    +0.000 A 
ATOM      6  C   UNL     1     112.685 127.060 139.446  0.00  0.00    +0.000 A 
ATOM      7  C   UNL     1     112.035 126.544 138.283  0.00  0.00    +0.000 A 
ATOM      8  C   UNL     1     112.717 126.124 138.088  0.00  0.00    +0.000 A 
ATOM      9  C   UNL     1     113.384 126.172 138.572  0.00  0.00    +0.000 A 
ATOM     10  C   UNL     1     112.722 125.640 137.378  0.00  0.00    +0.000 A 
ATOM     11  C   UNL     1     114.101 125.738 138.379  0.00  0.00    +0.000 A 
ATOM     12  C   UNL     1     113.430 125.200 137.169  0.00  0.00    +0.000 A 
ATOM     13  C   UNL     1     114.124 125.250 137.673  0.00  0.00    +0.000 A 
ENDROOT
BRANCH   6  15
ATOM     14  O   UNL     1     112.625 128.933 142.163  0.00  0.00    +0.000 OA
ATOM     15  C   UNL     1     112.670 127.528 140.126  0.00  0.00    +0.000 A 
ATOM     16  C   UNL     1     113.070 128.250 140.138  0.00  0.00    +0.000 A 
ATOM     17  C   UNL     1     112.254 127.275 140.792  0.00  0.00    +0.000 A 
ATOM     18  C   UNL     1     113.055 128.718 140.817  0.00  0.00    +0.000 A 
ATOM     19  C   UNL     1     112.240 127.744 141.471  0.00  0.00    +0.000 A 
ATOM     20  C   UNL     1     112.639 128.465 141.484  0.00  0.00    +0.000 A 
BRANCH  18  21
ATOM     21  O   UNL     1     113.455 129.440 140.830  0.00  0.00    +0.000 OA
ATOM     22  C   UNL     1     114.180 129.516 140.444  0.00  0.00    +0.000 C 
ENDBRANCH  18  21
ENDBRANCH   6  15
BRANCH  12  23
ATOM     23  O   UNL     1     113.443 124.733 136.489  0.00  0.00    +0.000 OA
ATOM     24  C   UNL     1     113.223 123.939 136.529  0.00  0.00    +0.000 C 
ENDBRANCH  12  23
BRANCH   5  25
ATOM     25  O   UNL     1     111.337 127.433 139.158  0.00  0.00    +0.000 OA
BRANCH  25  34
ATOM     26  O   UNL     1     111.526 128.403 138.126  0.00  0.00    +0.000 OA
ATOM     27  O   UNL     1     110.088 129.629 137.034  0.00  0.00    +0.000 OA
ATOM     28  O   UNL     1     109.083 128.787 138.037  0.00  0.00    +0.000 OA
ATOM     29  O   UNL     1     109.708 127.689 139.098  0.00  0.00    +0.000 OA
ATOM     30  C   UNL     1     111.214 128.952 137.595  0.00  0.00    +0.000 C 
ATOM     31  C   UNL     1     110.400 129.080 137.565  0.00  0.00    +0.000 C 
ATOM     32  C   UNL     1     109.897 128.659 138.066  0.00  0.00    +0.000 C 
ATOM     33  C   UNL     1     110.209 128.110 138.597  0.00  0.00    +0.000 C 
ATOM     34  C   UNL     1     111.025 127.982 138.627  0.00  0.00    +0.000 C 
BRANCH  30  35
ATOM     35  C   UNL     1     111.717 129.373 137.094  0.00  0.00    +0.000 C 
BRANCH  35  36
ATOM     36  O   UNL     1     112.387 129.744 137.400  0.00  0.00    +0.000 OA
BRANCH  36  43
ATOM     37  O   UNL     1     113.334 129.349 136.406  0.00  0.00    +0.000 OA
ATOM     38  O   UNL     1     113.027 131.265 137.405  0.00  0.00    +0.000 OA
ATOM     39  O   UNL     1     114.294 131.630 136.414  0.00  0.00    +0.000 OA
ATOM     40  O   UNL     1     114.921 130.475 135.418  0.00  0.00    +0.000 OA
ATOM     41  C   UNL     1     113.341 130.688 136.907  0.00  0.00    +0.000 C 
ATOM     42  C   UNL     1     113.974 130.870 136.411  0.00  0.00    +0.000 C 
ATOM     43  C   UNL     1     113.020 129.928 136.905  0.00  0.00    +0.000 C 
ATOM     44  C   UNL     1     114.288 130.292 135.913  0.00  0.00    +0.000 C 
ATOM     45  C   UNL     1     113.968 129.532 135.911  0.00  0.00    +0.000 C 
BRANCH  45  47
ATOM     46  O   UNL     1     114.377 128.181 135.686  0.00  0.00    +0.000 OA
ATOM     47  C   UNL     1     114.281 128.954 135.413  0.00  0.00    +0.000 C 
ENDBRANCH  45  47
ENDBRANCH  36  43
ENDBRANCH  35  36
ENDBRANCH  30  35
ENDBRANCH  25  34
ENDBRANCH   5  25
TORSDOF 9
ENDMDL
MODEL 5
REMARK VINA RESULT:      -9.4      1.553      4.090
REMARK  Name = 44259791
REMARK  9 active torsions:
REMARK  status: ('A' for Active; 'I' for Inactive)
REMARK    1  A    between atoms: O_3  and  C_25
REMARK    2  A    between atoms: O_3  and  C_29
REMARK    3  A    between atoms: O_6  and  C_28
REMARK    4  A    between atoms: O_6  and  C_31
REMARK    5  A    between atoms: O_15  and  C_41
REMARK    6  A    between atoms: O_17  and  C_43
REMARK    7  A    between atoms: C_19  and  C_29
REMARK    8  A    between atoms: C_27  and  C_30
REMARK    9  A    between atoms: C_32  and  C_36
REMARK                            x       y       z     vdW  Elec       q    Type
REMARK                         _______ _______ _______ _____ _____    ______ ____
ROOT
ATOM      1  O   UNL     1     111.516 129.806 135.651  0.00  0.00    +0.000 OA
ATOM      2  O   UNL     1     112.457 131.008 137.599  0.00  0.00    +0.000 OA
ATOM      3  O   UNL     1     113.801 130.718 137.166  0.00  0.00    +0.000 OA
ATOM      4  O   UNL     1     114.201 129.181 134.714  0.00  0.00    +0.000 OA
ATOM      5  C   UNL     1     111.325 130.559 136.852  0.00  0.00    +0.000 A 
ATOM      6  C   UNL     1     111.011 130.158 136.202  0.00  0.00    +0.000 A 
ATOM      7  C   UNL     1     112.143 130.608 136.950  0.00  0.00    +0.000 A 
ATOM      8  C   UNL     1     112.647 130.257 136.400  0.00  0.00    +0.000 A 
ATOM      9  C   UNL     1     112.333 129.856 135.750  0.00  0.00    +0.000 A 
ATOM     10  C   UNL     1     113.497 130.315 136.513  0.00  0.00    +0.000 A 
ATOM     11  C   UNL     1     112.848 129.486 135.170  0.00  0.00    +0.000 A 
ATOM     12  C   UNL     1     114.026 129.951 135.943  0.00  0.00    +0.000 A 
ATOM     13  C   UNL     1     113.700 129.534 135.267  0.00  0.00    +0.000 A 
ENDROOT
BRANCH   6  15
ATOM     14  O   UNL     1     107.741 129.956 135.806  0.00  0.00    +0.000 OA
ATOM     15  C   UNL     1     110.194 130.108 136.103  0.00  0.00    +0.000 A 
ATOM     16  C   UNL     1     109.805 129.392 136.238  0.00  0.00    +0.000 A 
ATOM     17  C   UNL     1     109.765 130.773 135.869  0.00  0.00    +0.000 A 
ATOM     18  C   UNL     1     108.988 129.343 136.139  0.00  0.00    +0.000 A 
ATOM     19  C   UNL     1     108.947 130.722 135.771  0.00  0.00    +0.000 A 
ATOM     20  C   UNL     1     108.559 130.007 135.905  0.00  0.00    +0.000 A 
BRANCH  18  21
ATOM     21  O   UNL     1     108.599 128.627 136.274  0.00  0.00    +0.000 OA
ATOM     22  C   UNL     1     108.929 127.921 136.004  0.00  0.00    +0.000 C 
ENDBRANCH  18  21
ENDBRANCH   6  15
BRANCH  12  23
ATOM     23  O   UNL     1     114.844 130.002 136.044  0.00  0.00    +0.000 OA
ATOM     24  C   UNL     1     115.278 130.562 135.623  0.00  0.00    +0.000 C 
ENDBRANCH  12  23
BRANCH   5  25
ATOM     25  O   UNL     1     110.822 130.910 137.402  0.00  0.00    +0.000 OA
BRANCH  25  34
ATOM     26  O   UNL     1     111.030 129.898 138.390  0.00  0.00    +0.000 OA
ATOM     27  O   UNL     1     110.938 129.987 140.568  0.00  0.00    +0.000 OA
ATOM     28  O   UNL     1     110.578 131.549 140.177  0.00  0.00    +0.000 OA
ATOM     29  O   UNL     1     110.520 132.010 138.594  0.00  0.00    +0.000 OA
ATOM     30  C   UNL     1     111.059 129.668 139.181  0.00  0.00    +0.000 C 
ATOM     31  C   UNL     1     110.909 130.218 139.777  0.00  0.00    +0.000 C 
ATOM     32  C   UNL     1     110.729 130.999 139.581  0.00  0.00    +0.000 C 
ATOM     33  C   UNL     1     110.700 131.230 138.790  0.00  0.00    +0.000 C 
ATOM     34  C   UNL     1     110.851 130.679 138.193  0.00  0.00    +0.000 C 
BRANCH  30  35
ATOM     35  C   UNL     1     111.239 128.886 139.376  0.00  0.00    +0.000 C 
BRANCH  35  36
ATOM     36  O   UNL     1     110.803 128.269 139.047  0.00  0.00    +0.000 OA
BRANCH  36  43
ATOM     37  O   UNL     1     111.926 127.453 138.708  0.00  0.00    +0.000 OA
ATOM     38  O   UNL     1     109.920 126.915 139.380  0.00  0.00    +0.000 OA
ATOM     39  O   UNL     1     110.603 125.422 139.207  0.00  0.00    +0.000 OA
ATOM     40  O   UNL     1     112.167 125.284 138.702  0.00  0.00    +0.000 OA
ATOM     41  C   UNL     1     110.702 126.845 139.127  0.00  0.00    +0.000 C 
ATOM     42  C   UNL     1     111.044 126.099 139.041  0.00  0.00    +0.000 C 
ATOM     43  C   UNL     1     111.143 127.522 138.961  0.00  0.00    +0.000 C 
ATOM     44  C   UNL     1     111.826 126.030 138.789  0.00  0.00    +0.000 C 
ATOM     45  C   UNL     1     112.267 126.707 138.622  0.00  0.00    +0.000 C 
BRANCH  45  47
ATOM     46  O   UNL     1     113.284 126.981 137.657  0.00  0.00    +0.000 OA
ATOM     47  C   UNL     1     113.049 126.638 138.370  0.00  0.00    +0.000 C 
ENDBRANCH  45  47
ENDBRANCH  36  43
ENDBRANCH  35  36
ENDBRANCH  30  35
ENDBRANCH  25  34
ENDBRANCH   5  25
TORSDOF 9
ENDMDL
MODEL 6
REMARK VINA RESULT:      -9.4      1.328      3.526
REMARK  Name = 44259791
REMARK  9 active torsions:
REMARK  status: ('A' for Active; 'I' for Inactive)
REMARK    1  A    between atoms: O_3  and  C_25
REMARK    2  A    between atoms: O_3  and  C_29
REMARK    3  A    between atoms: O_6  and  C_28
REMARK    4  A    between atoms: O_6  and  C_31
REMARK    5  A    between atoms: O_15  and  C_41
REMARK    6  A    between atoms: O_17  and  C_43
REMARK    7  A    between atoms: C_19  and  C_29
REMARK    8  A    between atoms: C_27  and  C_30
REMARK    9  A    between atoms: C_32  and  C_36
REMARK                            x       y       z     vdW  Elec       q    Type
REMARK                         _______ _______ _______ _____ _____    ______ ____
ROOT
ATOM      1  O   UNL     1     112.559 127.986 135.512  0.00  0.00    +0.000 OA
ATOM      2  O   UNL     1     111.498 130.052 136.368  0.00  0.00    +0.000 OA
ATOM      3  O   UNL     1     112.776 130.718 136.429  0.00  0.00    +0.000 OA
ATOM      4  O   UNL     1     115.173 129.265 135.608  0.00  0.00    +0.000 OA
ATOM      5  C   UNL     1     111.388 128.702 135.915  0.00  0.00    +0.000 A 
ATOM      6  C   UNL     1     111.742 128.013 135.629  0.00  0.00    +0.000 A 
ATOM      7  C   UNL     1     111.851 129.364 136.083  0.00  0.00    +0.000 A 
ATOM      8  C   UNL     1     112.667 129.337 135.965  0.00  0.00    +0.000 A 
ATOM      9  C   UNL     1     113.021 128.649 135.680  0.00  0.00    +0.000 A 
ATOM     10  C   UNL     1     113.138 130.034 136.144  0.00  0.00    +0.000 A 
ATOM     11  C   UNL     1     113.870 128.609 135.554  0.00  0.00    +0.000 A 
ATOM     12  C   UNL     1     113.989 130.012 136.024  0.00  0.00    +0.000 A 
ATOM     13  C   UNL     1     114.357 129.295 135.727  0.00  0.00    +0.000 A 
ENDROOT
BRANCH   6  15
ATOM     14  O   UNL     1     109.894 125.362 134.959  0.00  0.00    +0.000 OA
ATOM     15  C   UNL     1     111.280 127.351 135.461  0.00  0.00    +0.000 A 
ATOM     16  C   UNL     1     111.285 126.703 135.974  0.00  0.00    +0.000 A 
ATOM     17  C   UNL     1     110.813 127.335 134.782  0.00  0.00    +0.000 A 
ATOM     18  C   UNL     1     110.823 126.041 135.806  0.00  0.00    +0.000 A 
ATOM     19  C   UNL     1     110.351 126.671 134.614  0.00  0.00    +0.000 A 
ATOM     20  C   UNL     1     110.356 126.025 135.126  0.00  0.00    +0.000 A 
BRANCH  18  21
ATOM     21  O   UNL     1     110.829 125.394 136.319  0.00  0.00    +0.000 OA
ATOM     22  C   UNL     1     111.543 125.112 136.620  0.00  0.00    +0.000 C 
ENDBRANCH  18  21
ENDBRANCH   6  15
BRANCH  12  23
ATOM     23  O   UNL     1     114.449 130.676 136.193  0.00  0.00    +0.000 OA
ATOM     24  C   UNL     1     114.791 131.108 135.580  0.00  0.00    +0.000 C 
ENDBRANCH  12  23
BRANCH   5  25
ATOM     25  O   UNL     1     110.573 128.728 136.032  0.00  0.00    +0.000 OA
BRANCH  25  34
ATOM     26  O   UNL     1     110.665 128.673 137.457  0.00  0.00    +0.000 OA
ATOM     27  O   UNL     1     109.357 129.480 139.006  0.00  0.00    +0.000 OA
ATOM     28  O   UNL     1     108.564 129.967 137.644  0.00  0.00    +0.000 OA
ATOM     29  O   UNL     1     109.172 129.591 136.157  0.00  0.00    +0.000 OA
ATOM     30  C   UNL     1     110.361 128.861 138.201  0.00  0.00    +0.000 C 
ATOM     31  C   UNL     1     109.661 129.292 138.263  0.00  0.00    +0.000 C 
ATOM     32  C   UNL     1     109.264 129.536 137.582  0.00  0.00    +0.000 C 
ATOM     33  C   UNL     1     109.568 129.348 136.838  0.00  0.00    +0.000 C 
ATOM     34  C   UNL     1     110.269 128.916 136.776  0.00  0.00    +0.000 C 
BRANCH  30  35
ATOM     35  C   UNL     1     110.758 128.617 138.882  0.00  0.00    +0.000 C 
BRANCH  35  36
ATOM     36  O   UNL     1     111.085 127.860 138.919  0.00  0.00    +0.000 OA
BRANCH  36  43
ATOM     37  O   UNL     1     112.332 128.204 139.526  0.00  0.00    +0.000 OA
ATOM     38  O   UNL     1     110.990 126.518 139.874  0.00  0.00    +0.000 OA
ATOM     39  O   UNL     1     112.190 126.190 140.958  0.00  0.00    +0.000 OA
ATOM     40  O   UNL     1     113.484 127.205 141.087  0.00  0.00    +0.000 OA
ATOM     41  C   UNL     1     111.637 127.025 139.939  0.00  0.00    +0.000 C 
ATOM     42  C   UNL     1     112.238 126.862 140.481  0.00  0.00    +0.000 C 
ATOM     43  C   UNL     1     111.684 127.696 139.461  0.00  0.00    +0.000 C 
ATOM     44  C   UNL     1     112.884 127.368 140.546  0.00  0.00    +0.000 C 
ATOM     45  C   UNL     1     112.932 128.040 140.068  0.00  0.00    +0.000 C 
BRANCH  45  47
ATOM     46  O   UNL     1     113.802 129.015 139.490  0.00  0.00    +0.000 OA
ATOM     47  C   UNL     1     113.579 128.547 140.132  0.00  0.00    +0.000 C 
ENDBRANCH  45  47
ENDBRANCH  36  43
ENDBRANCH  35  36
ENDBRANCH  30  35
ENDBRANCH  25  34
ENDBRANCH   5  25
TORSDOF 9
ENDMDL
MODEL 7
REMARK VINA RESULT:      -9.4      1.734      3.763
REMARK  Name = 44259791
REMARK  9 active torsions:
REMARK  status: ('A' for Active; 'I' for Inactive)
REMARK    1  A    between atoms: O_3  and  C_25
REMARK    2  A    between atoms: O_3  and  C_29
REMARK    3  A    between atoms: O_6  and  C_28
REMARK    4  A    between atoms: O_6  and  C_31
REMARK    5  A    between atoms: O_15  and  C_41
REMARK    6  A    between atoms: O_17  and  C_43
REMARK    7  A    between atoms: C_19  and  C_29
REMARK    8  A    between atoms: C_27  and  C_30
REMARK    9  A    between atoms: C_32  and  C_36
REMARK                            x       y       z     vdW  Elec       q    Type
REMARK                         _______ _______ _______ _____ _____    ______ ____
ROOT
ATOM      1  O   UNL     1     113.166 126.926 138.522  0.00  0.00    +0.000 OA
ATOM      2  O   UNL     1     111.245 125.730 139.526  0.00  0.00    +0.000 OA
ATOM      3  O   UNL     1     111.150 124.861 138.379  0.00  0.00    +0.000 OA
ATOM      4  O   UNL     1     113.034 125.208 136.174  0.00  0.00    +0.000 OA
ATOM      5  C   UNL     1     112.241 126.752 139.599  0.00  0.00    +0.000 A 
ATOM      6  C   UNL     1     112.881 127.151 139.264  0.00  0.00    +0.000 A 
ATOM      7  C   UNL     1     111.885 126.129 139.191  0.00  0.00    +0.000 A 
ATOM      8  C   UNL     1     112.169 125.904 138.451  0.00  0.00    +0.000 A 
ATOM      9  C   UNL     1     112.809 126.303 138.116  0.00  0.00    +0.000 A 
ATOM     10  C   UNL     1     111.789 125.253 138.037  0.00  0.00    +0.000 A 
ATOM     11  C   UNL     1     113.114 126.078 137.344  0.00  0.00    +0.000 A 
ATOM     12  C   UNL     1     112.081 125.015 137.264  0.00  0.00    +0.000 A 
ATOM     13  C   UNL     1     112.747 125.430 136.916  0.00  0.00    +0.000 A 
ENDROOT
BRANCH   6  15
ATOM     14  O   UNL     1     114.306 129.645 140.888  0.00  0.00    +0.000 OA
ATOM     15  C   UNL     1     113.238 127.774 139.671  0.00  0.00    +0.000 A 
ATOM     16  C   UNL     1     113.088 128.553 139.443  0.00  0.00    +0.000 A 
ATOM     17  C   UNL     1     113.743 127.618 140.304  0.00  0.00    +0.000 A 
ATOM     18  C   UNL     1     113.444 129.176 139.849  0.00  0.00    +0.000 A 
ATOM     19  C   UNL     1     114.099 128.243 140.709  0.00  0.00    +0.000 A 
ATOM     20  C   UNL     1     113.950 129.021 140.482  0.00  0.00    +0.000 A 
BRANCH  18  21
ATOM     21  O   UNL     1     113.295 129.956 139.622  0.00  0.00    +0.000 OA
ATOM     22  C   UNL     1     113.196 130.141 138.824  0.00  0.00    +0.000 C 
ENDBRANCH  18  21
ENDBRANCH   6  15
BRANCH  12  23
ATOM     23  O   UNL     1     111.723 124.392 136.860  0.00  0.00    +0.000 OA
ATOM     24  C   UNL     1     112.062 123.641 136.875  0.00  0.00    +0.000 C 
ENDBRANCH  12  23
BRANCH   5  25
ATOM     25  O   UNL     1     111.957 126.976 140.340  0.00  0.00    +0.000 OA
BRANCH  25  34
ATOM     26  O   UNL     1     110.769 127.570 139.812  0.00  0.00    +0.000 OA
ATOM     27  O   UNL     1     108.796 127.851 140.700  0.00  0.00    +0.000 OA
ATOM     28  O   UNL     1     109.590 127.101 141.936  0.00  0.00    +0.000 OA
ATOM     29  O   UNL     1     111.171 126.664 141.756  0.00  0.00    +0.000 OA
ATOM     30  C   UNL     1     109.979 127.788 139.902  0.00  0.00    +0.000 C 
ATOM     31  C   UNL     1     109.586 127.632 140.610  0.00  0.00    +0.000 C 
ATOM     32  C   UNL     1     109.983 127.257 141.228  0.00  0.00    +0.000 C 
ATOM     33  C   UNL     1     110.773 127.039 141.138  0.00  0.00    +0.000 C 
ATOM     34  C   UNL     1     111.167 127.195 140.430  0.00  0.00    +0.000 C 
BRANCH  30  35
ATOM     35  C   UNL     1     109.582 128.163 139.283  0.00  0.00    +0.000 C 
BRANCH  35  36
ATOM     36  O   UNL     1     109.946 128.781 138.875  0.00  0.00    +0.000 OA
BRANCH  36  43
ATOM     37  O   UNL     1     109.563 128.422 137.546  0.00  0.00    +0.000 OA
ATOM     38  O   UNL     1     109.627 130.365 138.538  0.00  0.00    +0.000 OA
ATOM     39  O   UNL     1     109.084 130.797 137.041  0.00  0.00    +0.000 OA
ATOM     40  O   UNL     1     108.861 129.646 135.881  0.00  0.00    +0.000 OA
ATOM     41  C   UNL     1     109.515 129.790 137.958  0.00  0.00    +0.000 C 
ATOM     42  C   UNL     1     109.244 130.005 137.209  0.00  0.00    +0.000 C 
ATOM     43  C   UNL     1     109.675 128.998 138.126  0.00  0.00    +0.000 C 
ATOM     44  C   UNL     1     109.132 129.430 136.629  0.00  0.00    +0.000 C 
ATOM     45  C   UNL     1     109.292 128.638 136.797  0.00  0.00    +0.000 C 
BRANCH  45  47
ATOM     46  O   UNL     1     109.703 127.427 136.161  0.00  0.00    +0.000 OA
ATOM     47  C   UNL     1     109.180 128.063 136.218  0.00  0.00    +0.000 C 
ENDBRANCH  45  47
ENDBRANCH  36  43
ENDBRANCH  35  36
ENDBRANCH  30  35
ENDBRANCH  25  34
ENDBRANCH   5  25
TORSDOF 9
ENDMDL
MODEL 8
REMARK VINA RESULT:      -9.3      0.912      2.657
REMARK  Name = 44259791
REMARK  9 active torsions:
REMARK  status: ('A' for Active; 'I' for Inactive)
REMARK    1  A    between atoms: O_3  and  C_25
REMARK    2  A    between atoms: O_3  and  C_29
REMARK    3  A    between atoms: O_6  and  C_28
REMARK    4  A    between atoms: O_6  and  C_31
REMARK    5  A    between atoms: O_15  and  C_41
REMARK    6  A    between atoms: O_17  and  C_43
REMARK    7  A    between atoms: C_19  and  C_29
REMARK    8  A    between atoms: C_27  and  C_30
REMARK    9  A    between atoms: C_32  and  C_36
REMARK                            x       y       z     vdW  Elec       q    Type
REMARK                         _______ _______ _______ _____ _____    ______ ____
ROOT
ATOM      1  O   UNL     1     113.136 128.603 138.197  0.00  0.00    +0.000 OA
ATOM      2  O   UNL     1     113.599 127.218 136.199  0.00  0.00    +0.000 OA
ATOM      3  O   UNL     1     114.062 128.373 135.470  0.00  0.00    +0.000 OA
ATOM      4  O   UNL     1     114.055 130.980 136.787  0.00  0.00    +0.000 OA
ATOM      5  C   UNL     1     113.141 127.330 137.548  0.00  0.00    +0.000 A 
ATOM      6  C   UNL     1     112.986 127.791 138.214  0.00  0.00    +0.000 A 
ATOM      7  C   UNL     1     113.445 127.680 136.865  0.00  0.00    +0.000 A 
ATOM      8  C   UNL     1     113.594 128.490 136.848  0.00  0.00    +0.000 A 
ATOM      9  C   UNL     1     113.439 128.952 137.514  0.00  0.00    +0.000 A 
ATOM     10  C   UNL     1     113.910 128.843 136.131  0.00  0.00    +0.000 A 
ATOM     11  C   UNL     1     113.591 129.798 137.509  0.00  0.00    +0.000 A 
ATOM     12  C   UNL     1     114.068 129.687 136.107  0.00  0.00    +0.000 A 
ATOM     13  C   UNL     1     113.907 130.168 136.801  0.00  0.00    +0.000 A 
ENDROOT
BRANCH   6  15
ATOM     14  O   UNL     1     111.769 126.397 140.946  0.00  0.00    +0.000 OA
ATOM     15  C   UNL     1     112.683 127.443 138.897  0.00  0.00    +0.000 A 
ATOM     16  C   UNL     1     111.902 127.589 139.122  0.00  0.00    +0.000 A 
ATOM     17  C   UNL     1     113.158 126.948 139.355  0.00  0.00    +0.000 A 
ATOM     18  C   UNL     1     111.598 127.240 139.805  0.00  0.00    +0.000 A 
ATOM     19  C   UNL     1     112.853 126.600 140.038  0.00  0.00    +0.000 A 
ATOM     20  C   UNL     1     112.074 126.746 140.263  0.00  0.00    +0.000 A 
BRANCH  18  21
ATOM     21  O   UNL     1     110.817 127.386 140.030  0.00  0.00    +0.000 OA
ATOM     22  C   UNL     1     110.199 126.982 139.662  0.00  0.00    +0.000 C 
ENDBRANCH  18  21
ENDBRANCH   6  15
BRANCH  12  23
ATOM     23  O   UNL     1     114.372 130.034 135.423  0.00  0.00    +0.000 OA
ATOM     24  C   UNL     1     115.177 130.203 135.368  0.00  0.00    +0.000 C 
ENDBRANCH  12  23
BRANCH   5  25
ATOM     25  O   UNL     1     112.992 126.519 137.565  0.00  0.00    +0.000 OA
BRANCH  25  34
ATOM     26  O   UNL     1     111.873 126.649 136.686  0.00  0.00    +0.000 OA
ATOM     27  O   UNL     1     110.880 125.185 135.408  0.00  0.00    +0.000 OA
ATOM     28  O   UNL     1     112.062 124.256 136.088  0.00  0.00    +0.000 OA
ATOM     29  O   UNL     1     113.118 124.923 137.166  0.00  0.00    +0.000 OA
ATOM     30  C   UNL     1     111.345 126.316 136.147  0.00  0.00    +0.000 C 
ATOM     31  C   UNL     1     111.408 125.519 135.948  0.00  0.00    +0.000 C 
ATOM     32  C   UNL     1     111.999 125.053 136.287  0.00  0.00    +0.000 C 
ATOM     33  C   UNL     1     112.527 125.387 136.826  0.00  0.00    +0.000 C 
ATOM     34  C   UNL     1     112.464 126.186 137.026  0.00  0.00    +0.000 C 
BRANCH  30  35
ATOM     35  C   UNL     1     110.754 126.781 135.807  0.00  0.00    +0.000 C 
BRANCH  35  36
ATOM     36  O   UNL     1     110.251 127.225 136.288  0.00  0.00    +0.000 OA
BRANCH  36  43
ATOM     37  O   UNL     1     110.295 128.455 135.562  0.00  0.00    +0.000 OA
ATOM     38  O   UNL     1     108.629 127.420 136.521  0.00  0.00    +0.000 OA
ATOM     39  O   UNL     1     107.862 128.747 135.911  0.00  0.00    +0.000 OA
ATOM     40  O   UNL     1     108.716 129.879 135.069  0.00  0.00    +0.000 OA
ATOM     41  C   UNL     1     109.056 127.986 136.100  0.00  0.00    +0.000 C 
ATOM     42  C   UNL     1     108.673 128.650 135.795  0.00  0.00    +0.000 C 
ATOM     43  C   UNL     1     109.867 127.888 135.983  0.00  0.00    +0.000 C 
ATOM     44  C   UNL     1     109.100 129.215 135.374  0.00  0.00    +0.000 C 
ATOM     45  C   UNL     1     109.911 129.118 135.257  0.00  0.00    +0.000 C 
BRANCH  45  47
ATOM     46  O   UNL     1     110.895 130.153 135.223  0.00  0.00    +0.000 OA
ATOM     47  C   UNL     1     110.338 129.683 134.836  0.00  0.00    +0.000 C 
ENDBRANCH  45  47
ENDBRANCH  36  43
ENDBRANCH  35  36
ENDBRANCH  30  35
ENDBRANCH  25  34
ENDBRANCH   5  25
TORSDOF 9
ENDMDL
MODEL 9
REMARK VINA RESULT:      -9.3      1.320      3.875
REMARK  Name = 44259791
REMARK  9 active torsions:
REMARK  status: ('A' for Active; 'I' for Inactive)
REMARK    1  A    between atoms: O_3  and  C_25
REMARK    2  A    between atoms: O_3  and  C_29
REMARK    3  A    between atoms: O_6  and  C_28
REMARK    4  A    between atoms: O_6  and  C_31
REMARK    5  A    between atoms: O_15  and  C_41
REMARK    6  A    between atoms: O_17  and  C_43
REMARK    7  A    between atoms: C_19  and  C_29
REMARK    8  A    between atoms: C_27  and  C_30
REMARK    9  A    between atoms: C_32  and  C_36
REMARK                            x       y       z     vdW  Elec       q    Type
REMARK                         _______ _______ _______ _____ _____    ______ ____
ROOT
ATOM      1  O   UNL     1     112.730 127.662 138.349  0.00  0.00    +0.000 OA
ATOM      2  O   UNL     1     111.168 125.795 137.900  0.00  0.00    +0.000 OA
ATOM      3  O   UNL     1     110.863 125.674 139.304  0.00  0.00    +0.000 OA
ATOM      4  O   UNL     1     112.165 127.475 141.200  0.00  0.00    +0.000 OA
ATOM      5  C   UNL     1     112.091 126.778 137.425  0.00  0.00    +0.000 A 
ATOM      6  C   UNL     1     112.611 127.400 137.575  0.00  0.00    +0.000 A 
ATOM      7  C   UNL     1     111.689 126.417 138.050  0.00  0.00    +0.000 A 
ATOM      8  C   UNL     1     111.807 126.679 138.822  0.00  0.00    +0.000 A 
ATOM      9  C   UNL     1     112.328 127.301 138.972  0.00  0.00    +0.000 A 
ATOM     10  C   UNL     1     111.382 126.295 139.464  0.00  0.00    +0.000 A 
ATOM     11  C   UNL     1     112.460 127.582 139.774  0.00  0.00    +0.000 A 
ATOM     12  C   UNL     1     111.502 126.563 140.271  0.00  0.00    +0.000 A 
ATOM     13  C   UNL     1     112.044 127.211 140.427  0.00  0.00    +0.000 A 
ENDROOT
BRANCH   6  15
ATOM     14  O   UNL     1     114.219 128.846 135.082  0.00  0.00    +0.000 OA
ATOM     15  C   UNL     1     113.014 127.761 136.952  0.00  0.00    +0.000 A 
ATOM     16  C   UNL     1     112.792 128.515 136.700  0.00  0.00    +0.000 A 
ATOM     17  C   UNL     1     113.637 127.368 136.580  0.00  0.00    +0.000 A 
ATOM     18  C   UNL     1     113.194 128.876 136.077  0.00  0.00    +0.000 A 
ATOM     19  C   UNL     1     114.039 127.730 135.957  0.00  0.00    +0.000 A 
ATOM     20  C   UNL     1     113.818 128.483 135.706  0.00  0.00    +0.000 A 
BRANCH  18  21
ATOM     21  O   UNL     1     112.973 129.631 135.826  0.00  0.00    +0.000 OA
ATOM     22  C   UNL     1     112.764 130.206 136.379  0.00  0.00    +0.000 C 
ENDBRANCH  18  21
ENDBRANCH   6  15
BRANCH  12  23
ATOM     23  O   UNL     1     111.098 126.201 140.893  0.00  0.00    +0.000 OA
ATOM     24  C   UNL     1     110.432 126.561 141.219  0.00  0.00    +0.000 C 
ENDBRANCH  12  23
BRANCH   5  25
ATOM     25  O   UNL     1     111.972 126.516 136.652  0.00  0.00    +0.000 OA
BRANCH  25  34
ATOM     26  O   UNL     1     110.695 127.141 136.504  0.00  0.00    +0.000 OA
ATOM     27  O   UNL     1     108.942 126.553 135.345  0.00  0.00    +0.000 OA
ATOM     28  O   UNL     1     109.980 125.321 134.988  0.00  0.00    +0.000 OA
ATOM     29  O   UNL     1     111.495 125.303 135.641  0.00  0.00    +0.000 OA
ATOM     30  C   UNL     1     109.938 127.150 136.177  0.00  0.00    +0.000 C 
ATOM     31  C   UNL     1     109.700 126.544 135.672  0.00  0.00    +0.000 C 
ATOM     32  C   UNL     1     110.218 125.927 135.493  0.00  0.00    +0.000 C 
ATOM     33  C   UNL     1     110.976 125.918 135.820  0.00  0.00    +0.000 C 
ATOM     34  C   UNL     1     111.215 126.525 136.326  0.00  0.00    +0.000 C 
BRANCH  30  35
ATOM     35  C   UNL     1     109.419 127.766 136.356  0.00  0.00    +0.000 C 
BRANCH  35  36
ATOM     36  O   UNL     1     109.592 128.535 136.109  0.00  0.00    +0.000 OA
BRANCH  36  43
ATOM     37  O   UNL     1     109.473 129.213 137.362  0.00  0.00    +0.000 OA
ATOM     38  O   UNL     1     108.766 129.756 135.370  0.00  0.00    +0.000 OA
ATOM     39  O   UNL     1     108.234 131.045 136.252  0.00  0.00    +0.000 OA
ATOM     40  O   UNL     1     108.529 131.112 137.873  0.00  0.00    +0.000 OA
ATOM     41  C   UNL     1     108.913 129.790 136.180  0.00  0.00    +0.000 C 
ATOM     42  C   UNL     1     108.647 130.435 136.622  0.00  0.00    +0.000 C 
ATOM     43  C   UNL     1     109.326 129.179 136.550  0.00  0.00    +0.000 C 
ATOM     44  C   UNL     1     108.795 130.468 137.432  0.00  0.00    +0.000 C 
ATOM     45  C   UNL     1     109.208 129.857 137.802  0.00  0.00    +0.000 C 
BRANCH  45  47
ATOM     46  O   UNL     1     109.299 129.207 139.071  0.00  0.00    +0.000 OA
ATOM     47  C   UNL     1     109.355 129.890 138.613  0.00  0.00    +0.000 C 
ENDBRANCH  45  47
ENDBRANCH  36  43
ENDBRANCH  35  36
ENDBRANCH  30  35
ENDBRANCH  25  34
ENDBRANCH   5  25
TORSDOF 9
ENDMDL
MODEL 10
REMARK VINA RESULT:      -9.3      1.571      4.891
REMARK  Name = 44259791
REMARK  9 active torsions:
REMARK  status: ('A' for Active; 'I' for Inactive)
REMARK    1  A    between atoms: O_3  and  C_25
REMARK    2  A    between atoms: O_3  and  C_29
REMARK    3  A    between atoms: O_6  and  C_28
REMARK    4  A    between atoms: O_6  and  C_31
REMARK    5  A    between atoms: O_15  and  C_41
REMARK    6  A    between atoms: O_17  and  C_43
REMARK    7  A    between atoms: C_19  and  C_29
REMARK    8  A    between atoms: C_27  and  C_30
REMARK    9  A    between atoms: C_32  and  C_36
REMARK                            x       y       z     vdW  Elec       q    Type
REMARK                         _______ _______ _______ _____ _____    ______ ____
ROOT
ATOM      1  O   UNL     1     111.459 129.683 138.810  0.00  0.00    +0.000 OA
ATOM      2  O   UNL     1     112.078 130.601 136.597  0.00  0.00    +0.000 OA
ATOM      3  O   UNL     1     110.692 130.673 136.206  0.00  0.00    +0.000 OA
ATOM      4  O   UNL     1     108.639 129.799 138.092  0.00  0.00    +0.000 OA
ATOM      5  C   UNL     1     112.460 130.112 137.884  0.00  0.00    +0.000 A 
ATOM      6  C   UNL     1     112.254 129.806 138.622  0.00  0.00    +0.000 A 
ATOM      7  C   UNL     1     111.872 130.295 137.335  0.00  0.00    +0.000 A 
ATOM      8  C   UNL     1     111.079 130.173 137.523  0.00  0.00    +0.000 A 
ATOM      9  C   UNL     1     110.872 129.866 138.260  0.00  0.00    +0.000 A 
ATOM     10  C   UNL     1     110.476 130.367 136.942  0.00  0.00    +0.000 A 
ATOM     11  C   UNL     1     110.049 129.734 138.468  0.00  0.00    +0.000 A 
ATOM     12  C   UNL     1     109.648 130.242 137.132  0.00  0.00    +0.000 A 
ATOM     13  C   UNL     1     109.433 129.923 137.900  0.00  0.00    +0.000 A 
ENDROOT
BRANCH   6  15
ATOM     14  O   UNL     1     114.601 129.069 140.821  0.00  0.00    +0.000 OA
ATOM     15  C   UNL     1     112.840 129.623 139.172  0.00  0.00    +0.000 A 
ATOM     16  C   UNL     1     113.026 128.833 139.328  0.00  0.00    +0.000 A 
ATOM     17  C   UNL     1     113.241 130.227 139.565  0.00  0.00    +0.000 A 
ATOM     18  C   UNL     1     113.613 128.650 139.878  0.00  0.00    +0.000 A 
ATOM     19  C   UNL     1     113.828 130.042 140.115  0.00  0.00    +0.000 A 
ATOM     20  C   UNL     1     114.014 129.254 140.272  0.00  0.00    +0.000 A 
BRANCH  18  21
ATOM     21  O   UNL     1     113.799 127.861 140.034  0.00  0.00    +0.000 OA
ATOM     22  C   UNL     1     113.202 127.292 140.055  0.00  0.00    +0.000 C 
ENDBRANCH  18  21
ENDBRANCH   6  15
BRANCH  12  23
ATOM     23  O   UNL     1     109.062 130.426 136.580  0.00  0.00    +0.000 OA
ATOM     24  C   UNL     1     108.718 129.828 136.128  0.00  0.00    +0.000 C 
ENDBRANCH  12  23
BRANCH   5  25
ATOM     25  O   UNL     1     113.253 130.235 137.696  0.00  0.00    +0.000 OA
BRANCH  25  34
ATOM     26  O   UNL     1     113.343 129.099 136.833  0.00  0.00    +0.000 OA
ATOM     27  O   UNL     1     114.576 128.739 135.069  0.00  0.00    +0.000 OA
ATOM     28  O   UNL     1     115.059 130.262 135.481  0.00  0.00    +0.000 OA
ATOM     29  O   UNL     1     114.397 131.010 136.794  0.00  0.00    +0.000 OA
ATOM     30  C   UNL     1     113.674 128.725 136.176  0.00  0.00    +0.000 C 
ATOM     31  C   UNL     1     114.246 129.113 135.726  0.00  0.00    +0.000 C 
ATOM     32  C   UNL     1     114.487 129.874 135.931  0.00  0.00    +0.000 C 
ATOM     33  C   UNL     1     114.156 130.248 136.588  0.00  0.00    +0.000 C 
ATOM     34  C   UNL     1     113.584 129.861 137.039  0.00  0.00    +0.000 C 
BRANCH  30  35
ATOM     35  C   UNL     1     113.432 127.963 135.971  0.00  0.00    +0.000 C 
BRANCH  35  36
ATOM     36  O   UNL     1     113.460 127.358 136.530  0.00  0.00    +0.000 OA
BRANCH  36  43
ATOM     37  O   UNL     1     112.174 126.791 136.269  0.00  0.00    +0.000 OA
ATOM     38  O   UNL     1     114.089 125.843 136.717  0.00  0.00    +0.000 OA
ATOM     39  O   UNL     1     113.117 124.520 136.550  0.00  0.00    +0.000 OA
ATOM     40  O   UNL     1     111.518 124.712 136.196  0.00  0.00    +0.000 OA
ATOM     41  C   UNL     1     113.289 125.939 136.540  0.00  0.00    +0.000 C 
ATOM     42  C   UNL     1     112.803 125.277 136.456  0.00  0.00    +0.000 C 
ATOM     43  C   UNL     1     112.975 126.696 136.447  0.00  0.00    +0.000 C 
ATOM     44  C   UNL     1     112.003 125.373 136.279  0.00  0.00    +0.000 C 
ATOM     45  C   UNL     1     111.689 126.130 136.186  0.00  0.00    +0.000 C 
BRANCH  45  47
ATOM     46  O   UNL     1     110.454 126.824 136.374  0.00  0.00    +0.000 OA
ATOM     47  C   UNL     1     110.889 126.226 136.008  0.00  0.00    +0.000 C 
ENDBRANCH  45  47
ENDBRANCH  36  43
ENDBRANCH  35  36
ENDBRANCH  30  35
ENDBRANCH  25  34
ENDBRANCH   5  25
TORSDOF 9
ENDMDL
