MODEL 1
REMARK VINA RESULT:      -8.9      0.000      0.000
REMARK  Name = 
REMARK  5 active torsions:
REMARK  status: ('A' for Active; 'I' for Inactive)
REMARK    1  A    between atoms: O_2  and  C_3
REMARK    2  A    between atoms: C_5  and  C_10
REMARK    3  A    between atoms: C_11  and  O_23
REMARK    4  A    between atoms: O_23  and  C_24
REMARK    5  A    between atoms: C_28  and  C_30
REMARK                            x       y       z     vdW  Elec       q    Type
REMARK                         _______ _______ _______ _____ _____    ______ ____
ROOT
ATOM      1  C   UNL     1     112.909 127.753 136.116  0.00  0.00    +0.000 A 
ATOM      2  C   UNL     1     111.957 127.680 135.799  0.00  0.00    +0.000 A 
ATOM      3  C   UNL     1     111.491 126.791 135.823  0.00  0.00    +0.000 A 
ATOM      4  O   UNL     1     110.547 126.718 135.508  0.00  0.00    +0.000 OA
ATOM      5  C   UNL     1     111.967 125.980 136.160  0.00  0.00    +0.000 A 
ATOM      6  C   UNL     1     111.501 125.099 136.183  0.00  0.00    +0.000 A 
ATOM      7  C   UNL     1     111.978 124.288 136.520  0.00  0.00    +0.000 A 
ATOM      8  C   UNL     1     112.929 124.361 136.838  0.00  0.00    +0.000 A 
ATOM      9  C   UNL     1     113.395 125.245 136.815  0.00  0.00    +0.000 A 
ATOM     10  C   UNL     1     112.919 126.054 136.478  0.00  0.00    +0.000 A 
ATOM     11  O   UNL     1     113.385 126.937 136.455  0.00  0.00    +0.000 OA
ATOM     12  O   UNL     1     113.406 123.552 137.175  0.00  0.00    +0.000 OA
ATOM     13  O   UNL     1     110.557 125.026 135.868  0.00  0.00    +0.000 OA
ENDROOT
BRANCH   1  16
ATOM     14  C   UNL     1     113.934 130.058 136.905  0.00  0.00    +0.000 A 
ATOM     15  C   UNL     1     113.468 129.175 136.928  0.00  0.00    +0.000 A 
ATOM     16  C   UNL     1     113.375 128.636 136.093  0.00  0.00    +0.000 A 
ATOM     17  C   UNL     1     113.748 128.980 135.234  0.00  0.00    +0.000 A 
ATOM     18  C   UNL     1     114.215 129.862 135.211  0.00  0.00    +0.000 A 
ATOM     19  C   UNL     1     114.307 130.401 136.046  0.00  0.00    +0.000 A 
ATOM     20  O   UNL     1     114.774 131.284 136.022  0.00  0.00    +0.000 OA
BRANCH  14  22
ATOM     21  C   UNL     1     113.515 130.336 138.566  0.00  0.00    +0.000 C 
ATOM     22  O   UNL     1     114.027 130.597 137.740  0.00  0.00    +0.000 OA
ENDBRANCH  14  22
ENDBRANCH   1  16
BRANCH   2  23
ATOM     23  O   UNL     1     111.481 128.490 135.462  0.00  0.00    +0.000 OA
BRANCH  23  24
ATOM     24  C   UNL     1     110.751 128.901 136.005  0.00  0.00    +0.000 C 
ATOM     25  C   UNL     1     110.112 129.540 135.580  0.00  0.00    +0.000 C 
ATOM     26  C   UNL     1     109.378 129.954 136.127  0.00  0.00    +0.000 C 
ATOM     27  C   UNL     1     109.288 129.726 137.096  0.00  0.00    +0.000 C 
ATOM     28  C   UNL     1     109.927 129.087 137.520  0.00  0.00    +0.000 C 
ATOM     29  O   UNL     1     110.661 128.673 136.973  0.00  0.00    +0.000 OA
ATOM     30  O   UNL     1     108.559 130.136 137.638  0.00  0.00    +0.000 OA
ATOM     31  O   UNL     1     108.738 130.592 135.703  0.00  0.00    +0.000 OA
ATOM     32  O   UNL     1     110.202 129.768 134.612  0.00  0.00    +0.000 OA
BRANCH  28  33
ATOM     33  C   UNL     1     109.839 128.855 138.494  0.00  0.00    +0.000 C 
ATOM     34  O   UNL     1     110.465 128.199 138.914  0.00  0.00    +0.000 OA
ENDBRANCH  28  33
ENDBRANCH  23  24
ENDBRANCH   2  23
TORSDOF 5
ENDMDL
MODEL 2
REMARK VINA RESULT:      -8.8      1.099      3.453
REMARK  Name = 
REMARK  5 active torsions:
REMARK  status: ('A' for Active; 'I' for Inactive)
REMARK    1  A    between atoms: O_2  and  C_3
REMARK    2  A    between atoms: C_5  and  C_10
REMARK    3  A    between atoms: C_11  and  O_23
REMARK    4  A    between atoms: O_23  and  C_24
REMARK    5  A    between atoms: C_28  and  C_30
REMARK                            x       y       z     vdW  Elec       q    Type
REMARK                         _______ _______ _______ _____ _____    ______ ____
ROOT
ATOM      1  C   UNL     1     111.391 127.183 136.132  0.00  0.00    +0.000 A 
ATOM      2  C   UNL     1     112.361 127.450 136.141  0.00  0.00    +0.000 A 
ATOM      3  C   UNL     1     113.065 126.763 136.344  0.00  0.00    +0.000 A 
ATOM      4  O   UNL     1     114.027 127.028 136.353  0.00  0.00    +0.000 OA
ATOM      5  C   UNL     1     112.807 125.818 136.538  0.00  0.00    +0.000 A 
ATOM      6  C   UNL     1     113.508 125.138 136.740  0.00  0.00    +0.000 A 
ATOM      7  C   UNL     1     113.250 124.193 136.934  0.00  0.00    +0.000 A 
ATOM      8  C   UNL     1     112.280 123.926 136.926  0.00  0.00    +0.000 A 
ATOM      9  C   UNL     1     111.578 124.607 136.724  0.00  0.00    +0.000 A 
ATOM     10  C   UNL     1     111.837 125.551 136.530  0.00  0.00    +0.000 A 
ATOM     11  O   UNL     1     111.134 126.232 136.328  0.00  0.00    +0.000 OA
ATOM     12  O   UNL     1     112.022 122.982 137.120  0.00  0.00    +0.000 OA
ATOM     13  O   UNL     1     114.470 125.403 136.749  0.00  0.00    +0.000 OA
ENDROOT
BRANCH   1  16
ATOM     14  C   UNL     1     109.466 128.961 136.470  0.00  0.00    +0.000 A 
ATOM     15  C   UNL     1     110.168 128.281 136.672  0.00  0.00    +0.000 A 
ATOM     16  C   UNL     1     110.689 127.863 135.930  0.00  0.00    +0.000 A 
ATOM     17  C   UNL     1     110.508 128.126 134.985  0.00  0.00    +0.000 A 
ATOM     18  C   UNL     1     109.806 128.806 134.781  0.00  0.00    +0.000 A 
ATOM     19  C   UNL     1     109.285 129.224 135.524  0.00  0.00    +0.000 A 
ATOM     20  O   UNL     1     108.583 129.904 135.321  0.00  0.00    +0.000 OA
BRANCH  14  22
ATOM     21  C   UNL     1     109.387 129.558 138.097  0.00  0.00    +0.000 C 
ATOM     22  O   UNL     1     108.945 129.379 137.211  0.00  0.00    +0.000 OA
ENDBRANCH  14  22
ENDBRANCH   1  16
BRANCH   2  23
ATOM     23  O   UNL     1     112.619 128.394 135.947  0.00  0.00    +0.000 OA
BRANCH  23  24
ATOM     24  C   UNL     1     112.941 128.984 136.685  0.00  0.00    +0.000 C 
ATOM     25  C   UNL     1     113.386 129.852 136.472  0.00  0.00    +0.000 C 
ATOM     26  C   UNL     1     113.710 130.446 137.215  0.00  0.00    +0.000 C 
ATOM     27  C   UNL     1     113.588 130.167 138.166  0.00  0.00    +0.000 C 
ATOM     28  C   UNL     1     113.143 129.299 138.379  0.00  0.00    +0.000 C 
ATOM     29  O   UNL     1     112.819 128.705 137.636  0.00  0.00    +0.000 OA
ATOM     30  O   UNL     1     113.909 130.756 138.903  0.00  0.00    +0.000 OA
ATOM     31  O   UNL     1     114.155 131.314 137.002  0.00  0.00    +0.000 OA
ATOM     32  O   UNL     1     113.509 130.131 135.520  0.00  0.00    +0.000 OA
BRANCH  28  33
ATOM     33  C   UNL     1     113.018 129.016 139.335  0.00  0.00    +0.000 C 
ATOM     34  O   UNL     1     112.475 128.206 139.553  0.00  0.00    +0.000 OA
ENDBRANCH  28  33
ENDBRANCH  23  24
ENDBRANCH   2  23
TORSDOF 5
ENDMDL
MODEL 3
REMARK VINA RESULT:      -8.7      2.095      5.233
REMARK  Name = 
REMARK  5 active torsions:
REMARK  status: ('A' for Active; 'I' for Inactive)
REMARK    1  A    between atoms: O_2  and  C_3
REMARK    2  A    between atoms: C_5  and  C_10
REMARK    3  A    between atoms: C_11  and  O_23
REMARK    4  A    between atoms: O_23  and  C_24
REMARK    5  A    between atoms: C_28  and  C_30
REMARK                            x       y       z     vdW  Elec       q    Type
REMARK                         _______ _______ _______ _____ _____    ______ ____
ROOT
ATOM      1  C   UNL     1     113.175 127.549 136.853  0.00  0.00    +0.000 A 
ATOM      2  C   UNL     1     112.635 128.017 137.562  0.00  0.00    +0.000 A 
ATOM      3  C   UNL     1     112.703 129.013 137.663  0.00  0.00    +0.000 A 
ATOM      4  O   UNL     1     112.168 129.478 138.365  0.00  0.00    +0.000 OA
ATOM      5  C   UNL     1     113.304 129.542 137.064  0.00  0.00    +0.000 A 
ATOM      6  C   UNL     1     113.369 130.532 137.167  0.00  0.00    +0.000 A 
ATOM      7  C   UNL     1     113.969 131.060 136.568  0.00  0.00    +0.000 A 
ATOM      8  C   UNL     1     114.509 130.592 135.860  0.00  0.00    +0.000 A 
ATOM      9  C   UNL     1     114.443 129.600 135.757  0.00  0.00    +0.000 A 
ATOM     10  C   UNL     1     113.843 129.074 136.355  0.00  0.00    +0.000 A 
ATOM     11  O   UNL     1     113.778 128.082 136.253  0.00  0.00    +0.000 OA
ATOM     12  O   UNL     1     115.109 131.119 135.261  0.00  0.00    +0.000 OA
ATOM     13  O   UNL     1     112.833 130.996 137.870  0.00  0.00    +0.000 OA
ENDROOT
BRANCH   1  16
ATOM     14  C   UNL     1     112.218 125.157 136.267  0.00  0.00    +0.000 A 
ATOM     15  C   UNL     1     112.284 126.147 136.370  0.00  0.00    +0.000 A 
ATOM     16  C   UNL     1     113.110 126.558 136.751  0.00  0.00    +0.000 A 
ATOM     17  C   UNL     1     113.872 125.977 137.029  0.00  0.00    +0.000 A 
ATOM     18  C   UNL     1     113.807 124.986 136.927  0.00  0.00    +0.000 A 
ATOM     19  C   UNL     1     112.980 124.576 136.545  0.00  0.00    +0.000 A 
ATOM     20  O   UNL     1     112.915 123.584 136.443  0.00  0.00    +0.000 OA
BRANCH  14  22
ATOM     21  C   UNL     1     110.649 125.334 135.549  0.00  0.00    +0.000 C 
ATOM     22  O   UNL     1     111.392 124.746 135.886  0.00  0.00    +0.000 OA
ENDBRANCH  14  22
ENDBRANCH   1  16
BRANCH   2  23
ATOM     23  O   UNL     1     112.035 127.489 138.160  0.00  0.00    +0.000 OA
BRANCH  23  24
ATOM     24  C   UNL     1     112.298 127.324 139.109  0.00  0.00    +0.000 C 
ATOM     25  C   UNL     1     111.672 126.849 139.725  0.00  0.00    +0.000 C 
ATOM     26  C   UNL     1     111.937 126.683 140.680  0.00  0.00    +0.000 C 
ATOM     27  C   UNL     1     112.826 126.993 141.013  0.00  0.00    +0.000 C 
ATOM     28  C   UNL     1     113.452 127.469 140.397  0.00  0.00    +0.000 C 
ATOM     29  O   UNL     1     113.187 127.635 139.442  0.00  0.00    +0.000 OA
ATOM     30  O   UNL     1     113.088 126.829 141.960  0.00  0.00    +0.000 OA
ATOM     31  O   UNL     1     111.311 126.207 141.296  0.00  0.00    +0.000 OA
ATOM     32  O   UNL     1     110.784 126.538 139.392  0.00  0.00    +0.000 OA
BRANCH  28  33
ATOM     33  C   UNL     1     114.347 127.783 140.728  0.00  0.00    +0.000 C 
ATOM     34  O   UNL     1     114.614 128.741 140.626  0.00  0.00    +0.000 OA
ENDBRANCH  28  33
ENDBRANCH  23  24
ENDBRANCH   2  23
TORSDOF 5
ENDMDL
MODEL 4
REMARK VINA RESULT:      -8.7      1.296      4.461
REMARK  Name = 
REMARK  5 active torsions:
REMARK  status: ('A' for Active; 'I' for Inactive)
REMARK    1  A    between atoms: O_2  and  C_3
REMARK    2  A    between atoms: C_5  and  C_10
REMARK    3  A    between atoms: C_11  and  O_23
REMARK    4  A    between atoms: O_23  and  C_24
REMARK    5  A    between atoms: C_28  and  C_30
REMARK                            x       y       z     vdW  Elec       q    Type
REMARK                         _______ _______ _______ _____ _____    ______ ____
ROOT
ATOM      1  C   UNL     1     112.296 128.164 135.880  0.00  0.00    +0.000 A 
ATOM      2  C   UNL     1     112.266 128.489 136.832  0.00  0.00    +0.000 A 
ATOM      3  C   UNL     1     112.923 129.183 137.142  0.00  0.00    +0.000 A 
ATOM      4  O   UNL     1     112.892 129.506 138.086  0.00  0.00    +0.000 OA
ATOM      5  C   UNL     1     113.605 129.550 136.512  0.00  0.00    +0.000 A 
ATOM      6  C   UNL     1     114.256 130.238 136.824  0.00  0.00    +0.000 A 
ATOM      7  C   UNL     1     114.939 130.605 136.194  0.00  0.00    +0.000 A 
ATOM      8  C   UNL     1     114.969 130.279 135.242  0.00  0.00    +0.000 A 
ATOM      9  C   UNL     1     114.317 129.590 134.931  0.00  0.00    +0.000 A 
ATOM     10  C   UNL     1     113.636 129.224 135.561  0.00  0.00    +0.000 A 
ATOM     11  O   UNL     1     112.984 128.534 135.249  0.00  0.00    +0.000 OA
ATOM     12  O   UNL     1     115.651 130.646 134.612  0.00  0.00    +0.000 OA
ATOM     13  O   UNL     1     114.226 130.561 137.768  0.00  0.00    +0.000 OA
ENDROOT
BRANCH   1  16
ATOM     14  C   UNL     1     111.062 125.846 135.586  0.00  0.00    +0.000 A 
ATOM     15  C   UNL     1     111.713 126.535 135.898  0.00  0.00    +0.000 A 
ATOM     16  C   UNL     1     111.645 127.475 135.569  0.00  0.00    +0.000 A 
ATOM     17  C   UNL     1     110.924 127.726 134.926  0.00  0.00    +0.000 A 
ATOM     18  C   UNL     1     110.272 127.037 134.614  0.00  0.00    +0.000 A 
ATOM     19  C   UNL     1     110.340 126.098 134.944  0.00  0.00    +0.000 A 
ATOM     20  O   UNL     1     109.688 125.409 134.632  0.00  0.00    +0.000 OA
BRANCH  14  22
ATOM     21  C   UNL     1     111.775 124.679 136.653  0.00  0.00    +0.000 C 
ATOM     22  O   UNL     1     111.130 124.907 135.916  0.00  0.00    +0.000 OA
ENDBRANCH  14  22
ENDBRANCH   1  16
BRANCH   2  23
ATOM     23  O   UNL     1     111.584 128.123 137.462  0.00  0.00    +0.000 OA
BRANCH  23  24
ATOM     24  C   UNL     1     110.835 128.702 137.777  0.00  0.00    +0.000 C 
ATOM     25  C   UNL     1     110.323 128.453 138.598  0.00  0.00    +0.000 C 
ATOM     26  C   UNL     1     109.569 129.037 138.916  0.00  0.00    +0.000 C 
ATOM     27  C   UNL     1     109.332 129.865 138.411  0.00  0.00    +0.000 C 
ATOM     28  C   UNL     1     109.845 130.114 137.591  0.00  0.00    +0.000 C 
ATOM     29  O   UNL     1     110.599 129.531 137.273  0.00  0.00    +0.000 OA
ATOM     30  O   UNL     1     108.584 130.444 138.726  0.00  0.00    +0.000 OA
ATOM     31  O   UNL     1     109.057 128.788 139.736  0.00  0.00    +0.000 OA
ATOM     32  O   UNL     1     110.560 127.625 139.102  0.00  0.00    +0.000 OA
BRANCH  28  33
ATOM     33  C   UNL     1     109.609 130.947 137.080  0.00  0.00    +0.000 C 
ATOM     34  O   UNL     1     110.162 131.233 136.299  0.00  0.00    +0.000 OA
ENDBRANCH  28  33
ENDBRANCH  23  24
ENDBRANCH   2  23
TORSDOF 5
ENDMDL
MODEL 5
REMARK VINA RESULT:      -8.4      1.505      2.639
REMARK  Name = 
REMARK  5 active torsions:
REMARK  status: ('A' for Active; 'I' for Inactive)
REMARK    1  A    between atoms: O_2  and  C_3
REMARK    2  A    between atoms: C_5  and  C_10
REMARK    3  A    between atoms: C_11  and  O_23
REMARK    4  A    between atoms: O_23  and  C_24
REMARK    5  A    between atoms: C_28  and  C_30
REMARK                            x       y       z     vdW  Elec       q    Type
REMARK                         _______ _______ _______ _____ _____    ______ ____
ROOT
ATOM      1  C   UNL     1     112.485 127.593 138.365  0.00  0.00    +0.000 A 
ATOM      2  C   UNL     1     111.674 127.313 137.839  0.00  0.00    +0.000 A 
ATOM      3  C   UNL     1     111.698 126.467 137.299  0.00  0.00    +0.000 A 
ATOM      4  O   UNL     1     110.894 126.189 136.777  0.00  0.00    +0.000 OA
ATOM      5  C   UNL     1     112.522 125.902 137.282  0.00  0.00    +0.000 A 
ATOM      6  C   UNL     1     112.543 125.062 136.745  0.00  0.00    +0.000 A 
ATOM      7  C   UNL     1     113.367 124.497 136.728  0.00  0.00    +0.000 A 
ATOM      8  C   UNL     1     114.177 124.777 137.255  0.00  0.00    +0.000 A 
ATOM      9  C   UNL     1     114.156 125.618 137.792  0.00  0.00    +0.000 A 
ATOM     10  C   UNL     1     113.333 126.182 137.809  0.00  0.00    +0.000 A 
ATOM     11  O   UNL     1     113.311 127.023 138.346  0.00  0.00    +0.000 OA
ATOM     12  O   UNL     1     115.001 124.213 137.238  0.00  0.00    +0.000 OA
ATOM     13  O   UNL     1     111.739 124.784 136.223  0.00  0.00    +0.000 OA
ENDROOT
BRANCH   1  16
ATOM     14  C   UNL     1     112.893 130.098 139.100  0.00  0.00    +0.000 A 
ATOM     15  C   UNL     1     112.914 129.257 138.563  0.00  0.00    +0.000 A 
ATOM     16  C   UNL     1     112.464 128.433 138.903  0.00  0.00    +0.000 A 
ATOM     17  C   UNL     1     111.991 128.451 139.782  0.00  0.00    +0.000 A 
ATOM     18  C   UNL     1     111.970 129.292 140.320  0.00  0.00    +0.000 A 
ATOM     19  C   UNL     1     112.421 130.115 139.979  0.00  0.00    +0.000 A 
ATOM     20  O   UNL     1     112.399 130.956 140.518  0.00  0.00    +0.000 OA
BRANCH  14  22
ATOM     21  C   UNL     1     113.641 130.971 137.801  0.00  0.00    +0.000 C 
ATOM     22  O   UNL     1     113.343 130.921 138.761  0.00  0.00    +0.000 OA
ENDBRANCH  14  22
ENDBRANCH   1  16
BRANCH   2  23
ATOM     23  O   UNL     1     110.851 127.877 137.855  0.00  0.00    +0.000 OA
BRANCH  23  24
ATOM     24  C   UNL     1     110.588 128.399 137.046  0.00  0.00    +0.000 C 
ATOM     25  C   UNL     1     109.657 128.748 136.958  0.00  0.00    +0.000 C 
ATOM     26  C   UNL     1     109.392 129.273 136.143  0.00  0.00    +0.000 C 
ATOM     27  C   UNL     1     110.061 129.446 135.422  0.00  0.00    +0.000 C 
ATOM     28  C   UNL     1     110.993 129.097 135.510  0.00  0.00    +0.000 C 
ATOM     29  O   UNL     1     111.257 128.571 136.325  0.00  0.00    +0.000 OA
ATOM     30  O   UNL     1     109.799 129.967 134.613  0.00  0.00    +0.000 OA
ATOM     31  O   UNL     1     108.461 129.622 136.055  0.00  0.00    +0.000 OA
ATOM     32  O   UNL     1     108.988 128.575 137.679  0.00  0.00    +0.000 OA
BRANCH  28  33
ATOM     33  C   UNL     1     111.668 129.268 134.786  0.00  0.00    +0.000 C 
ATOM     34  O   UNL     1     112.619 128.983 134.906  0.00  0.00    +0.000 OA
ENDBRANCH  28  33
ENDBRANCH  23  24
ENDBRANCH   2  23
TORSDOF 5
ENDMDL
MODEL 6
REMARK VINA RESULT:      -8.2      1.808      4.910
REMARK  Name = 
REMARK  5 active torsions:
REMARK  status: ('A' for Active; 'I' for Inactive)
REMARK    1  A    between atoms: O_2  and  C_3
REMARK    2  A    between atoms: C_5  and  C_10
REMARK    3  A    between atoms: C_11  and  O_23
REMARK    4  A    between atoms: O_23  and  C_24
REMARK    5  A    between atoms: C_28  and  C_30
REMARK                            x       y       z     vdW  Elec       q    Type
REMARK                         _______ _______ _______ _____ _____    ______ ____
ROOT
ATOM      1  C   UNL     1     111.684 127.481 136.729  0.00  0.00    +0.000 A 
ATOM      2  C   UNL     1     111.277 127.607 137.640  0.00  0.00    +0.000 A 
ATOM      3  C   UNL     1     110.501 128.234 137.756  0.00  0.00    +0.000 A 
ATOM      4  O   UNL     1     110.097 128.359 138.660  0.00  0.00    +0.000 OA
ATOM      5  C   UNL     1     110.134 128.734 136.973  0.00  0.00    +0.000 A 
ATOM      6  C   UNL     1     109.364 129.356 137.092  0.00  0.00    +0.000 A 
ATOM      7  C   UNL     1     108.997 129.855 136.309  0.00  0.00    +0.000 A 
ATOM      8  C   UNL     1     109.405 129.729 135.398  0.00  0.00    +0.000 A 
ATOM      9  C   UNL     1     110.176 129.106 135.279  0.00  0.00    +0.000 A 
ATOM     10  C   UNL     1     110.542 128.608 136.062  0.00  0.00    +0.000 A 
ATOM     11  O   UNL     1     111.313 127.984 135.943  0.00  0.00    +0.000 OA
ATOM     12  O   UNL     1     109.038 130.228 134.615  0.00  0.00    +0.000 OA
ATOM     13  O   UNL     1     108.960 129.481 137.996  0.00  0.00    +0.000 OA
ENDROOT
BRANCH   1  16
ATOM     14  C   UNL     1     113.076 125.247 136.489  0.00  0.00    +0.000 A 
ATOM     15  C   UNL     1     112.305 125.870 136.608  0.00  0.00    +0.000 A 
ATOM     16  C   UNL     1     112.455 126.857 136.610  0.00  0.00    +0.000 A 
ATOM     17  C   UNL     1     113.376 127.222 136.493  0.00  0.00    +0.000 A 
ATOM     18  C   UNL     1     114.148 126.599 136.374  0.00  0.00    +0.000 A 
ATOM     19  C   UNL     1     113.998 125.611 136.372  0.00  0.00    +0.000 A 
ATOM     20  O   UNL     1     114.769 124.989 136.253  0.00  0.00    +0.000 OA
BRANCH  14  22
ATOM     21  C   UNL     1     112.046 123.885 136.798  0.00  0.00    +0.000 C 
ATOM     22  O   UNL     1     112.926 124.260 136.487  0.00  0.00    +0.000 OA
ENDBRANCH  14  22
ENDBRANCH   1  16
BRANCH   2  23
ATOM     23  O   UNL     1     111.643 127.108 138.423  0.00  0.00    +0.000 OA
BRANCH  23  24
ATOM     24  C   UNL     1     112.187 127.588 139.109  0.00  0.00    +0.000 C 
ATOM     25  C   UNL     1     112.420 127.135 139.967  0.00  0.00    +0.000 C 
ATOM     26  C   UNL     1     112.968 127.618 140.658  0.00  0.00    +0.000 C 
ATOM     27  C   UNL     1     113.279 128.551 140.484  0.00  0.00    +0.000 C 
ATOM     28  C   UNL     1     113.046 129.004 139.626  0.00  0.00    +0.000 C 
ATOM     29  O   UNL     1     112.498 128.521 138.935  0.00  0.00    +0.000 OA
ATOM     30  O   UNL     1     113.822 129.030 141.169  0.00  0.00    +0.000 OA
ATOM     31  O   UNL     1     113.201 127.165 141.517  0.00  0.00    +0.000 OA
ATOM     32  O   UNL     1     112.109 126.202 140.141  0.00  0.00    +0.000 OA
BRANCH  28  33
ATOM     33  C   UNL     1     113.357 129.943 139.448  0.00  0.00    +0.000 C 
ATOM     34  O   UNL     1     112.852 130.530 138.816  0.00  0.00    +0.000 OA
ENDBRANCH  28  33
ENDBRANCH  23  24
ENDBRANCH   2  23
TORSDOF 5
ENDMDL
