MODEL 1
REMARK VINA RESULT:     -10.7      0.000      0.000
REMARK  Name = 44258515
REMARK  5 active torsions:
REMARK  status: ('A' for Active; 'I' for Inactive)
REMARK    1  A    between atoms: O_1  and  C_16
REMARK    2  A    between atoms: O_1  and  C_18
REMARK    3  A    between atoms: O_4  and  C_20
REMARK    4  A    between atoms: O_4  and  C_26
REMARK    5  A    between atoms: C_33  and  C_35
REMARK                            x       y       z     vdW  Elec       q    Type
REMARK                         _______ _______ _______ _____ _____    ______ ____
ROOT
ATOM      1  O   UNL     1     112.367 126.997 136.734  0.00  0.00    +0.000 OA
ATOM      2  O   UNL     1     112.840 130.262 136.252  0.00  0.00    +0.000 OA
ATOM      3  O   UNL     1     114.039 129.195 135.868  0.00  0.00    +0.000 OA
ATOM      4  O   UNL     1     114.553 127.850 135.783  0.00  0.00    +0.000 OA
ATOM      5  C   UNL     1     112.012 129.179 136.680  0.00  0.00    +0.000 A 
ATOM      6  C   UNL     1     112.726 129.454 136.370  0.00  0.00    +0.000 A 
ATOM      7  C   UNL     1     111.898 128.370 136.799  0.00  0.00    +0.000 A 
ATOM      8  C   UNL     1     112.497 127.837 136.606  0.00  0.00    +0.000 A 
ATOM      9  C   UNL     1     113.325 128.920 136.178  0.00  0.00    +0.000 A 
ATOM     10  C   UNL     1     113.211 128.112 136.296  0.00  0.00    +0.000 A 
ATOM     11  C   UNL     1     113.843 127.566 136.092  0.00  0.00    +0.000 A 
ATOM     12  C   UNL     1     112.987 126.436 136.536  0.00  0.00    +0.000 A 
ATOM     13  C   UNL     1     113.730 126.723 136.213  0.00  0.00    +0.000 A 
ENDROOT
BRANCH  12  16
ATOM     14  O   UNL     1     111.463 124.062 136.078  0.00  0.00    +0.000 OA
ATOM     15  O   UNL     1     112.519 123.204 137.012  0.00  0.00    +0.000 OA
ATOM     16  C   UNL     1     112.870 125.629 136.655  0.00  0.00    +0.000 A 
ATOM     17  C   UNL     1     112.225 125.249 136.307  0.00  0.00    +0.000 A 
ATOM     18  C   UNL     1     113.397 125.199 137.122  0.00  0.00    +0.000 A 
ATOM     19  C   UNL     1     112.108 124.441 136.426  0.00  0.00    +0.000 A 
ATOM     20  C   UNL     1     113.280 124.391 137.241  0.00  0.00    +0.000 A 
ATOM     21  C   UNL     1     112.636 124.012 136.893  0.00  0.00    +0.000 A 
ENDBRANCH  12  16
BRANCH   5  22
ATOM     22  O   UNL     1     111.413 129.712 136.872  0.00  0.00    +0.000 OA
BRANCH  22  28
ATOM     23  O   UNL     1     110.556 129.352 135.787  0.00  0.00    +0.000 OA
ATOM     24  O   UNL     1     108.576 129.814 137.198  0.00  0.00    +0.000 OA
ATOM     25  O   UNL     1     108.379 129.300 135.642  0.00  0.00    +0.000 OA
ATOM     26  C   UNL     1     109.994 129.763 137.036  0.00  0.00    +0.000 C 
ATOM     27  C   UNL     1     109.236 129.660 136.728  0.00  0.00    +0.000 C 
ATOM     28  C   UNL     1     110.655 129.609 136.565  0.00  0.00    +0.000 C 
ATOM     29  C   UNL     1     109.138 129.403 135.950  0.00  0.00    +0.000 C 
ATOM     30  C   UNL     1     109.798 129.249 135.480  0.00  0.00    +0.000 C 
BRANCH  26  31
ATOM     31  O   UNL     1     110.093 130.020 137.813  0.00  0.00    +0.000 OA
BRANCH  31  36
ATOM     32  O   UNL     1     110.020 131.378 137.374  0.00  0.00    +0.000 OA
ATOM     33  O   UNL     1     110.207 130.533 139.377  0.00  0.00    +0.000 OA
ATOM     34  O   UNL     1     110.190 132.146 139.721  0.00  0.00    +0.000 OA
ATOM     35  O   UNL     1     110.059 133.248 138.500  0.00  0.00    +0.000 OA
ATOM     36  C   UNL     1     110.085 130.828 137.985  0.00  0.00    +0.000 C 
ATOM     37  C   UNL     1     110.142 131.083 138.767  0.00  0.00    +0.000 C 
ATOM     38  C   UNL     1     110.133 131.890 138.939  0.00  0.00    +0.000 C 
ATOM     39  C   UNL     1     110.068 132.441 138.328  0.00  0.00    +0.000 C 
ATOM     40  C   UNL     1     110.011 132.185 137.546  0.00  0.00    +0.000 C 
ENDBRANCH  31  36
ENDBRANCH  26  31
ENDBRANCH  22  28
ENDBRANCH   5  22
TORSDOF 5
ENDMDL
MODEL 2
REMARK VINA RESULT:     -10.7      1.132      6.224
REMARK  Name = 44258515
REMARK  5 active torsions:
REMARK  status: ('A' for Active; 'I' for Inactive)
REMARK    1  A    between atoms: O_1  and  C_16
REMARK    2  A    between atoms: O_1  and  C_18
REMARK    3  A    between atoms: O_4  and  C_20
REMARK    4  A    between atoms: O_4  and  C_26
REMARK    5  A    between atoms: C_33  and  C_35
REMARK                            x       y       z     vdW  Elec       q    Type
REMARK                         _______ _______ _______ _____ _____    ______ ____
ROOT
ATOM      1  O   UNL     1     110.107 130.338 136.818  0.00  0.00    +0.000 OA
ATOM      2  O   UNL     1     109.185 127.321 135.740  0.00  0.00    +0.000 OA
ATOM      3  O   UNL     1     108.112 128.574 135.684  0.00  0.00    +0.000 OA
ATOM      4  O   UNL     1     107.772 129.957 135.915  0.00  0.00    +0.000 OA
ATOM      5  C   UNL     1     110.171 128.189 136.300  0.00  0.00    +0.000 A 
ATOM      6  C   UNL     1     109.410 128.068 136.006  0.00  0.00    +0.000 A 
ATOM      7  C   UNL     1     110.397 128.938 136.566  0.00  0.00    +0.000 A 
ATOM      8  C   UNL     1     109.860 129.564 136.538  0.00  0.00    +0.000 A 
ATOM      9  C   UNL     1     108.874 128.695 135.978  0.00  0.00    +0.000 A 
ATOM     10  C   UNL     1     109.099 129.443 136.244  0.00  0.00    +0.000 A 
ATOM     11  C   UNL     1     108.532 130.087 136.210  0.00  0.00    +0.000 A 
ATOM     12  C   UNL     1     109.553 130.994 136.792  0.00  0.00    +0.000 A 
ATOM     13  C   UNL     1     108.760 130.868 136.486  0.00  0.00    +0.000 A 
ENDROOT
BRANCH  12  16
ATOM     14  O   UNL     1     110.045 132.810 138.944  0.00  0.00    +0.000 OA
ATOM     15  O   UNL     1     110.465 133.981 137.860  0.00  0.00    +0.000 OA
ATOM     16  C   UNL     1     109.781 131.741 137.058  0.00  0.00    +0.000 A 
ATOM     17  C   UNL     1     109.799 131.902 137.867  0.00  0.00    +0.000 A 
ATOM     18  C   UNL     1     109.991 132.327 136.517  0.00  0.00    +0.000 A 
ATOM     19  C   UNL     1     110.027 132.649 138.135  0.00  0.00    +0.000 A 
ATOM     20  C   UNL     1     110.219 133.073 136.784  0.00  0.00    +0.000 A 
ATOM     21  C   UNL     1     110.237 133.235 137.593  0.00  0.00    +0.000 A 
ENDBRANCH  12  16
BRANCH   5  22
ATOM     22  O   UNL     1     110.708 127.563 136.328  0.00  0.00    +0.000 OA
BRANCH  22  28
ATOM     23  O   UNL     1     111.738 128.225 135.592  0.00  0.00    +0.000 OA
ATOM     24  O   UNL     1     113.451 127.055 136.942  0.00  0.00    +0.000 OA
ATOM     25  O   UNL     1     113.912 128.107 135.756  0.00  0.00    +0.000 OA
ATOM     26  C   UNL     1     112.079 127.309 136.635  0.00  0.00    +0.000 C 
ATOM     27  C   UNL     1     112.880 127.445 136.492  0.00  0.00    +0.000 C 
ATOM     28  C   UNL     1     111.508 127.699 136.185  0.00  0.00    +0.000 C 
ATOM     29  C   UNL     1     113.110 127.971 135.899  0.00  0.00    +0.000 C 
ATOM     30  C   UNL     1     112.539 128.360 135.450  0.00  0.00    +0.000 C 
BRANCH  26  31
ATOM     31  O   UNL     1     111.849 126.784 137.228  0.00  0.00    +0.000 OA
BRANCH  31  36
ATOM     32  O   UNL     1     112.004 125.691 136.319  0.00  0.00    +0.000 OA
ATOM     33  O   UNL     1     111.428 125.727 138.423  0.00  0.00    +0.000 OA
ATOM     34  O   UNL     1     111.373 124.108 138.113  0.00  0.00    +0.000 OA
ATOM     35  O   UNL     1     111.739 123.544 136.606  0.00  0.00    +0.000 OA
ATOM     36  C   UNL     1     111.821 125.973 137.072  0.00  0.00    +0.000 C 
ATOM     37  C   UNL     1     111.611 125.446 137.671  0.00  0.00    +0.000 C 
ATOM     38  C   UNL     1     111.584 124.635 137.515  0.00  0.00    +0.000 C 
ATOM     39  C   UNL     1     111.766 124.353 136.761  0.00  0.00    +0.000 C 
ATOM     40  C   UNL     1     111.977 124.882 136.164  0.00  0.00    +0.000 C 
ENDBRANCH  31  36
ENDBRANCH  26  31
ENDBRANCH  22  28
ENDBRANCH   5  22
TORSDOF 5
ENDMDL
MODEL 3
REMARK VINA RESULT:     -10.6      3.251      6.160
REMARK  Name = 44258515
REMARK  5 active torsions:
REMARK  status: ('A' for Active; 'I' for Inactive)
REMARK    1  A    between atoms: O_1  and  C_16
REMARK    2  A    between atoms: O_1  and  C_18
REMARK    3  A    between atoms: O_4  and  C_20
REMARK    4  A    between atoms: O_4  and  C_26
REMARK    5  A    between atoms: C_33  and  C_35
REMARK                            x       y       z     vdW  Elec       q    Type
REMARK                         _______ _______ _______ _____ _____    ______ ____
ROOT
ATOM      1  O   UNL     1     113.365 128.525 139.962  0.00  0.00    +0.000 OA
ATOM      2  O   UNL     1     111.511 125.775 139.618  0.00  0.00    +0.000 OA
ATOM      3  O   UNL     1     111.670 126.475 141.104  0.00  0.00    +0.000 OA
ATOM      4  O   UNL     1     112.200 127.504 141.965  0.00  0.00    +0.000 OA
ATOM      5  C   UNL     1     112.347 126.785 139.051  0.00  0.00    +0.000 A 
ATOM      6  C   UNL     1     111.969 126.455 139.706  0.00  0.00    +0.000 A 
ATOM      7  C   UNL     1     112.805 127.466 139.140  0.00  0.00    +0.000 A 
ATOM      8  C   UNL     1     112.885 127.816 139.882  0.00  0.00    +0.000 A 
ATOM      9  C   UNL     1     112.049 126.806 140.449  0.00  0.00    +0.000 A 
ATOM     10  C   UNL     1     112.506 127.485 140.537  0.00  0.00    +0.000 A 
ATOM     11  C   UNL     1     112.582 127.841 141.316  0.00  0.00    +0.000 A 
ATOM     12  C   UNL     1     113.451 128.894 140.733  0.00  0.00    +0.000 A 
ATOM     13  C   UNL     1     113.057 128.550 141.414  0.00  0.00    +0.000 A 
ENDROOT
BRANCH  12  16
ATOM     14  O   UNL     1     113.775 131.550 141.737  0.00  0.00    +0.000 OA
ATOM     15  O   UNL     1     115.285 131.616 141.075  0.00  0.00    +0.000 OA
ATOM     16  C   UNL     1     113.910 129.574 140.818  0.00  0.00    +0.000 A 
ATOM     17  C   UNL     1     113.613 130.222 141.234  0.00  0.00    +0.000 A 
ATOM     18  C   UNL     1     114.664 129.608 140.487  0.00  0.00    +0.000 A 
ATOM     19  C   UNL     1     114.072 130.903 141.320  0.00  0.00    +0.000 A 
ATOM     20  C   UNL     1     115.123 130.288 140.573  0.00  0.00    +0.000 A 
ATOM     21  C   UNL     1     114.827 130.936 140.989  0.00  0.00    +0.000 A 
ENDBRANCH  12  16
BRANCH   5  22
ATOM     22  O   UNL     1     112.268 126.435 138.309  0.00  0.00    +0.000 OA
BRANCH  22  28
ATOM     23  O   UNL     1     113.498 125.710 138.322  0.00  0.00    +0.000 OA
ATOM     24  O   UNL     1     113.798 126.175 135.910  0.00  0.00    +0.000 OA
ATOM     25  O   UNL     1     114.929 125.294 136.727  0.00  0.00    +0.000 OA
ATOM     26  C   UNL     1     113.033 126.306 137.109  0.00  0.00    +0.000 C 
ATOM     27  C   UNL     1     113.698 126.020 136.714  0.00  0.00    +0.000 C 
ATOM     28  C   UNL     1     112.932 126.150 137.914  0.00  0.00    +0.000 C 
ATOM     29  C   UNL     1     114.263 125.580 137.123  0.00  0.00    +0.000 C 
ATOM     30  C   UNL     1     114.163 125.425 137.926  0.00  0.00    +0.000 C 
BRANCH  26  31
ATOM     31  O   UNL     1     112.467 126.746 136.701  0.00  0.00    +0.000 OA
BRANCH  31  36
ATOM     32  O   UNL     1     111.786 125.544 136.333  0.00  0.00    +0.000 OA
ATOM     33  O   UNL     1     111.474 127.611 135.707  0.00  0.00    +0.000 OA
ATOM     34  O   UNL     1     110.297 126.843 134.843  0.00  0.00    +0.000 OA
ATOM     35  O   UNL     1     110.113 125.208 134.973  0.00  0.00    +0.000 OA
ATOM     36  C   UNL     1     111.878 126.361 136.269  0.00  0.00    +0.000 C 
ATOM     37  C   UNL     1     111.382 126.794 135.772  0.00  0.00    +0.000 C 
ATOM     38  C   UNL     1     110.793 126.409 135.340  0.00  0.00    +0.000 C 
ATOM     39  C   UNL     1     110.701 125.592 135.404  0.00  0.00    +0.000 C 
ATOM     40  C   UNL     1     111.198 125.160 135.902  0.00  0.00    +0.000 C 
ENDBRANCH  31  36
ENDBRANCH  26  31
ENDBRANCH  22  28
ENDBRANCH   5  22
TORSDOF 5
ENDMDL
MODEL 4
REMARK VINA RESULT:     -10.4      1.298      2.517
REMARK  Name = 44258515
REMARK  5 active torsions:
REMARK  status: ('A' for Active; 'I' for Inactive)
REMARK    1  A    between atoms: O_1  and  C_16
REMARK    2  A    between atoms: O_1  and  C_18
REMARK    3  A    between atoms: O_4  and  C_20
REMARK    4  A    between atoms: O_4  and  C_26
REMARK    5  A    between atoms: C_33  and  C_35
REMARK                            x       y       z     vdW  Elec       q    Type
REMARK                         _______ _______ _______ _____ _____    ______ ____
ROOT
ATOM      1  O   UNL     1     111.689 126.637 136.401  0.00  0.00    +0.000 OA
ATOM      2  O   UNL     1     110.037 129.268 135.190  0.00  0.00    +0.000 OA
ATOM      3  O   UNL     1     109.701 127.756 134.619  0.00  0.00    +0.000 OA
ATOM      4  O   UNL     1     109.923 126.331 134.612  0.00  0.00    +0.000 OA
ATOM      5  C   UNL     1     111.018 128.718 136.070  0.00  0.00    +0.000 A 
ATOM      6  C   UNL     1     110.443 128.615 135.488  0.00  0.00    +0.000 A 
ATOM      7  C   UNL     1     111.426 128.065 136.368  0.00  0.00    +0.000 A 
ATOM      8  C   UNL     1     111.258 127.310 136.083  0.00  0.00    +0.000 A 
ATOM      9  C   UNL     1     110.276 127.859 135.203  0.00  0.00    +0.000 A 
ATOM     10  C   UNL     1     110.683 127.207 135.500  0.00  0.00    +0.000 A 
ATOM     11  C   UNL     1     110.500 126.424 135.195  0.00  0.00    +0.000 A 
ATOM     12  C   UNL     1     111.519 125.848 136.108  0.00  0.00    +0.000 A 
ATOM     13  C   UNL     1     110.920 125.741 135.501  0.00  0.00    +0.000 A 
ENDROOT
BRANCH  12  16
ATOM     14  O   UNL     1     111.559 123.456 137.672  0.00  0.00    +0.000 OA
ATOM     15  O   UNL     1     113.154 123.243 137.305  0.00  0.00    +0.000 OA
ATOM     16  C   UNL     1     111.928 125.197 136.407  0.00  0.00    +0.000 A 
ATOM     17  C   UNL     1     111.539 124.652 136.890  0.00  0.00    +0.000 A 
ATOM     18  C   UNL     1     112.725 125.090 136.224  0.00  0.00    +0.000 A 
ATOM     19  C   UNL     1     111.947 124.000 137.189  0.00  0.00    +0.000 A 
ATOM     20  C   UNL     1     113.133 124.439 136.524  0.00  0.00    +0.000 A 
ATOM     21  C   UNL     1     112.745 123.894 137.006  0.00  0.00    +0.000 A 
ENDBRANCH  12  16
BRANCH   5  22
ATOM     22  O   UNL     1     111.186 129.474 136.356  0.00  0.00    +0.000 OA
BRANCH  22  28
ATOM     23  O   UNL     1     112.473 129.567 135.742  0.00  0.00    +0.000 OA
ATOM     24  O   UNL     1     113.279 130.935 137.640  0.00  0.00    +0.000 OA
ATOM     25  O   UNL     1     114.298 130.572 136.393  0.00  0.00    +0.000 OA
ATOM     26  C   UNL     1     112.232 130.205 136.998  0.00  0.00    +0.000 C 
ATOM     27  C   UNL     1     113.010 130.479 137.008  0.00  0.00    +0.000 C 
ATOM     28  C   UNL     1     111.963 129.748 136.365  0.00  0.00    +0.000 C 
ATOM     29  C   UNL     1     113.519 130.297 136.384  0.00  0.00    +0.000 C 
ATOM     30  C   UNL     1     113.251 129.841 135.752  0.00  0.00    +0.000 C 
BRANCH  26  31
ATOM     31  O   UNL     1     111.723 130.386 137.621  0.00  0.00    +0.000 OA
BRANCH  31  36
ATOM     32  O   UNL     1     111.384 131.622 136.988  0.00  0.00    +0.000 OA
ATOM     33  O   UNL     1     110.831 130.819 138.940  0.00  0.00    +0.000 OA
ATOM     34  O   UNL     1     110.046 132.269 138.967  0.00  0.00    +0.000 OA
ATOM     35  O   UNL     1     110.154 133.289 137.674  0.00  0.00    +0.000 OA
ATOM     36  C   UNL     1     111.330 131.112 137.634  0.00  0.00    +0.000 C 
ATOM     37  C   UNL     1     110.885 131.328 138.294  0.00  0.00    +0.000 C 
ATOM     38  C   UNL     1     110.492 132.054 138.307  0.00  0.00    +0.000 C 
ATOM     39  C   UNL     1     110.546 132.564 137.661  0.00  0.00    +0.000 C 
ATOM     40  C   UNL     1     110.992 132.347 137.001  0.00  0.00    +0.000 C 
ENDBRANCH  31  36
ENDBRANCH  26  31
ENDBRANCH  22  28
ENDBRANCH   5  22
TORSDOF 5
ENDMDL
MODEL 5
REMARK VINA RESULT:     -10.4      8.288     10.163
REMARK  Name = 44258515
REMARK  5 active torsions:
REMARK  status: ('A' for Active; 'I' for Inactive)
REMARK    1  A    between atoms: O_1  and  C_16
REMARK    2  A    between atoms: O_1  and  C_18
REMARK    3  A    between atoms: O_4  and  C_20
REMARK    4  A    between atoms: O_4  and  C_26
REMARK    5  A    between atoms: C_33  and  C_35
REMARK                            x       y       z     vdW  Elec       q    Type
REMARK                         _______ _______ _______ _____ _____    ______ ____
ROOT
ATOM      1  O   UNL     1     106.378 125.740 144.945  0.00  0.00    +0.000 OA
ATOM      2  O   UNL     1     105.326 127.227 142.152  0.00  0.00    +0.000 OA
ATOM      3  O   UNL     1     105.238 128.031 143.591  0.00  0.00    +0.000 OA
ATOM      4  O   UNL     1     105.445 128.093 145.017  0.00  0.00    +0.000 OA
ATOM      5  C   UNL     1     105.889 126.095 142.818  0.00  0.00    +0.000 A 
ATOM      6  C   UNL     1     105.585 126.862 142.844  0.00  0.00    +0.000 A 
ATOM      7  C   UNL     1     106.148 125.729 143.511  0.00  0.00    +0.000 A 
ATOM      8  C   UNL     1     106.104 126.131 144.230  0.00  0.00    +0.000 A 
ATOM      9  C   UNL     1     105.542 127.263 143.564  0.00  0.00    +0.000 A 
ATOM     10  C   UNL     1     105.801 126.898 144.257  0.00  0.00    +0.000 A 
ATOM     11  C   UNL     1     105.750 127.327 145.000  0.00  0.00    +0.000 A 
ATOM     12  C   UNL     1     106.334 126.153 145.697  0.00  0.00    +0.000 A 
ATOM     13  C   UNL     1     106.019 126.952 145.725  0.00  0.00    +0.000 A 
ENDROOT
BRANCH  12  16
ATOM     14  O   UNL     1     105.938 124.239 147.782  0.00  0.00    +0.000 OA
ATOM     15  O   UNL     1     107.375 124.682 148.462  0.00  0.00    +0.000 OA
ATOM     16  C   UNL     1     106.595 125.786 146.388  0.00  0.00    +0.000 A 
ATOM     17  C   UNL     1     106.137 125.196 146.739  0.00  0.00    +0.000 A 
ATOM     18  C   UNL     1     107.313 126.007 146.728  0.00  0.00    +0.000 A 
ATOM     19  C   UNL     1     106.396 124.828 147.431  0.00  0.00    +0.000 A 
ATOM     20  C   UNL     1     107.573 125.639 147.420  0.00  0.00    +0.000 A 
ATOM     21  C   UNL     1     107.115 125.050 147.771  0.00  0.00    +0.000 A 
ENDBRANCH  12  16
BRANCH   5  22
ATOM     22  O   UNL     1     105.933 125.693 142.099  0.00  0.00    +0.000 OA
BRANCH  22  28
ATOM     23  O   UNL     1     107.328 125.904 141.876  0.00  0.00    +0.000 OA
ATOM     24  O   UNL     1     107.509 123.648 140.877  0.00  0.00    +0.000 OA
ATOM     25  O   UNL     1     108.845 124.611 140.987  0.00  0.00    +0.000 OA
ATOM     26  C   UNL     1     106.721 124.670 141.488  0.00  0.00    +0.000 C 
ATOM     27  C   UNL     1     107.449 124.399 141.210  0.00  0.00    +0.000 C 
ATOM     28  C   UNL     1     106.660 125.423 141.821  0.00  0.00    +0.000 C 
ATOM     29  C   UNL     1     108.116 124.882 141.265  0.00  0.00    +0.000 C 
ATOM     30  C   UNL     1     108.056 125.633 141.598  0.00  0.00    +0.000 C 
BRANCH  26  31
ATOM     31  O   UNL     1     106.053 124.189 141.433  0.00  0.00    +0.000 OA
BRANCH  31  36
ATOM     32  O   UNL     1     105.821 124.656 140.102  0.00  0.00    +0.000 OA
ATOM     33  O   UNL     1     104.835 123.090 141.258  0.00  0.00    +0.000 OA
ATOM     34  O   UNL     1     103.994 123.006 139.842  0.00  0.00    +0.000 OA
ATOM     35  O   UNL     1     104.371 124.023 138.598  0.00  0.00    +0.000 OA
ATOM     36  C   UNL     1     105.632 124.148 140.723  0.00  0.00    +0.000 C 
ATOM     37  C   UNL     1     105.024 123.598 140.637  0.00  0.00    +0.000 C 
ATOM     38  C   UNL     1     104.603 123.556 139.928  0.00  0.00    +0.000 C 
ATOM     39  C   UNL     1     104.791 124.065 139.306  0.00  0.00    +0.000 C 
ATOM     40  C   UNL     1     105.400 124.614 139.394  0.00  0.00    +0.000 C 
ENDBRANCH  31  36
ENDBRANCH  26  31
ENDBRANCH  22  28
ENDBRANCH   5  22
TORSDOF 5
ENDMDL
MODEL 6
REMARK VINA RESULT:     -10.4      1.161      2.062
REMARK  Name = 44258515
REMARK  5 active torsions:
REMARK  status: ('A' for Active; 'I' for Inactive)
REMARK    1  A    between atoms: O_1  and  C_16
REMARK    2  A    between atoms: O_1  and  C_18
REMARK    3  A    between atoms: O_4  and  C_20
REMARK    4  A    between atoms: O_4  and  C_26
REMARK    5  A    between atoms: C_33  and  C_35
REMARK                            x       y       z     vdW  Elec       q    Type
REMARK                         _______ _______ _______ _____ _____    ______ ____
ROOT
ATOM      1  O   UNL     1     112.758 127.121 136.805  0.00  0.00    +0.000 OA
ATOM      2  O   UNL     1     112.261 130.298 135.922  0.00  0.00    +0.000 OA
ATOM      3  O   UNL     1     113.659 129.536 135.488  0.00  0.00    +0.000 OA
ATOM      4  O   UNL     1     114.511 128.373 135.474  0.00  0.00    +0.000 OA
ATOM      5  C   UNL     1     111.813 129.107 136.572  0.00  0.00    +0.000 A 
ATOM      6  C   UNL     1     112.386 129.512 136.139  0.00  0.00    +0.000 A 
ATOM      7  C   UNL     1     111.939 128.321 136.790  0.00  0.00    +0.000 A 
ATOM      8  C   UNL     1     112.638 127.940 136.573  0.00  0.00    +0.000 A 
ATOM      9  C   UNL     1     113.086 129.131 135.923  0.00  0.00    +0.000 A 
ATOM     10  C   UNL     1     113.211 128.345 136.139  0.00  0.00    +0.000 A 
ATOM     11  C   UNL     1     113.944 127.959 135.908  0.00  0.00    +0.000 A 
ATOM     12  C   UNL     1     113.484 126.719 136.582  0.00  0.00    +0.000 A 
ATOM     13  C   UNL     1     114.081 127.141 136.131  0.00  0.00    +0.000 A 
ENDROOT
BRANCH  12  16
ATOM     14  O   UNL     1     112.773 123.957 136.392  0.00  0.00    +0.000 OA
ATOM     15  O   UNL     1     113.976 123.575 137.455  0.00  0.00    +0.000 OA
ATOM     16  C   UNL     1     113.607 125.933 136.800  0.00  0.00    +0.000 A 
ATOM     17  C   UNL     1     113.129 125.339 136.487  0.00  0.00    +0.000 A 
ATOM     18  C   UNL     1     114.208 125.742 137.332  0.00  0.00    +0.000 A 
ATOM     19  C   UNL     1     113.252 124.552 136.705  0.00  0.00    +0.000 A 
ATOM     20  C   UNL     1     114.331 124.956 137.550  0.00  0.00    +0.000 A 
ATOM     21  C   UNL     1     113.853 124.361 137.237  0.00  0.00    +0.000 A 
ENDBRANCH  12  16
BRANCH   5  22
ATOM     22  O   UNL     1     111.114 129.487 136.789  0.00  0.00    +0.000 OA
BRANCH  22  28
ATOM     23  O   UNL     1     111.403 129.499 138.188  0.00  0.00    +0.000 OA
ATOM     24  O   UNL     1     108.987 129.312 138.688  0.00  0.00    +0.000 OA
ATOM     25  O   UNL     1     110.081 129.386 139.922  0.00  0.00    +0.000 OA
ATOM     26  C   UNL     1     110.050 129.400 137.738  0.00  0.00    +0.000 C 
ATOM     27  C   UNL     1     109.792 129.374 138.522  0.00  0.00    +0.000 C 
ATOM     28  C   UNL     1     110.856 129.462 137.571  0.00  0.00    +0.000 C 
ATOM     29  C   UNL     1     110.340 129.411 139.138  0.00  0.00    +0.000 C 
ATOM     30  C   UNL     1     111.144 129.473 138.971  0.00  0.00    +0.000 C 
BRANCH  26  31
ATOM     31  O   UNL     1     109.503 129.363 137.122  0.00  0.00    +0.000 OA
BRANCH  31  36
ATOM     32  O   UNL     1     109.295 130.774 137.224  0.00  0.00    +0.000 OA
ATOM     33  O   UNL     1     108.419 129.294 135.881  0.00  0.00    +0.000 OA
ATOM     34  O   UNL     1     107.668 130.668 135.362  0.00  0.00    +0.000 OA
ATOM     35  O   UNL     1     108.002 132.113 136.085  0.00  0.00    +0.000 OA
ATOM     36  C   UNL     1     109.128 130.051 136.863  0.00  0.00    +0.000 C 
ATOM     37  C   UNL     1     108.586 130.016 136.242  0.00  0.00    +0.000 C 
ATOM     38  C   UNL     1     108.210 130.704 135.983  0.00  0.00    +0.000 C 
ATOM     39  C   UNL     1     108.377 131.426 136.344  0.00  0.00    +0.000 C 
ATOM     40  C   UNL     1     108.920 131.461 136.965  0.00  0.00    +0.000 C 
ENDBRANCH  31  36
ENDBRANCH  26  31
ENDBRANCH  22  28
ENDBRANCH   5  22
TORSDOF 5
ENDMDL
MODEL 7
REMARK VINA RESULT:     -10.3      1.788      6.305
REMARK  Name = 44258515
REMARK  5 active torsions:
REMARK  status: ('A' for Active; 'I' for Inactive)
REMARK    1  A    between atoms: O_1  and  C_16
REMARK    2  A    between atoms: O_1  and  C_18
REMARK    3  A    between atoms: O_4  and  C_20
REMARK    4  A    between atoms: O_4  and  C_26
REMARK    5  A    between atoms: C_33  and  C_35
REMARK                            x       y       z     vdW  Elec       q    Type
REMARK                         _______ _______ _______ _____ _____    ______ ____
ROOT
ATOM      1  O   UNL     1     109.967 129.830 137.271  0.00  0.00    +0.000 OA
ATOM      2  O   UNL     1     109.058 126.824 136.151  0.00  0.00    +0.000 OA
ATOM      3  O   UNL     1     108.203 128.161 135.696  0.00  0.00    +0.000 OA
ATOM      4  O   UNL     1     107.975 129.584 135.728  0.00  0.00    +0.000 OA
ATOM      5  C   UNL     1     109.930 127.646 136.929  0.00  0.00    +0.000 A 
ATOM      6  C   UNL     1     109.281 127.569 136.426  0.00  0.00    +0.000 A 
ATOM      7  C   UNL     1     110.153 128.391 137.205  0.00  0.00    +0.000 A 
ATOM      8  C   UNL     1     109.726 129.059 136.977  0.00  0.00    +0.000 A 
ATOM      9  C   UNL     1     108.854 128.238 136.199  0.00  0.00    +0.000 A 
ATOM     10  C   UNL     1     109.076 128.982 136.475  0.00  0.00    +0.000 A 
ATOM     11  C   UNL     1     108.623 129.671 136.231  0.00  0.00    +0.000 A 
ATOM     12  C   UNL     1     109.526 130.529 137.038  0.00  0.00    +0.000 A 
ATOM     13  C   UNL     1     108.850 130.449 136.514  0.00  0.00    +0.000 A 
ENDROOT
BRANCH  12  16
ATOM     14  O   UNL     1     109.916 132.349 139.208  0.00  0.00    +0.000 OA
ATOM     15  O   UNL     1     110.425 133.505 138.147  0.00  0.00    +0.000 OA
ATOM     16  C   UNL     1     109.751 131.273 137.315  0.00  0.00    +0.000 A 
ATOM     17  C   UNL     1     109.721 131.439 138.122  0.00  0.00    +0.000 A 
ATOM     18  C   UNL     1     110.006 131.852 136.785  0.00  0.00    +0.000 A 
ATOM     19  C   UNL     1     109.946 132.183 138.400  0.00  0.00    +0.000 A 
ATOM     20  C   UNL     1     110.230 132.596 137.062  0.00  0.00    +0.000 A 
ATOM     21  C   UNL     1     110.200 132.761 137.870  0.00  0.00    +0.000 A 
ENDBRANCH  12  16
BRANCH   5  22
ATOM     22  O   UNL     1     110.358 126.978 137.156  0.00  0.00    +0.000 OA
BRANCH  22  28
ATOM     23  O   UNL     1     109.756 126.863 138.447  0.00  0.00    +0.000 OA
ATOM     24  O   UNL     1     111.880 125.979 139.358  0.00  0.00    +0.000 OA
ATOM     25  O   UNL     1     110.570 126.159 140.346  0.00  0.00    +0.000 OA
ATOM     26  C   UNL     1     111.119 126.478 138.257  0.00  0.00    +0.000 C 
ATOM     27  C   UNL     1     111.173 126.274 139.055  0.00  0.00    +0.000 C 
ATOM     28  C   UNL     1     110.411 126.773 137.953  0.00  0.00    +0.000 C 
ATOM     29  C   UNL     1     110.517 126.364 139.548  0.00  0.00    +0.000 C 
ATOM     30  C   UNL     1     109.809 126.659 139.244  0.00  0.00    +0.000 C 
BRANCH  26  31
ATOM     31  O   UNL     1     111.774 126.389 137.763  0.00  0.00    +0.000 OA
BRANCH  31  36
ATOM     32  O   UNL     1     111.430 125.017 137.554  0.00  0.00    +0.000 OA
ATOM     33  O   UNL     1     113.154 126.175 136.885  0.00  0.00    +0.000 OA
ATOM     34  O   UNL     1     113.501 124.699 136.237  0.00  0.00    +0.000 OA
ATOM     35  O   UNL     1     112.467 123.434 136.467  0.00  0.00    +0.000 OA
ATOM     36  C   UNL     1     111.947 125.649 137.439  0.00  0.00    +0.000 C 
ATOM     37  C   UNL     1     112.637 125.544 137.000  0.00  0.00    +0.000 C 
ATOM     38  C   UNL     1     112.811 124.804 136.676  0.00  0.00    +0.000 C 
ATOM     39  C   UNL     1     112.294 124.172 136.791  0.00  0.00    +0.000 C 
ATOM     40  C   UNL     1     111.603 124.279 137.230  0.00  0.00    +0.000 C 
ENDBRANCH  31  36
ENDBRANCH  26  31
ENDBRANCH  22  28
ENDBRANCH   5  22
TORSDOF 5
ENDMDL
MODEL 8
REMARK VINA RESULT:     -10.3      1.855      3.133
REMARK  Name = 44258515
REMARK  5 active torsions:
REMARK  status: ('A' for Active; 'I' for Inactive)
REMARK    1  A    between atoms: O_1  and  C_16
REMARK    2  A    between atoms: O_1  and  C_18
REMARK    3  A    between atoms: O_4  and  C_20
REMARK    4  A    between atoms: O_4  and  C_26
REMARK    5  A    between atoms: C_33  and  C_35
REMARK                            x       y       z     vdW  Elec       q    Type
REMARK                         _______ _______ _______ _____ _____    ______ ____
ROOT
ATOM      1  O   UNL     1     112.088 126.704 137.669  0.00  0.00    +0.000 OA
ATOM      2  O   UNL     1     109.205 128.035 138.687  0.00  0.00    +0.000 OA
ATOM      3  O   UNL     1     109.626 126.517 139.180  0.00  0.00    +0.000 OA
ATOM      4  O   UNL     1     110.540 125.402 139.193  0.00  0.00    +0.000 OA
ATOM      5  C   UNL     1     110.420 128.130 137.941  0.00  0.00    +0.000 A 
ATOM      6  C   UNL     1     109.917 127.703 138.437  0.00  0.00    +0.000 A 
ATOM      7  C   UNL     1     111.133 127.798 137.690  0.00  0.00    +0.000 A 
ATOM      8  C   UNL     1     111.343 127.039 137.937  0.00  0.00    +0.000 A 
ATOM      9  C   UNL     1     110.129 126.945 138.683  0.00  0.00    +0.000 A 
ATOM     10  C   UNL     1     110.841 126.613 138.433  0.00  0.00    +0.000 A 
ATOM     11  C   UNL     1     111.049 125.821 138.696  0.00  0.00    +0.000 A 
ATOM     12  C   UNL     1     112.313 125.915 137.923  0.00  0.00    +0.000 A 
ATOM     13  C   UNL     1     111.790 125.470 138.439  0.00  0.00    +0.000 A 
ENDROOT
BRANCH  12  16
ATOM     14  O   UNL     1     113.777 124.298 136.075  0.00  0.00    +0.000 OA
ATOM     15  O   UNL     1     115.165 124.596 136.915  0.00  0.00    +0.000 OA
ATOM     16  C   UNL     1     113.026 125.585 137.671  0.00  0.00    +0.000 A 
ATOM     17  C   UNL     1     113.045 125.106 136.999  0.00  0.00    +0.000 A 
ATOM     18  C   UNL     1     113.720 125.734 138.090  0.00  0.00    +0.000 A 
ATOM     19  C   UNL     1     113.758 124.776 136.747  0.00  0.00    +0.000 A 
ATOM     20  C   UNL     1     114.433 125.404 137.839  0.00  0.00    +0.000 A 
ATOM     21  C   UNL     1     114.452 124.925 137.167  0.00  0.00    +0.000 A 
ENDBRANCH  12  16
BRANCH   5  22
ATOM     22  O   UNL     1     110.210 128.889 137.694  0.00  0.00    +0.000 OA
BRANCH  22  28
ATOM     23  O   UNL     1     111.228 129.546 138.450  0.00  0.00    +0.000 OA
ATOM     24  O   UNL     1     111.348 131.330 136.740  0.00  0.00    +0.000 OA
ATOM     25  O   UNL     1     112.327 131.392 138.067  0.00  0.00    +0.000 OA
ATOM     26  C   UNL     1     110.779 130.109 137.217  0.00  0.00    +0.000 C 
ATOM     27  C   UNL     1     111.308 130.735 137.310  0.00  0.00    +0.000 C 
ATOM     28  C   UNL     1     110.738 129.514 137.787  0.00  0.00    +0.000 C 
ATOM     29  C   UNL     1     111.797 130.766 137.974  0.00  0.00    +0.000 C 
ATOM     30  C   UNL     1     111.757 130.171 138.544  0.00  0.00    +0.000 C 
BRANCH  26  31
ATOM     31  O   UNL     1     110.289 130.078 136.553  0.00  0.00    +0.000 OA
BRANCH  31  36
ATOM     32  O   UNL     1     109.354 130.943 137.203  0.00  0.00    +0.000 OA
ATOM     33  O   UNL     1     109.297 129.995 135.238  0.00  0.00    +0.000 OA
ATOM     34  O   UNL     1     107.867 130.817 135.229  0.00  0.00    +0.000 OA
ATOM     35  O   UNL     1     107.428 131.723 136.537  0.00  0.00    +0.000 OA
ATOM     36  C   UNL     1     109.573 130.490 136.549  0.00  0.00    +0.000 C 
ATOM     37  C   UNL     1     109.078 130.447 135.891  0.00  0.00    +0.000 C 
ATOM     38  C   UNL     1     108.362 130.859 135.887  0.00  0.00    +0.000 C 
ATOM     39  C   UNL     1     108.143 131.312 136.541  0.00  0.00    +0.000 C 
ATOM     40  C   UNL     1     108.640 131.353 137.199  0.00  0.00    +0.000 C 
ENDBRANCH  31  36
ENDBRANCH  26  31
ENDBRANCH  22  28
ENDBRANCH   5  22
TORSDOF 5
ENDMDL
MODEL 9
REMARK VINA RESULT:     -10.2      3.016      5.223
REMARK  Name = 44258515
REMARK  5 active torsions:
REMARK  status: ('A' for Active; 'I' for Inactive)
REMARK    1  A    between atoms: O_1  and  C_16
REMARK    2  A    between atoms: O_1  and  C_18
REMARK    3  A    between atoms: O_4  and  C_20
REMARK    4  A    between atoms: O_4  and  C_26
REMARK    5  A    between atoms: C_33  and  C_35
REMARK                            x       y       z     vdW  Elec       q    Type
REMARK                         _______ _______ _______ _____ _____    ______ ____
ROOT
ATOM      1  O   UNL     1     113.364 128.912 139.512  0.00  0.00    +0.000 OA
ATOM      2  O   UNL     1     112.095 126.057 138.349  0.00  0.00    +0.000 OA
ATOM      3  O   UNL     1     112.945 126.059 139.764  0.00  0.00    +0.000 OA
ATOM      4  O   UNL     1     113.696 126.748 140.784  0.00  0.00    +0.000 OA
ATOM      5  C   UNL     1     112.300 127.464 138.223  0.00  0.00    +0.000 A 
ATOM      6  C   UNL     1     112.410 126.761 138.640  0.00  0.00    +0.000 A 
ATOM      7  C   UNL     1     112.615 128.170 138.513  0.00  0.00    +0.000 A 
ATOM      8  C   UNL     1     113.040 128.171 139.220  0.00  0.00    +0.000 A 
ATOM      9  C   UNL     1     112.835 126.763 139.347  0.00  0.00    +0.000 A 
ATOM     10  C   UNL     1     113.150 127.467 139.637  0.00  0.00    +0.000 A 
ATOM     11  C   UNL     1     113.591 127.456 140.375  0.00  0.00    +0.000 A 
ATOM     12  C   UNL     1     113.807 128.920 140.248  0.00  0.00    +0.000 A 
ATOM     13  C   UNL     1     113.922 128.187 140.682  0.00  0.00    +0.000 A 
ENDROOT
BRANCH  12  16
ATOM     14  O   UNL     1     113.543 131.279 141.841  0.00  0.00    +0.000 OA
ATOM     15  O   UNL     1     115.063 131.746 141.400  0.00  0.00    +0.000 OA
ATOM     16  C   UNL     1     114.122 129.626 140.536  0.00  0.00    +0.000 A 
ATOM     17  C   UNL     1     113.676 130.099 141.044  0.00  0.00    +0.000 A 
ATOM     18  C   UNL     1     114.881 129.860 140.316  0.00  0.00    +0.000 A 
ATOM     19  C   UNL     1     113.989 130.806 141.333  0.00  0.00    +0.000 A 
ATOM     20  C   UNL     1     115.195 130.567 140.604  0.00  0.00    +0.000 A 
ATOM     21  C   UNL     1     114.749 131.039 141.112  0.00  0.00    +0.000 A 
ENDBRANCH  12  16
BRANCH   5  22
ATOM     22  O   UNL     1     111.875 127.464 137.516  0.00  0.00    +0.000 OA
BRANCH  22  28
ATOM     23  O   UNL     1     112.986 127.848 136.705  0.00  0.00    +0.000 OA
ATOM     24  O   UNL     1     111.452 129.027 135.162  0.00  0.00    +0.000 OA
ATOM     25  O   UNL     1     113.076 129.019 134.864  0.00  0.00    +0.000 OA
ATOM     26  C   UNL     1     111.663 128.245 136.339  0.00  0.00    +0.000 C 
ATOM     27  C   UNL     1     111.963 128.634 135.676  0.00  0.00    +0.000 C 
ATOM     28  C   UNL     1     112.175 127.852 136.854  0.00  0.00    +0.000 C 
ATOM     29  C   UNL     1     112.775 128.629 135.528  0.00  0.00    +0.000 C 
ATOM     30  C   UNL     1     113.286 128.237 136.042  0.00  0.00    +0.000 C 
BRANCH  26  31
ATOM     31  O   UNL     1     110.852 128.249 136.488  0.00  0.00    +0.000 OA
BRANCH  31  36
ATOM     32  O   UNL     1     110.683 127.144 135.596  0.00  0.00    +0.000 OA
ATOM     33  O   UNL     1     109.234 128.233 136.811  0.00  0.00    +0.000 OA
ATOM     34  O   UNL     1     108.257 127.122 136.082  0.00  0.00    +0.000 OA
ATOM     35  O   UNL     1     108.898 126.025 135.030  0.00  0.00    +0.000 OA
ATOM     36  C   UNL     1     110.363 127.693 136.123  0.00  0.00    +0.000 C 
ATOM     37  C   UNL     1     109.554 127.686 136.285  0.00  0.00    +0.000 C 
ATOM     38  C   UNL     1     109.066 127.129 135.920  0.00  0.00    +0.000 C 
ATOM     39  C   UNL     1     109.386 126.581 135.394  0.00  0.00    +0.000 C 
ATOM     40  C   UNL     1     110.195 126.589 135.232  0.00  0.00    +0.000 C 
ENDBRANCH  31  36
ENDBRANCH  26  31
ENDBRANCH  22  28
ENDBRANCH   5  22
TORSDOF 5
ENDMDL
MODEL 10
REMARK VINA RESULT:     -10.2      9.504     10.901
REMARK  Name = 44258515
REMARK  5 active torsions:
REMARK  status: ('A' for Active; 'I' for Inactive)
REMARK    1  A    between atoms: O_1  and  C_16
REMARK    2  A    between atoms: O_1  and  C_18
REMARK    3  A    between atoms: O_4  and  C_20
REMARK    4  A    between atoms: O_4  and  C_26
REMARK    5  A    between atoms: C_33  and  C_35
REMARK                            x       y       z     vdW  Elec       q    Type
REMARK                         _______ _______ _______ _____ _____    ______ ____
ROOT
ATOM      1  O   UNL     1     104.216 124.688 145.502  0.00  0.00    +0.000 OA
ATOM      2  O   UNL     1     107.152 126.226 145.132  0.00  0.00    +0.000 OA
ATOM      3  O   UNL     1     106.822 125.415 146.532  0.00  0.00    +0.000 OA
ATOM      4  O   UNL     1     105.943 124.621 147.354  0.00  0.00    +0.000 OA
ATOM      5  C   UNL     1     105.866 125.869 144.622  0.00  0.00    +0.000 A 
ATOM      6  C   UNL     1     106.427 125.845 145.227  0.00  0.00    +0.000 A 
ATOM      7  C   UNL     1     105.140 125.487 144.716  0.00  0.00    +0.000 A 
ATOM      8  C   UNL     1     104.976 125.082 145.416  0.00  0.00    +0.000 A 
ATOM      9  C   UNL     1     106.261 125.439 145.926  0.00  0.00    +0.000 A 
ATOM     10  C   UNL     1     105.536 125.058 146.021  0.00  0.00    +0.000 A 
ATOM     11  C   UNL     1     105.376 124.639 146.754  0.00  0.00    +0.000 A 
ATOM     12  C   UNL     1     104.039 124.265 146.228  0.00  0.00    +0.000 A 
ATOM     13  C   UNL     1     104.622 124.240 146.858  0.00  0.00    +0.000 A 
ENDROOT
BRANCH  12  16
ATOM     14  O   UNL     1     101.343 124.272 147.179  0.00  0.00    +0.000 OA
ATOM     15  O   UNL     1     101.133 122.743 146.596  0.00  0.00    +0.000 OA
ATOM     16  C   UNL     1     103.313 123.884 146.320  0.00  0.00    +0.000 A 
ATOM     17  C   UNL     1     102.691 124.268 146.703  0.00  0.00    +0.000 A 
ATOM     18  C   UNL     1     103.207 123.120 146.029  0.00  0.00    +0.000 A 
ATOM     19  C   UNL     1     101.964 123.888 146.795  0.00  0.00    +0.000 A 
ATOM     20  C   UNL     1     102.481 122.739 146.120  0.00  0.00    +0.000 A 
ATOM     21  C   UNL     1     101.860 123.124 146.504  0.00  0.00    +0.000 A 
ENDBRANCH  12  16
BRANCH   5  22
ATOM     22  O   UNL     1     106.031 126.274 143.922  0.00  0.00    +0.000 OA
BRANCH  22  28
ATOM     23  O   UNL     1     106.452 125.140 143.163  0.00  0.00    +0.000 OA
ATOM     24  O   UNL     1     105.379 126.092 141.147  0.00  0.00    +0.000 OA
ATOM     25  O   UNL     1     106.158 124.640 141.058  0.00  0.00    +0.000 OA
ATOM     26  C   UNL     1     105.705 126.183 142.534  0.00  0.00    +0.000 C 
ATOM     27  C   UNL     1     105.737 125.775 141.818  0.00  0.00    +0.000 C 
ATOM     28  C   UNL     1     106.063 125.866 143.207  0.00  0.00    +0.000 C 
ATOM     29  C   UNL     1     106.126 125.049 141.775  0.00  0.00    +0.000 C 
ATOM     30  C   UNL     1     106.484 124.731 142.447  0.00  0.00    +0.000 C 
BRANCH  26  31
ATOM     31  O   UNL     1     105.315 126.909 142.579  0.00  0.00    +0.000 OA
BRANCH  31  36
ATOM     32  O   UNL     1     106.501 127.606 142.190  0.00  0.00    +0.000 OA
ATOM     33  O   UNL     1     104.415 128.246 142.228  0.00  0.00    +0.000 OA
ATOM     34  O   UNL     1     105.150 129.612 141.664  0.00  0.00    +0.000 OA
ATOM     35  O   UNL     1     106.785 129.640 141.451  0.00  0.00    +0.000 OA
ATOM     36  C   UNL     1     105.683 127.592 142.297  0.00  0.00    +0.000 C 
ATOM     37  C   UNL     1     105.232 128.260 142.121  0.00  0.00    +0.000 C 
ATOM     38  C   UNL     1     105.600 128.943 141.839  0.00  0.00    +0.000 C 
ATOM     39  C   UNL     1     106.418 128.958 141.732  0.00  0.00    +0.000 C 
ATOM     40  C   UNL     1     106.868 128.288 141.908  0.00  0.00    +0.000 C 
ENDBRANCH  31  36
ENDBRANCH  26  31
ENDBRANCH  22  28
ENDBRANCH   5  22
TORSDOF 5
ENDMDL
