MODEL 1
REMARK VINA RESULT:      -8.1      0.000      0.000
REMARK  Name = 131753029
REMARK  6 active torsions:
REMARK  status: ('A' for Active; 'I' for Inactive)
REMARK    1  A    between atoms: O_2  and  C_14
REMARK    2  A    between atoms: O_4  and  C_18
REMARK    3  A    between atoms: C_7  and  C_10
REMARK    4  A    between atoms: C_16  and  C_22
REMARK    5  A    between atoms: C_17  and  C_23
REMARK    6  A    between atoms: C_22  and  C_24
REMARK                            x       y       z     vdW  Elec       q    Type
REMARK                         _______ _______ _______ _____ _____    ______ ____
ROOT
ATOM      1  O   UNL     1     111.812 126.545 136.140  0.00  0.00    +0.000 OA
ATOM      2  O   UNL     1     112.030 123.709 136.602  0.00  0.00    +0.000 OA
ATOM      3  C   UNL     1     112.995 127.417 136.351  0.00  0.00    +0.000 C 
ATOM      4  C   UNL     1     113.452 126.726 136.577  0.00  0.00    +0.000 C 
ATOM      5  C   UNL     1     112.169 127.326 136.130  0.00  0.00    +0.000 C 
ATOM      6  C   UNL     1     113.077 125.952 136.581  0.00  0.00    +0.000 A 
ATOM      7  C   UNL     1     112.284 125.864 136.369  0.00  0.00    +0.000 A 
ATOM      8  C   UNL     1     113.520 125.292 136.799  0.00  0.00    +0.000 A 
ATOM      9  C   UNL     1     111.935 125.117 136.376  0.00  0.00    +0.000 A 
ATOM     10  C   UNL     1     113.172 124.545 136.807  0.00  0.00    +0.000 A 
ATOM     11  C   UNL     1     112.379 124.458 136.595  0.00  0.00    +0.000 A 
ENDROOT
BRANCH   3  13
ATOM     12  O   UNL     1     112.753 128.454 137.611  0.00  0.00    +0.000 OA
ATOM     13  C   UNL     1     113.346 128.163 136.344  0.00  0.00    +0.000 A 
ATOM     14  C   UNL     1     113.225 128.682 136.974  0.00  0.00    +0.000 A 
ATOM     15  C   UNL     1     113.818 128.391 135.707  0.00  0.00    +0.000 A 
ATOM     16  C   UNL     1     113.577 129.428 136.967  0.00  0.00    +0.000 A 
ATOM     17  C   UNL     1     114.049 129.656 136.331  0.00  0.00    +0.000 A 
ATOM     18  C   UNL     1     114.170 129.138 135.700  0.00  0.00    +0.000 A 
BRANCH  17  19
ATOM     19  O   UNL     1     114.400 130.402 136.324  0.00  0.00    +0.000 OA
ATOM     20  C   UNL     1     114.798 130.665 135.651  0.00  0.00    +0.000 C 
ENDBRANCH  17  19
BRANCH  16  21
ATOM     21  C   UNL     1     113.456 129.946 137.598  0.00  0.00    +0.000 C 
BRANCH  21  22
ATOM     22  C   UNL     1     113.947 129.913 138.259  0.00  0.00    +0.000 C 
ATOM     23  C   UNL     1     113.766 130.356 138.931  0.00  0.00    +0.000 C 
ATOM     24  C   UNL     1     114.258 130.323 139.593  0.00  0.00    +0.000 C 
ATOM     25  C   UNL     1     113.092 130.831 138.942  0.00  0.00    +0.000 C 
ENDBRANCH  21  22
ENDBRANCH  16  21
ENDBRANCH   3  13
BRANCH   8  26
ATOM     26  O   UNL     1     114.313 125.379 137.011  0.00  0.00    +0.000 OA
ATOM     27  C   UNL     1     114.732 124.738 137.316  0.00  0.00    +0.000 C 
ENDBRANCH   8  26
BRANCH   9  29
ATOM     28  O   UNL     1     110.944 124.681 135.445  0.00  0.00    +0.000 OA
ATOM     29  C   UNL     1     111.142 125.030 136.165  0.00  0.00    +0.000 C 
ENDBRANCH   9  29
TORSDOF 6
ENDMDL
MODEL 2
REMARK VINA RESULT:      -8.1      1.255      5.004
REMARK  Name = 131753029
REMARK  6 active torsions:
REMARK  status: ('A' for Active; 'I' for Inactive)
REMARK    1  A    between atoms: O_2  and  C_14
REMARK    2  A    between atoms: O_4  and  C_18
REMARK    3  A    between atoms: C_7  and  C_10
REMARK    4  A    between atoms: C_16  and  C_22
REMARK    5  A    between atoms: C_17  and  C_23
REMARK    6  A    between atoms: C_22  and  C_24
REMARK                            x       y       z     vdW  Elec       q    Type
REMARK                         _______ _______ _______ _____ _____    ______ ____
ROOT
ATOM      1  O   UNL     1     112.384 129.355 137.186  0.00  0.00    +0.000 OA
ATOM      2  O   UNL     1     114.620 131.146 136.879  0.00  0.00    +0.000 OA
ATOM      3  C   UNL     1     112.197 128.242 136.222  0.00  0.00    +0.000 C 
ATOM      4  C   UNL     1     112.904 128.496 135.805  0.00  0.00    +0.000 C 
ATOM      5  C   UNL     1     111.936 128.674 136.917  0.00  0.00    +0.000 C 
ATOM      6  C   UNL     1     113.340 129.181 136.089  0.00  0.00    +0.000 A 
ATOM      7  C   UNL     1     113.089 129.596 136.757  0.00  0.00    +0.000 A 
ATOM      8  C   UNL     1     114.017 129.421 135.685  0.00  0.00    +0.000 A 
ATOM      9  C   UNL     1     113.515 130.251 137.020  0.00  0.00    +0.000 A 
ATOM     10  C   UNL     1     114.444 130.075 135.948  0.00  0.00    +0.000 A 
ATOM     11  C   UNL     1     114.193 130.490 136.616  0.00  0.00    +0.000 A 
ENDROOT
BRANCH   3  13
ATOM     12  O   UNL     1     112.407 126.773 136.945  0.00  0.00    +0.000 OA
ATOM     13  C   UNL     1     111.772 127.586 135.956  0.00  0.00    +0.000 A 
ATOM     14  C   UNL     1     111.877 126.852 136.317  0.00  0.00    +0.000 A 
ATOM     15  C   UNL     1     111.242 127.665 135.329  0.00  0.00    +0.000 A 
ATOM     16  C   UNL     1     111.452 126.197 136.052  0.00  0.00    +0.000 A 
ATOM     17  C   UNL     1     110.922 126.275 135.425  0.00  0.00    +0.000 A 
ATOM     18  C   UNL     1     110.816 127.009 135.063  0.00  0.00    +0.000 A 
BRANCH  17  19
ATOM     19  O   UNL     1     110.497 125.620 135.160  0.00  0.00    +0.000 OA
ATOM     20  C   UNL     1     109.886 125.718 134.613  0.00  0.00    +0.000 C 
ENDBRANCH  17  19
BRANCH  16  21
ATOM     21  C   UNL     1     111.557 125.463 136.414  0.00  0.00    +0.000 C 
BRANCH  21  22
ATOM     22  C   UNL     1     112.239 125.023 136.264  0.00  0.00    +0.000 C 
ATOM     23  C   UNL     1     112.366 124.310 136.658  0.00  0.00    +0.000 C 
ATOM     24  C   UNL     1     113.047 123.870 136.507  0.00  0.00    +0.000 C 
ATOM     25  C   UNL     1     111.810 124.036 137.203  0.00  0.00    +0.000 C 
ENDBRANCH  21  22
ENDBRANCH  16  21
ENDBRANCH   3  13
BRANCH   8  26
ATOM     26  O   UNL     1     114.269 129.006 135.018  0.00  0.00    +0.000 OA
ATOM     27  C   UNL     1     114.965 129.224 134.634  0.00  0.00    +0.000 C 
ENDBRANCH   8  26
BRANCH   9  29
ATOM     28  O   UNL     1     113.735 130.681 138.364  0.00  0.00    +0.000 OA
ATOM     29  C   UNL     1     113.264 130.666 137.688  0.00  0.00    +0.000 C 
ENDBRANCH   9  29
TORSDOF 6
ENDMDL
MODEL 3
REMARK VINA RESULT:      -8.1     12.898     13.978
REMARK  Name = 131753029
REMARK  6 active torsions:
REMARK  status: ('A' for Active; 'I' for Inactive)
REMARK    1  A    between atoms: O_2  and  C_14
REMARK    2  A    between atoms: O_4  and  C_18
REMARK    3  A    between atoms: C_7  and  C_10
REMARK    4  A    between atoms: C_16  and  C_22
REMARK    5  A    between atoms: C_17  and  C_23
REMARK    6  A    between atoms: C_22  and  C_24
REMARK                            x       y       z     vdW  Elec       q    Type
REMARK                         _______ _______ _______ _____ _____    ______ ____
ROOT
ATOM      1  O   UNL     1     103.583 123.475 145.998  0.00  0.00    +0.000 OA
ATOM      2  O   UNL     1     100.712 123.362 146.218  0.00  0.00    +0.000 OA
ATOM      3  C   UNL     1     104.359 124.318 146.942  0.00  0.00    +0.000 C 
ATOM      4  C   UNL     1     103.625 124.551 147.322  0.00  0.00    +0.000 C 
ATOM      5  C   UNL     1     104.338 123.776 146.275  0.00  0.00    +0.000 C 
ATOM      6  C   UNL     1     102.879 124.240 147.031  0.00  0.00    +0.000 A 
ATOM      7  C   UNL     1     102.858 123.719 146.391  0.00  0.00    +0.000 A 
ATOM      8  C   UNL     1     102.177 124.467 147.399  0.00  0.00    +0.000 A 
ATOM      9  C   UNL     1     102.137 123.427 146.119  0.00  0.00    +0.000 A 
ATOM     10  C   UNL     1     101.456 124.175 147.129  0.00  0.00    +0.000 A 
ATOM     11  C   UNL     1     101.435 123.655 146.489  0.00  0.00    +0.000 A 
ENDROOT
BRANCH   3  13
ATOM     12  O   UNL     1     105.010 125.674 146.261  0.00  0.00    +0.000 OA
ATOM     13  C   UNL     1     105.080 124.612 147.215  0.00  0.00    +0.000 A 
ATOM     14  C   UNL     1     105.405 125.289 146.875  0.00  0.00    +0.000 A 
ATOM     15  C   UNL     1     105.476 124.229 147.828  0.00  0.00    +0.000 A 
ATOM     16  C   UNL     1     106.126 125.584 147.147  0.00  0.00    +0.000 A 
ATOM     17  C   UNL     1     106.522 125.200 147.761  0.00  0.00    +0.000 A 
ATOM     18  C   UNL     1     106.198 124.522 148.102  0.00  0.00    +0.000 A 
BRANCH  17  19
ATOM     19  O   UNL     1     107.243 125.494 148.034  0.00  0.00    +0.000 OA
ATOM     20  C   UNL     1     107.739 125.015 148.487  0.00  0.00    +0.000 C 
ENDBRANCH  17  19
BRANCH  16  21
ATOM     21  C   UNL     1     106.451 126.261 146.807  0.00  0.00    +0.000 C 
BRANCH  21  22
ATOM     22  C   UNL     1     106.181 127.007 147.034  0.00  0.00    +0.000 C 
ATOM     23  C   UNL     1     106.498 127.684 146.687  0.00  0.00    +0.000 C 
ATOM     24  C   UNL     1     106.228 128.430 146.914  0.00  0.00    +0.000 C 
ATOM     25  C   UNL     1     107.086 127.616 146.112  0.00  0.00    +0.000 C 
ENDBRANCH  21  22
ENDBRANCH  16  21
ENDBRANCH   3  13
BRANCH   8  26
ATOM     26  O   UNL     1     102.198 124.987 148.039  0.00  0.00    +0.000 OA
ATOM     27  C   UNL     1     101.511 125.140 148.470  0.00  0.00    +0.000 C 
ENDBRANCH   8  26
BRANCH   9  29
ATOM     28  O   UNL     1     101.713 123.115 144.792  0.00  0.00    +0.000 OA
ATOM     29  C   UNL     1     102.116 122.906 145.480  0.00  0.00    +0.000 C 
ENDBRANCH   9  29
TORSDOF 6
ENDMDL
MODEL 4
REMARK VINA RESULT:      -7.9      1.461      5.207
REMARK  Name = 131753029
REMARK  6 active torsions:
REMARK  status: ('A' for Active; 'I' for Inactive)
REMARK    1  A    between atoms: O_2  and  C_14
REMARK    2  A    between atoms: O_4  and  C_18
REMARK    3  A    between atoms: C_7  and  C_10
REMARK    4  A    between atoms: C_16  and  C_22
REMARK    5  A    between atoms: C_17  and  C_23
REMARK    6  A    between atoms: C_22  and  C_24
REMARK                            x       y       z     vdW  Elec       q    Type
REMARK                         _______ _______ _______ _____ _____    ______ ____
ROOT
ATOM      1  O   UNL     1     113.601 129.003 135.733  0.00  0.00    +0.000 OA
ATOM      2  O   UNL     1     113.944 131.555 137.025  0.00  0.00    +0.000 OA
ATOM      3  C   UNL     1     112.314 128.276 135.873  0.00  0.00    +0.000 C 
ATOM      4  C   UNL     1     112.016 128.917 136.361  0.00  0.00    +0.000 C 
ATOM      5  C   UNL     1     113.112 128.319 135.557  0.00  0.00    +0.000 C 
ATOM      6  C   UNL     1     112.520 129.593 136.527  0.00  0.00    +0.000 A 
ATOM      7  C   UNL     1     113.286 129.635 136.223  0.00  0.00    +0.000 A 
ATOM      8  C   UNL     1     112.229 130.205 136.996  0.00  0.00    +0.000 A 
ATOM      9  C   UNL     1     113.761 130.288 136.389  0.00  0.00    +0.000 A 
ATOM     10  C   UNL     1     112.703 130.859 137.162  0.00  0.00    +0.000 A 
ATOM     11  C   UNL     1     113.469 130.901 136.859  0.00  0.00    +0.000 A 
ENDROOT
BRANCH   3  13
ATOM     12  O   UNL     1     112.459 126.899 136.772  0.00  0.00    +0.000 OA
ATOM     13  C   UNL     1     111.838 127.623 135.708  0.00  0.00    +0.000 A 
ATOM     14  C   UNL     1     111.910 126.935 136.157  0.00  0.00    +0.000 A 
ATOM     15  C   UNL     1     111.288 127.658 135.094  0.00  0.00    +0.000 A 
ATOM     16  C   UNL     1     111.433 126.282 135.993  0.00  0.00    +0.000 A 
ATOM     17  C   UNL     1     110.884 126.317 135.378  0.00  0.00    +0.000 A 
ATOM     18  C   UNL     1     110.811 127.005 134.928  0.00  0.00    +0.000 A 
BRANCH  17  19
ATOM     19  O   UNL     1     110.407 125.664 135.214  0.00  0.00    +0.000 OA
ATOM     20  C   UNL     1     109.773 125.737 134.691  0.00  0.00    +0.000 C 
ENDBRANCH  17  19
BRANCH  16  21
ATOM     21  C   UNL     1     111.506 125.595 136.443  0.00  0.00    +0.000 C 
BRANCH  21  22
ATOM     22  C   UNL     1     112.131 125.075 136.304  0.00  0.00    +0.000 C 
ATOM     23  C   UNL     1     112.217 124.398 136.767  0.00  0.00    +0.000 C 
ATOM     24  C   UNL     1     112.843 123.879 136.628  0.00  0.00    +0.000 C 
ATOM     25  C   UNL     1     111.677 124.241 137.371  0.00  0.00    +0.000 C 
ENDBRANCH  21  22
ENDBRANCH  16  21
ENDBRANCH   3  13
BRANCH   8  26
ATOM     26  O   UNL     1     111.463 130.164 137.299  0.00  0.00    +0.000 OA
ATOM     27  C   UNL     1     111.187 130.752 137.808  0.00  0.00    +0.000 C 
ENDBRANCH   8  26
BRANCH   9  29
ATOM     28  O   UNL     1     114.721 130.912 135.536  0.00  0.00    +0.000 OA
ATOM     29  C   UNL     1     114.527 130.330 136.086  0.00  0.00    +0.000 C 
ENDBRANCH   9  29
TORSDOF 6
ENDMDL
MODEL 5
REMARK VINA RESULT:      -7.9      1.169      5.184
REMARK  Name = 131753029
REMARK  6 active torsions:
REMARK  status: ('A' for Active; 'I' for Inactive)
REMARK    1  A    between atoms: O_2  and  C_14
REMARK    2  A    between atoms: O_4  and  C_18
REMARK    3  A    between atoms: C_7  and  C_10
REMARK    4  A    between atoms: C_16  and  C_22
REMARK    5  A    between atoms: C_17  and  C_23
REMARK    6  A    between atoms: C_22  and  C_24
REMARK                            x       y       z     vdW  Elec       q    Type
REMARK                         _______ _______ _______ _____ _____    ______ ____
ROOT
ATOM      1  O   UNL     1     114.171 128.863 135.662  0.00  0.00    +0.000 OA
ATOM      2  O   UNL     1     114.351 131.617 136.487  0.00  0.00    +0.000 OA
ATOM      3  C   UNL     1     113.197 127.960 136.324  0.00  0.00    +0.000 C 
ATOM      4  C   UNL     1     112.944 128.613 136.821  0.00  0.00    +0.000 C 
ATOM      5  C   UNL     1     113.815 128.085 135.741  0.00  0.00    +0.000 C 
ATOM      6  C   UNL     1     113.312 129.384 136.728  0.00  0.00    +0.000 A 
ATOM      7  C   UNL     1     113.906 129.505 136.168  0.00  0.00    +0.000 A 
ATOM      8  C   UNL     1     113.066 130.007 137.208  0.00  0.00    +0.000 A 
ATOM      9  C   UNL     1     114.252 130.249 136.087  0.00  0.00    +0.000 A 
ATOM     10  C   UNL     1     113.411 130.751 137.128  0.00  0.00    +0.000 A 
ATOM     11  C   UNL     1     114.005 130.872 136.567  0.00  0.00    +0.000 A 
ENDROOT
BRANCH   3  13
ATOM     12  O   UNL     1     111.879 127.559 135.416  0.00  0.00    +0.000 OA
ATOM     13  C   UNL     1     112.849 127.216 136.407  0.00  0.00    +0.000 A 
ATOM     14  C   UNL     1     112.190 127.016 135.953  0.00  0.00    +0.000 A 
ATOM     15  C   UNL     1     113.160 126.672 136.944  0.00  0.00    +0.000 A 
ATOM     16  C   UNL     1     111.843 126.272 136.035  0.00  0.00    +0.000 A 
ATOM     17  C   UNL     1     112.154 125.728 136.572  0.00  0.00    +0.000 A 
ATOM     18  C   UNL     1     112.813 125.928 137.027  0.00  0.00    +0.000 A 
BRANCH  17  19
ATOM     19  O   UNL     1     111.806 124.985 136.655  0.00  0.00    +0.000 OA
ATOM     20  C   UNL     1     112.117 124.441 137.191  0.00  0.00    +0.000 C 
ENDBRANCH  17  19
BRANCH  16  21
ATOM     21  C   UNL     1     111.184 126.072 135.581  0.00  0.00    +0.000 C 
BRANCH  21  22
ATOM     22  C   UNL     1     110.437 126.354 135.791  0.00  0.00    +0.000 C 
ATOM     23  C   UNL     1     109.786 126.196 135.310  0.00  0.00    +0.000 C 
ATOM     24  C   UNL     1     109.039 126.477 135.520  0.00  0.00    +0.000 C 
ATOM     25  C   UNL     1     109.882 125.756 134.619  0.00  0.00    +0.000 C 
ENDBRANCH  21  22
ENDBRANCH  16  21
ENDBRANCH   3  13
BRANCH   8  26
ATOM     26  O   UNL     1     112.472 129.887 137.768  0.00  0.00    +0.000 OA
ATOM     27  C   UNL     1     112.223 130.511 138.247  0.00  0.00    +0.000 C 
ENDBRANCH   8  26
BRANCH   9  29
ATOM     28  O   UNL     1     115.596 130.610 135.767  0.00  0.00    +0.000 OA
ATOM     29  C   UNL     1     114.845 130.370 135.526  0.00  0.00    +0.000 C 
ENDBRANCH   9  29
TORSDOF 6
ENDMDL
MODEL 6
REMARK VINA RESULT:      -7.8      0.695      1.802
REMARK  Name = 131753029
REMARK  6 active torsions:
REMARK  status: ('A' for Active; 'I' for Inactive)
REMARK    1  A    between atoms: O_2  and  C_14
REMARK    2  A    between atoms: O_4  and  C_18
REMARK    3  A    between atoms: C_7  and  C_10
REMARK    4  A    between atoms: C_16  and  C_22
REMARK    5  A    between atoms: C_17  and  C_23
REMARK    6  A    between atoms: C_22  and  C_24
REMARK                            x       y       z     vdW  Elec       q    Type
REMARK                         _______ _______ _______ _____ _____    ______ ____
ROOT
ATOM      1  O   UNL     1     111.593 126.646 136.577  0.00  0.00    +0.000 OA
ATOM      2  O   UNL     1     111.959 123.804 136.272  0.00  0.00    +0.000 OA
ATOM      3  C   UNL     1     112.717 127.482 137.070  0.00  0.00    +0.000 C 
ATOM      4  C   UNL     1     113.205 126.778 137.124  0.00  0.00    +0.000 C 
ATOM      5  C   UNL     1     111.906 127.416 136.795  0.00  0.00    +0.000 C 
ATOM      6  C   UNL     1     112.876 126.015 136.902  0.00  0.00    +0.000 A 
ATOM      7  C   UNL     1     112.097 125.951 136.638  0.00  0.00    +0.000 A 
ATOM      8  C   UNL     1     113.349 125.342 136.956  0.00  0.00    +0.000 A 
ATOM      9  C   UNL     1     111.791 125.215 136.428  0.00  0.00    +0.000 A 
ATOM     10  C   UNL     1     113.044 124.606 136.747  0.00  0.00    +0.000 A 
ATOM     11  C   UNL     1     112.265 124.542 136.483  0.00  0.00    +0.000 A 
ENDROOT
BRANCH   3  13
ATOM     12  O   UNL     1     113.287 128.504 135.905  0.00  0.00    +0.000 OA
ATOM     13  C   UNL     1     113.025 128.218 137.280  0.00  0.00    +0.000 A 
ATOM     14  C   UNL     1     113.309 128.729 136.698  0.00  0.00    +0.000 A 
ATOM     15  C   UNL     1     113.048 128.444 138.073  0.00  0.00    +0.000 A 
ATOM     16  C   UNL     1     113.617 129.464 136.909  0.00  0.00    +0.000 A 
ATOM     17  C   UNL     1     113.640 129.690 137.702  0.00  0.00    +0.000 A 
ATOM     18  C   UNL     1     113.356 129.180 138.285  0.00  0.00    +0.000 A 
BRANCH  17  19
ATOM     19  O   UNL     1     113.948 130.426 137.913  0.00  0.00    +0.000 OA
ATOM     20  C   UNL     1     113.944 130.664 138.703  0.00  0.00    +0.000 C 
ENDBRANCH  17  19
BRANCH  16  21
ATOM     21  C   UNL     1     113.902 129.975 136.326  0.00  0.00    +0.000 C 
BRANCH  21  22
ATOM     22  C   UNL     1     114.653 129.858 136.007  0.00  0.00    +0.000 C 
ATOM     23  C   UNL     1     114.948 130.381 135.442  0.00  0.00    +0.000 C 
ATOM     24  C   UNL     1     115.700 130.264 135.123  0.00  0.00    +0.000 C 
ATOM     25  C   UNL     1     114.490 131.021 135.195  0.00  0.00    +0.000 C 
ENDBRANCH  21  22
ENDBRANCH  16  21
ENDBRANCH   3  13
BRANCH   8  26
ATOM     26  O   UNL     1     114.128 125.406 137.220  0.00  0.00    +0.000 OA
ATOM     27  C   UNL     1     114.619 124.744 137.222  0.00  0.00    +0.000 C 
ENDBRANCH   8  26
BRANCH   9  29
ATOM     28  O   UNL     1     110.858 124.993 135.370  0.00  0.00    +0.000 OA
ATOM     29  C   UNL     1     111.012 125.151 136.164  0.00  0.00    +0.000 C 
ENDBRANCH   9  29
TORSDOF 6
ENDMDL
MODEL 7
REMARK VINA RESULT:      -7.7      2.832      4.963
REMARK  Name = 131753029
REMARK  6 active torsions:
REMARK  status: ('A' for Active; 'I' for Inactive)
REMARK    1  A    between atoms: O_2  and  C_14
REMARK    2  A    between atoms: O_4  and  C_18
REMARK    3  A    between atoms: C_7  and  C_10
REMARK    4  A    between atoms: C_16  and  C_22
REMARK    5  A    between atoms: C_17  and  C_23
REMARK    6  A    between atoms: C_22  and  C_24
REMARK                            x       y       z     vdW  Elec       q    Type
REMARK                         _______ _______ _______ _____ _____    ______ ____
ROOT
ATOM      1  O   UNL     1     110.624 127.894 135.030  0.00  0.00    +0.000 OA
ATOM      2  O   UNL     1     109.197 130.223 135.947  0.00  0.00    +0.000 OA
ATOM      3  C   UNL     1     110.949 126.808 135.988  0.00  0.00    +0.000 C 
ATOM      4  C   UNL     1     110.565 127.256 136.612  0.00  0.00    +0.000 C 
ATOM      5  C   UNL     1     110.979 127.129 135.192  0.00  0.00    +0.000 C 
ATOM      6  C   UNL     1     110.215 128.020 136.431  0.00  0.00    +0.000 A 
ATOM      7  C   UNL     1     110.243 128.329 135.667  0.00  0.00    +0.000 A 
ATOM      8  C   UNL     1     109.847 128.445 137.034  0.00  0.00    +0.000 A 
ATOM      9  C   UNL     1     109.904 129.063 135.505  0.00  0.00    +0.000 A 
ATOM     10  C   UNL     1     109.508 129.179 136.873  0.00  0.00    +0.000 A 
ATOM     11  C   UNL     1     109.537 129.488 136.109  0.00  0.00    +0.000 A 
ENDROOT
BRANCH   3  13
ATOM     12  O   UNL     1     112.495 126.719 136.558  0.00  0.00    +0.000 OA
ATOM     13  C   UNL     1     111.288 126.073 136.152  0.00  0.00    +0.000 A 
ATOM     14  C   UNL     1     112.060 126.029 136.437  0.00  0.00    +0.000 A 
ATOM     15  C   UNL     1     110.853 125.383 136.030  0.00  0.00    +0.000 A 
ATOM     16  C   UNL     1     112.398 125.295 136.601  0.00  0.00    +0.000 A 
ATOM     17  C   UNL     1     111.964 124.604 136.479  0.00  0.00    +0.000 A 
ATOM     18  C   UNL     1     111.191 124.647 136.194  0.00  0.00    +0.000 A 
BRANCH  17  19
ATOM     19  O   UNL     1     112.302 123.870 136.643  0.00  0.00    +0.000 OA
ATOM     20  C   UNL     1     111.822 123.205 136.734  0.00  0.00    +0.000 C 
ENDBRANCH  17  19
BRANCH  16  21
ATOM     21  C   UNL     1     113.171 125.251 136.886  0.00  0.00    +0.000 C 
BRANCH  21  22
ATOM     22  C   UNL     1     113.807 125.282 136.361  0.00  0.00    +0.000 C 
ATOM     23  C   UNL     1     114.580 125.267 136.648  0.00  0.00    +0.000 C 
ATOM     24  C   UNL     1     115.216 125.298 136.123  0.00  0.00    +0.000 C 
ATOM     25  C   UNL     1     114.718 125.221 137.460  0.00  0.00    +0.000 C 
ENDBRANCH  21  22
ENDBRANCH  16  21
ENDBRANCH   3  13
BRANCH   8  26
ATOM     26  O   UNL     1     109.819 128.137 137.799  0.00  0.00    +0.000 OA
ATOM     27  C   UNL     1     109.683 128.636 138.441  0.00  0.00    +0.000 C 
ENDBRANCH   8  26
BRANCH   9  29
ATOM     28  O   UNL     1     110.236 130.128 134.613  0.00  0.00    +0.000 OA
ATOM     29  C   UNL     1     109.933 129.372 134.741  0.00  0.00    +0.000 C 
ENDBRANCH   9  29
TORSDOF 6
ENDMDL
MODEL 8
REMARK VINA RESULT:      -7.7      2.954      4.287
REMARK  Name = 131753029
REMARK  6 active torsions:
REMARK  status: ('A' for Active; 'I' for Inactive)
REMARK    1  A    between atoms: O_2  and  C_14
REMARK    2  A    between atoms: O_4  and  C_18
REMARK    3  A    between atoms: C_7  and  C_10
REMARK    4  A    between atoms: C_16  and  C_22
REMARK    5  A    between atoms: C_17  and  C_23
REMARK    6  A    between atoms: C_22  and  C_24
REMARK                            x       y       z     vdW  Elec       q    Type
REMARK                         _______ _______ _______ _____ _____    ______ ____
ROOT
ATOM      1  O   UNL     1     111.302 126.197 139.728  0.00  0.00    +0.000 OA
ATOM      2  O   UNL     1     110.871 127.418 142.302  0.00  0.00    +0.000 OA
ATOM      3  C   UNL     1     112.549 126.487 138.977  0.00  0.00    +0.000 C 
ATOM      4  C   UNL     1     112.804 126.999 139.617  0.00  0.00    +0.000 C 
ATOM      5  C   UNL     1     111.793 126.083 139.033  0.00  0.00    +0.000 C 
ATOM      6  C   UNL     1     112.300 127.102 140.306  0.00  0.00    +0.000 A 
ATOM      7  C   UNL     1     111.573 126.714 140.359  0.00  0.00    +0.000 A 
ATOM      8  C   UNL     1     112.549 127.595 140.917  0.00  0.00    +0.000 A 
ATOM      9  C   UNL     1     111.097 126.819 141.024  0.00  0.00    +0.000 A 
ATOM     10  C   UNL     1     112.074 127.700 141.582  0.00  0.00    +0.000 A 
ATOM     11  C   UNL     1     111.348 127.313 141.636  0.00  0.00    +0.000 A 
ENDROOT
BRANCH   3  13
ATOM     12  O   UNL     1     112.421 127.520 137.696  0.00  0.00    +0.000 OA
ATOM     13  C   UNL     1     113.027 126.383 138.313  0.00  0.00    +0.000 A 
ATOM     14  C   UNL     1     112.963 126.899 137.673  0.00  0.00    +0.000 A 
ATOM     15  C   UNL     1     113.570 125.762 138.288  0.00  0.00    +0.000 A 
ATOM     16  C   UNL     1     113.441 126.795 137.009  0.00  0.00    +0.000 A 
ATOM     17  C   UNL     1     113.984 126.174 136.984  0.00  0.00    +0.000 A 
ATOM     18  C   UNL     1     114.049 125.658 137.624  0.00  0.00    +0.000 A 
BRANCH  17  19
ATOM     19  O   UNL     1     114.462 126.070 136.320  0.00  0.00    +0.000 OA
ATOM     20  C   UNL     1     114.901 125.377 136.232  0.00  0.00    +0.000 C 
ENDBRANCH  17  19
BRANCH  16  21
ATOM     21  C   UNL     1     113.377 127.312 136.369  0.00  0.00    +0.000 C 
BRANCH  21  22
ATOM     22  C   UNL     1     113.795 128.023 136.369  0.00  0.00    +0.000 C 
ATOM     23  C   UNL     1     113.667 128.578 135.773  0.00  0.00    +0.000 C 
ATOM     24  C   UNL     1     114.085 129.289 135.773  0.00  0.00    +0.000 C 
ATOM     25  C   UNL     1     113.119 128.422 135.176  0.00  0.00    +0.000 C 
ENDBRANCH  21  22
ENDBRANCH  16  21
ENDBRANCH   3  13
BRANCH   8  26
ATOM     26  O   UNL     1     113.276 127.982 140.864  0.00  0.00    +0.000 OA
ATOM     27  C   UNL     1     113.382 128.713 141.232  0.00  0.00    +0.000 C 
ENDBRANCH   8  26
BRANCH   9  29
ATOM     28  O   UNL     1     110.274 125.809 141.609  0.00  0.00    +0.000 OA
ATOM     29  C   UNL     1     110.371 126.432 141.078  0.00  0.00    +0.000 C 
ENDBRANCH   9  29
TORSDOF 6
ENDMDL
MODEL 9
REMARK VINA RESULT:      -7.7     11.467     12.588
REMARK  Name = 131753029
REMARK  6 active torsions:
REMARK  status: ('A' for Active; 'I' for Inactive)
REMARK    1  A    between atoms: O_2  and  C_14
REMARK    2  A    between atoms: O_4  and  C_18
REMARK    3  A    between atoms: C_7  and  C_10
REMARK    4  A    between atoms: C_16  and  C_22
REMARK    5  A    between atoms: C_17  and  C_23
REMARK    6  A    between atoms: C_22  and  C_24
REMARK                            x       y       z     vdW  Elec       q    Type
REMARK                         _______ _______ _______ _____ _____    ______ ____
ROOT
ATOM      1  O   UNL     1     105.496 124.797 144.467  0.00  0.00    +0.000 OA
ATOM      2  O   UNL     1     106.646 126.373 142.347  0.00  0.00    +0.000 OA
ATOM      3  C   UNL     1     105.437 125.349 145.844  0.00  0.00    +0.000 C 
ATOM      4  C   UNL     1     105.813 126.068 145.561  0.00  0.00    +0.000 C 
ATOM      5  C   UNL     1     105.278 124.709 145.293  0.00  0.00    +0.000 C 
ATOM      6  C   UNL     1     106.024 126.138 144.731  0.00  0.00    +0.000 A 
ATOM      7  C   UNL     1     105.871 125.523 144.202  0.00  0.00    +0.000 A 
ATOM      8  C   UNL     1     106.384 126.830 144.465  0.00  0.00    +0.000 A 
ATOM      9  C   UNL     1     106.079 125.601 143.407  0.00  0.00    +0.000 A 
ATOM     10  C   UNL     1     106.592 126.909 143.671  0.00  0.00    +0.000 A 
ATOM     11  C   UNL     1     106.439 126.294 143.142  0.00  0.00    +0.000 A 
ENDROOT
BRANCH   3  13
ATOM     12  O   UNL     1     106.450 124.571 146.890  0.00  0.00    +0.000 OA
ATOM     13  C   UNL     1     105.231 125.273 146.639  0.00  0.00    +0.000 A 
ATOM     14  C   UNL     1     105.737 124.884 147.162  0.00  0.00    +0.000 A 
ATOM     15  C   UNL     1     104.518 125.586 146.912  0.00  0.00    +0.000 A 
ATOM     16  C   UNL     1     105.530 124.809 147.957  0.00  0.00    +0.000 A 
ATOM     17  C   UNL     1     104.817 125.122 148.229  0.00  0.00    +0.000 A 
ATOM     18  C   UNL     1     104.311 125.511 147.707  0.00  0.00    +0.000 A 
BRANCH  17  19
ATOM     19  O   UNL     1     104.611 125.046 149.025  0.00  0.00    +0.000 OA
ATOM     20  C   UNL     1     103.852 125.251 149.275  0.00  0.00    +0.000 C 
ENDBRANCH  17  19
BRANCH  16  21
ATOM     21  C   UNL     1     106.037 124.419 148.479  0.00  0.00    +0.000 C 
BRANCH  21  22
ATOM     22  C   UNL     1     106.726 124.791 148.739  0.00  0.00    +0.000 C 
ATOM     23  C   UNL     1     107.211 124.420 149.293  0.00  0.00    +0.000 C 
ATOM     24  C   UNL     1     107.900 124.791 149.553  0.00  0.00    +0.000 C 
ATOM     25  C   UNL     1     107.007 123.676 149.587  0.00  0.00    +0.000 C 
ENDBRANCH  21  22
ENDBRANCH  16  21
ENDBRANCH   3  13
BRANCH   8  26
ATOM     26  O   UNL     1     106.537 127.445 144.994  0.00  0.00    +0.000 OA
ATOM     27  C   UNL     1     106.886 128.142 144.726  0.00  0.00    +0.000 C 
ENDBRANCH   8  26
BRANCH   9  29
ATOM     28  O   UNL     1     106.551 124.579 142.529  0.00  0.00    +0.000 OA
ATOM     29  C   UNL     1     105.926 124.987 142.878  0.00  0.00    +0.000 C 
ENDBRANCH   9  29
TORSDOF 6
ENDMDL
MODEL 10
REMARK VINA RESULT:      -7.6     10.642     12.034
REMARK  Name = 131753029
REMARK  6 active torsions:
REMARK  status: ('A' for Active; 'I' for Inactive)
REMARK    1  A    between atoms: O_2  and  C_14
REMARK    2  A    between atoms: O_4  and  C_18
REMARK    3  A    between atoms: C_7  and  C_10
REMARK    4  A    between atoms: C_16  and  C_22
REMARK    5  A    between atoms: C_17  and  C_23
REMARK    6  A    between atoms: C_22  and  C_24
REMARK                            x       y       z     vdW  Elec       q    Type
REMARK                         _______ _______ _______ _____ _____    ______ ____
ROOT
ATOM      1  O   UNL     1     103.897 130.394 142.401  0.00  0.00    +0.000 OA
ATOM      2  O   UNL     1     104.276 127.766 141.283  0.00  0.00    +0.000 OA
ATOM      3  C   UNL     1     102.963 131.344 141.745  0.00  0.00    +0.000 C 
ATOM      4  C   UNL     1     102.792 130.749 141.150  0.00  0.00    +0.000 C 
ATOM      5  C   UNL     1     103.520 131.165 142.375  0.00  0.00    +0.000 C 
ATOM      6  C   UNL     1     103.179 129.983 141.192  0.00  0.00    +0.000 A 
ATOM      7  C   UNL     1     103.713 129.811 141.797  0.00  0.00    +0.000 A 
ATOM      8  C   UNL     1     103.010 129.415 140.618  0.00  0.00    +0.000 A 
ATOM      9  C   UNL     1     104.079 129.072 141.827  0.00  0.00    +0.000 A 
ATOM     10  C   UNL     1     103.375 128.677 140.648  0.00  0.00    +0.000 A 
ATOM     11  C   UNL     1     103.910 128.505 141.252  0.00  0.00    +0.000 A 
ENDROOT
BRANCH   3  13
ATOM     12  O   UNL     1     103.808 132.665 141.231  0.00  0.00    +0.000 OA
ATOM     13  C   UNL     1     102.596 132.082 141.713  0.00  0.00    +0.000 A 
ATOM     14  C   UNL     1     103.018 132.742 141.456  0.00  0.00    +0.000 A 
ATOM     15  C   UNL     1     101.806 132.160 141.937  0.00  0.00    +0.000 A 
ATOM     16  C   UNL     1     102.652 133.480 141.423  0.00  0.00    +0.000 A 
ATOM     17  C   UNL     1     101.862 133.558 141.648  0.00  0.00    +0.000 A 
ATOM     18  C   UNL     1     101.439 132.898 141.905  0.00  0.00    +0.000 A 
BRANCH  17  19
ATOM     19  O   UNL     1     101.495 134.297 141.615  0.00  0.00    +0.000 OA
ATOM     20  C   UNL     1     100.711 134.379 141.861  0.00  0.00    +0.000 C 
ENDBRANCH  17  19
BRANCH  16  21
ATOM     21  C   UNL     1     103.075 134.140 141.166  0.00  0.00    +0.000 C 
BRANCH  21  22
ATOM     22  C   UNL     1     103.248 134.232 140.365  0.00  0.00    +0.000 C 
ATOM     23  C   UNL     1     103.697 134.875 140.110  0.00  0.00    +0.000 C 
ATOM     24  C   UNL     1     103.871 134.967 139.309  0.00  0.00    +0.000 C 
ATOM     25  C   UNL     1     103.973 135.427 140.658  0.00  0.00    +0.000 C 
ENDBRANCH  21  22
ENDBRANCH  16  21
ENDBRANCH   3  13
BRANCH   8  26
ATOM     26  O   UNL     1     102.476 129.587 140.013  0.00  0.00    +0.000 OA
ATOM     27  C   UNL     1     102.274 129.006 139.463  0.00  0.00    +0.000 C 
ENDBRANCH   8  26
BRANCH   9  29
ATOM     28  O   UNL     1     104.483 128.253 142.925  0.00  0.00    +0.000 OA
ATOM     29  C   UNL     1     104.613 128.901 142.432  0.00  0.00    +0.000 C 
ENDBRANCH   9  29
TORSDOF 6
ENDMDL
