MODEL 1
REMARK VINA RESULT:      -9.5      0.000      0.000
REMARK  Name = 3807559
REMARK  4 active torsions:
REMARK  status: ('A' for Active; 'I' for Inactive)
REMARK    1  A    between atoms: O_2  and  C_15
REMARK    2  A    between atoms: O_2  and  C_18
REMARK    3  A    between atoms: C_16  and  C_17
REMARK    4  A    between atoms: C_25  and  C_27
REMARK                            x       y       z     vdW  Elec       q    Type
REMARK                         _______ _______ _______ _____ _____    ______ ____
ROOT
ATOM      1  O   UNL     1     111.021 125.971 136.784  0.00  0.00    +0.000 OA
ATOM      2  O   UNL     1     108.375 127.838 135.990  0.00  0.00    +0.000 OA
ATOM      3  O   UNL     1     108.849 126.620 134.983  0.00  0.00    +0.000 OA
ATOM      4  O   UNL     1     109.736 125.532 134.647  0.00  0.00    +0.000 OA
ATOM      5  C   UNL     1     109.446 127.520 136.881  0.00  0.00    +0.000 A 
ATOM      6  C   UNL     1     110.101 127.056 137.074  0.00  0.00    +0.000 A 
ATOM      7  C   UNL     1     109.029 127.374 136.184  0.00  0.00    +0.000 A 
ATOM      8  C   UNL     1     110.338 126.447 136.571  0.00  0.00    +0.000 A 
ATOM      9  C   UNL     1     109.921 126.302 135.874  0.00  0.00    +0.000 A 
ATOM     10  C   UNL     1     109.267 126.765 135.680  0.00  0.00    +0.000 A 
ATOM     11  C   UNL     1     110.158 125.671 135.342  0.00  0.00    +0.000 A 
ATOM     12  C   UNL     1     111.273 125.335 136.264  0.00  0.00    +0.000 A 
ATOM     13  C   UNL     1     110.839 125.184 135.538  0.00  0.00    +0.000 A 
ENDROOT
BRANCH  12  14
ATOM     14  C   UNL     1     111.928 124.873 136.460  0.00  0.00    +0.000 A 
ATOM     15  C   UNL     1     112.690 125.165 136.338  0.00  0.00    +0.000 A 
ATOM     16  C   UNL     1     111.820 124.119 136.778  0.00  0.00    +0.000 A 
ATOM     17  C   UNL     1     113.345 124.702 136.534  0.00  0.00    +0.000 A 
ATOM     18  C   UNL     1     112.474 123.657 136.974  0.00  0.00    +0.000 A 
ATOM     19  C   UNL     1     113.236 123.948 136.852  0.00  0.00    +0.000 A 
ENDBRANCH  12  14
BRANCH   5  20
ATOM     20  O   UNL     1     109.208 128.129 137.384  0.00  0.00    +0.000 OA
BRANCH  20  28
ATOM     21  O   UNL     1     110.186 129.104 137.015  0.00  0.00    +0.000 OA
ATOM     22  O   UNL     1     110.459 129.731 139.393  0.00  0.00    +0.000 OA
ATOM     23  O   UNL     1     109.390 128.547 138.970  0.00  0.00    +0.000 OA
ATOM     24  O   UNL     1     111.344 130.496 138.232  0.00  0.00    +0.000 OA
ATOM     25  C   UNL     1     110.368 129.522 138.600  0.00  0.00    +0.000 C 
ATOM     26  C   UNL     1     109.833 128.929 138.388  0.00  0.00    +0.000 C 
ATOM     27  C   UNL     1     110.810 129.904 138.019  0.00  0.00    +0.000 C 
ATOM     28  C   UNL     1     109.742 128.720 137.595  0.00  0.00    +0.000 C 
ATOM     29  C   UNL     1     110.719 129.695 137.226  0.00  0.00    +0.000 C 
BRANCH  29  32
ATOM     30  O   UNL     1     111.929 129.823 136.476  0.00  0.00    +0.000 OA
ATOM     31  O   UNL     1     110.839 130.716 136.234  0.00  0.00    +0.000 OA
ATOM     32  C   UNL     1     111.162 130.078 136.646  0.00  0.00    +0.000 C 
ENDBRANCH  29  32
ENDBRANCH  20  28
ENDBRANCH   5  20
TORSDOF 4
ENDMDL
MODEL 2
REMARK VINA RESULT:      -9.4      1.125      2.051
REMARK  Name = 3807559
REMARK  4 active torsions:
REMARK  status: ('A' for Active; 'I' for Inactive)
REMARK    1  A    between atoms: O_2  and  C_15
REMARK    2  A    between atoms: O_2  and  C_18
REMARK    3  A    between atoms: C_16  and  C_17
REMARK    4  A    between atoms: C_25  and  C_27
REMARK                            x       y       z     vdW  Elec       q    Type
REMARK                         _______ _______ _______ _____ _____    ______ ____
ROOT
ATOM      1  O   UNL     1     112.476 126.411 136.333  0.00  0.00    +0.000 OA
ATOM      2  O   UNL     1     109.549 127.207 134.947  0.00  0.00    +0.000 OA
ATOM      3  O   UNL     1     109.928 125.622 135.207  0.00  0.00    +0.000 OA
ATOM      4  O   UNL     1     110.832 124.599 135.677  0.00  0.00    +0.000 OA
ATOM      5  C   UNL     1     110.806 127.599 135.502  0.00  0.00    +0.000 A 
ATOM      6  C   UNL     1     111.530 127.398 135.845  0.00  0.00    +0.000 A 
ATOM      7  C   UNL     1     110.273 127.006 135.290  0.00  0.00    +0.000 A 
ATOM      8  C   UNL     1     111.720 126.606 135.975  0.00  0.00    +0.000 A 
ATOM      9  C   UNL     1     111.185 126.014 135.762  0.00  0.00    +0.000 A 
ATOM     10  C   UNL     1     110.463 126.214 135.420  0.00  0.00    +0.000 A 
ATOM     11  C   UNL     1     111.371 125.186 135.892  0.00  0.00    +0.000 A 
ATOM     12  C   UNL     1     112.679 125.587 136.470  0.00  0.00    +0.000 A 
ATOM     13  C   UNL     1     112.123 124.970 136.249  0.00  0.00    +0.000 A 
ENDROOT
BRANCH  12  14
ATOM     14  C   UNL     1     113.403 125.390 136.813  0.00  0.00    +0.000 A 
ATOM     15  C   UNL     1     113.532 125.531 137.616  0.00  0.00    +0.000 A 
ATOM     16  C   UNL     1     113.998 125.051 136.353  0.00  0.00    +0.000 A 
ATOM     17  C   UNL     1     114.256 125.334 137.959  0.00  0.00    +0.000 A 
ATOM     18  C   UNL     1     114.722 124.854 136.695  0.00  0.00    +0.000 A 
ATOM     19  C   UNL     1     114.851 124.995 137.498  0.00  0.00    +0.000 A 
ENDBRANCH  12  14
BRANCH   5  20
ATOM     20  O   UNL     1     110.616 128.391 135.372  0.00  0.00    +0.000 OA
BRANCH  20  28
ATOM     21  O   UNL     1     110.243 128.760 136.701  0.00  0.00    +0.000 OA
ATOM     22  O   UNL     1     111.499 130.879 136.467  0.00  0.00    +0.000 OA
ATOM     23  O   UNL     1     111.454 129.804 135.216  0.00  0.00    +0.000 OA
ATOM     24  O   UNL     1     110.707 130.541 137.873  0.00  0.00    +0.000 OA
ATOM     25  C   UNL     1     111.081 130.173 136.545  0.00  0.00    +0.000 C 
ATOM     26  C   UNL     1     111.058 129.634 135.919  0.00  0.00    +0.000 C 
ATOM     27  C   UNL     1     110.684 130.003 137.248  0.00  0.00    +0.000 C 
ATOM     28  C   UNL     1     110.639 128.928 135.997  0.00  0.00    +0.000 C 
ATOM     29  C   UNL     1     110.265 129.297 137.326  0.00  0.00    +0.000 C 
BRANCH  29  32
ATOM     30  O   UNL     1     110.275 128.783 138.660  0.00  0.00    +0.000 OA
ATOM     31  O   UNL     1     109.067 129.304 138.103  0.00  0.00    +0.000 OA
ATOM     32  C   UNL     1     109.869 129.128 138.029  0.00  0.00    +0.000 C 
ENDBRANCH  29  32
ENDBRANCH  20  28
ENDBRANCH   5  20
TORSDOF 4
ENDMDL
MODEL 3
REMARK VINA RESULT:      -9.2      6.972      9.402
REMARK  Name = 3807559
REMARK  4 active torsions:
REMARK  status: ('A' for Active; 'I' for Inactive)
REMARK    1  A    between atoms: O_2  and  C_15
REMARK    2  A    between atoms: O_2  and  C_18
REMARK    3  A    between atoms: C_16  and  C_17
REMARK    4  A    between atoms: C_25  and  C_27
REMARK                            x       y       z     vdW  Elec       q    Type
REMARK                         _______ _______ _______ _____ _____    ______ ____
ROOT
ATOM      1  O   UNL     1     104.982 127.789 142.454  0.00  0.00    +0.000 OA
ATOM      2  O   UNL     1     107.746 125.924 142.419  0.00  0.00    +0.000 OA
ATOM      3  O   UNL     1     107.805 127.486 141.890  0.00  0.00    +0.000 OA
ATOM      4  O   UNL     1     107.170 128.754 141.621  0.00  0.00    +0.000 OA
ATOM      5  C   UNL     1     106.352 126.071 142.698  0.00  0.00    +0.000 A 
ATOM      6  C   UNL     1     105.670 126.535 142.705  0.00  0.00    +0.000 A 
ATOM      7  C   UNL     1     107.063 126.388 142.426  0.00  0.00    +0.000 A 
ATOM      8  C   UNL     1     105.699 127.316 142.441  0.00  0.00    +0.000 A 
ATOM      9  C   UNL     1     106.411 127.633 142.169  0.00  0.00    +0.000 A 
ATOM     10  C   UNL     1     107.093 127.169 142.162  0.00  0.00    +0.000 A 
ATOM     11  C   UNL     1     106.455 128.444 141.891  0.00  0.00    +0.000 A 
ATOM     12  C   UNL     1     105.006 128.603 142.179  0.00  0.00    +0.000 A 
ATOM     13  C   UNL     1     105.747 128.933 141.896  0.00  0.00    +0.000 A 
ENDROOT
BRANCH  12  14
ATOM     14  C   UNL     1     104.323 129.065 142.188  0.00  0.00    +0.000 A 
ATOM     15  C   UNL     1     104.127 129.499 142.861  0.00  0.00    +0.000 A 
ATOM     16  C   UNL     1     103.835 129.092 141.523  0.00  0.00    +0.000 A 
ATOM     17  C   UNL     1     103.443 129.961 142.869  0.00  0.00    +0.000 A 
ATOM     18  C   UNL     1     103.152 129.553 141.530  0.00  0.00    +0.000 A 
ATOM     19  C   UNL     1     102.956 129.988 142.204  0.00  0.00    +0.000 A 
ENDBRANCH  12  14
BRANCH   5  20
ATOM     20  O   UNL     1     106.323 125.290 142.963  0.00  0.00    +0.000 OA
BRANCH  20  28
ATOM     21  O   UNL     1     106.407 125.546 144.366  0.00  0.00    +0.000 OA
ATOM     22  O   UNL     1     104.718 123.787 144.788  0.00  0.00    +0.000 OA
ATOM     23  O   UNL     1     105.197 124.117 143.244  0.00  0.00    +0.000 OA
ATOM     24  O   UNL     1     105.365 124.629 146.050  0.00  0.00    +0.000 OA
ATOM     25  C   UNL     1     105.281 124.373 144.647  0.00  0.00    +0.000 C 
ATOM     26  C   UNL     1     105.521 124.539 143.875  0.00  0.00    +0.000 C 
ATOM     27  C   UNL     1     105.605 124.795 145.278  0.00  0.00    +0.000 C 
ATOM     28  C   UNL     1     106.084 125.125 143.734  0.00  0.00    +0.000 C 
ATOM     29  C   UNL     1     106.167 125.381 145.138  0.00  0.00    +0.000 C 
BRANCH  29  32
ATOM     30  O   UNL     1     107.200 125.555 146.111  0.00  0.00    +0.000 OA
ATOM     31  O   UNL     1     106.105 126.471 146.058  0.00  0.00    +0.000 OA
ATOM     32  C   UNL     1     106.490 125.802 145.769  0.00  0.00    +0.000 C 
ENDBRANCH  29  32
ENDBRANCH  20  28
ENDBRANCH   5  20
TORSDOF 4
ENDMDL
MODEL 4
REMARK VINA RESULT:      -9.2      9.419     11.204
REMARK  Name = 3807559
REMARK  4 active torsions:
REMARK  status: ('A' for Active; 'I' for Inactive)
REMARK    1  A    between atoms: O_2  and  C_15
REMARK    2  A    between atoms: O_2  and  C_18
REMARK    3  A    between atoms: C_16  and  C_17
REMARK    4  A    between atoms: C_25  and  C_27
REMARK                            x       y       z     vdW  Elec       q    Type
REMARK                         _______ _______ _______ _____ _____    ______ ____
ROOT
ATOM      1  O   UNL     1     104.078 124.488 145.947  0.00  0.00    +0.000 OA
ATOM      2  O   UNL     1     107.252 125.446 146.302  0.00  0.00    +0.000 OA
ATOM      3  O   UNL     1     106.377 125.003 147.629  0.00  0.00    +0.000 OA
ATOM      4  O   UNL     1     105.154 124.539 148.239  0.00  0.00    +0.000 OA
ATOM      5  C   UNL     1     106.119 125.193 145.470  0.00  0.00    +0.000 A 
ATOM      6  C   UNL     1     105.333 124.955 145.385  0.00  0.00    +0.000 A 
ATOM      7  C   UNL     1     106.466 125.209 146.218  0.00  0.00    +0.000 A 
ATOM      8  C   UNL     1     104.895 124.733 146.048  0.00  0.00    +0.000 A 
ATOM      9  C   UNL     1     105.244 124.749 146.796  0.00  0.00    +0.000 A 
ATOM     10  C   UNL     1     106.028 124.987 146.881  0.00  0.00    +0.000 A 
ATOM     11  C   UNL     1     104.798 124.520 147.494  0.00  0.00    +0.000 A 
ATOM     12  C   UNL     1     103.617 124.256 146.634  0.00  0.00    +0.000 A 
ATOM     13  C   UNL     1     103.979 124.272 147.413  0.00  0.00    +0.000 A 
ENDROOT
BRANCH  12  14
ATOM     14  C   UNL     1     102.832 124.018 146.546  0.00  0.00    +0.000 A 
ATOM     15  C   UNL     1     102.222 124.497 146.830  0.00  0.00    +0.000 A 
ATOM     16  C   UNL     1     102.656 123.303 146.175  0.00  0.00    +0.000 A 
ATOM     17  C   UNL     1     101.437 124.259 146.743  0.00  0.00    +0.000 A 
ATOM     18  C   UNL     1     101.871 123.065 146.087  0.00  0.00    +0.000 A 
ATOM     19  C   UNL     1     101.262 123.543 146.371  0.00  0.00    +0.000 A 
ENDBRANCH  12  14
BRANCH   5  20
ATOM     20  O   UNL     1     106.556 125.415 144.806  0.00  0.00    +0.000 OA
BRANCH  20  28
ATOM     21  O   UNL     1     106.105 126.761 144.645  0.00  0.00    +0.000 OA
ATOM     22  O   UNL     1     105.847 126.384 142.213  0.00  0.00    +0.000 OA
ATOM     23  O   UNL     1     106.384 125.163 143.185  0.00  0.00    +0.000 OA
ATOM     24  O   UNL     1     105.483 127.855 142.863  0.00  0.00    +0.000 OA
ATOM     25  C   UNL     1     105.933 126.510 143.024  0.00  0.00    +0.000 C 
ATOM     26  C   UNL     1     106.202 125.899 143.510  0.00  0.00    +0.000 C 
ATOM     27  C   UNL     1     105.751 127.245 143.349  0.00  0.00    +0.000 C 
ATOM     28  C   UNL     1     106.288 126.025 144.321  0.00  0.00    +0.000 C 
ATOM     29  C   UNL     1     105.837 127.371 144.160  0.00  0.00    +0.000 C 
BRANCH  29  32
ATOM     30  O   UNL     1     104.874 128.292 144.677  0.00  0.00    +0.000 OA
ATOM     31  O   UNL     1     106.253 128.659 144.616  0.00  0.00    +0.000 OA
ATOM     32  C   UNL     1     105.655 128.107 144.484  0.00  0.00    +0.000 C 
ENDBRANCH  29  32
ENDBRANCH  20  28
ENDBRANCH   5  20
TORSDOF 4
ENDMDL
MODEL 5
REMARK VINA RESULT:      -9.1      2.994      3.840
REMARK  Name = 3807559
REMARK  4 active torsions:
REMARK  status: ('A' for Active; 'I' for Inactive)
REMARK    1  A    between atoms: O_2  and  C_15
REMARK    2  A    between atoms: O_2  and  C_18
REMARK    3  A    between atoms: C_16  and  C_17
REMARK    4  A    between atoms: C_25  and  C_27
REMARK                            x       y       z     vdW  Elec       q    Type
REMARK                         _______ _______ _______ _____ _____    ______ ____
ROOT
ATOM      1  O   UNL     1     113.617 126.512 138.476  0.00  0.00    +0.000 OA
ATOM      2  O   UNL     1     111.466 127.702 140.730  0.00  0.00    +0.000 OA
ATOM      3  O   UNL     1     111.032 126.427 139.776  0.00  0.00    +0.000 OA
ATOM      4  O   UNL     1     111.322 125.472 138.733  0.00  0.00    +0.000 OA
ATOM      5  C   UNL     1     112.743 127.746 140.090  0.00  0.00    +0.000 A 
ATOM      6  C   UNL     1     113.273 127.449 139.531  0.00  0.00    +0.000 A 
ATOM      7  C   UNL     1     111.996 127.405 140.171  0.00  0.00    +0.000 A 
ATOM      8  C   UNL     1     113.056 126.812 139.054  0.00  0.00    +0.000 A 
ATOM      9  C   UNL     1     112.309 126.471 139.136  0.00  0.00    +0.000 A 
ATOM     10  C   UNL     1     111.779 126.767 139.694  0.00  0.00    +0.000 A 
ATOM     11  C   UNL     1     112.071 125.807 138.645  0.00  0.00    +0.000 A 
ATOM     12  C   UNL     1     113.397 125.849 137.977  0.00  0.00    +0.000 A 
ATOM     13  C   UNL     1     112.619 125.493 138.061  0.00  0.00    +0.000 A 
ENDROOT
BRANCH  12  14
ATOM     14  C   UNL     1     113.929 125.554 137.419  0.00  0.00    +0.000 A 
ATOM     15  C   UNL     1     114.407 124.909 137.606  0.00  0.00    +0.000 A 
ATOM     16  C   UNL     1     113.982 125.905 136.674  0.00  0.00    +0.000 A 
ATOM     17  C   UNL     1     114.939 124.614 137.048  0.00  0.00    +0.000 A 
ATOM     18  C   UNL     1     114.513 125.611 136.116  0.00  0.00    +0.000 A 
ATOM     19  C   UNL     1     114.992 124.966 136.303  0.00  0.00    +0.000 A 
ENDBRANCH  12  14
BRANCH   5  20
ATOM     20  O   UNL     1     112.960 128.383 140.566  0.00  0.00    +0.000 OA
BRANCH  20  28
ATOM     21  O   UNL     1     112.892 129.441 139.608  0.00  0.00    +0.000 OA
ATOM     22  O   UNL     1     115.045 130.334 140.442  0.00  0.00    +0.000 OA
ATOM     23  O   UNL     1     114.395 128.978 141.123  0.00  0.00    +0.000 OA
ATOM     24  O   UNL     1     114.260 131.093 139.207  0.00  0.00    +0.000 OA
ATOM     25  C   UNL     1     114.327 130.036 140.164  0.00  0.00    +0.000 C 
ATOM     26  C   UNL     1     114.002 129.358 140.505  0.00  0.00    +0.000 C 
ATOM     27  C   UNL     1     113.934 130.416 139.546  0.00  0.00    +0.000 C 
ATOM     28  C   UNL     1     113.284 129.060 140.226  0.00  0.00    +0.000 C 
ATOM     29  C   UNL     1     113.217 130.118 139.268  0.00  0.00    +0.000 C 
BRANCH  29  32
ATOM     30  O   UNL     1     113.042 130.348 137.869  0.00  0.00    +0.000 OA
ATOM     31  O   UNL     1     112.215 131.029 138.814  0.00  0.00    +0.000 OA
ATOM     32  C   UNL     1     112.825 130.498 138.650  0.00  0.00    +0.000 C 
ENDBRANCH  29  32
ENDBRANCH  20  28
ENDBRANCH   5  20
TORSDOF 4
ENDMDL
MODEL 6
REMARK VINA RESULT:      -9.1      2.094      4.301
REMARK  Name = 3807559
REMARK  4 active torsions:
REMARK  status: ('A' for Active; 'I' for Inactive)
REMARK    1  A    between atoms: O_2  and  C_15
REMARK    2  A    between atoms: O_2  and  C_18
REMARK    3  A    between atoms: C_16  and  C_17
REMARK    4  A    between atoms: C_25  and  C_27
REMARK                            x       y       z     vdW  Elec       q    Type
REMARK                         _______ _______ _______ _____ _____    ______ ____
ROOT
ATOM      1  O   UNL     1     112.463 128.190 135.515  0.00  0.00    +0.000 OA
ATOM      2  O   UNL     1     109.453 126.855 134.988  0.00  0.00    +0.000 OA
ATOM      3  O   UNL     1     109.710 128.451 134.658  0.00  0.00    +0.000 OA
ATOM      4  O   UNL     1     110.570 129.610 134.612  0.00  0.00    +0.000 OA
ATOM      5  C   UNL     1     110.811 126.724 135.412  0.00  0.00    +0.000 A 
ATOM      6  C   UNL     1     111.555 127.057 135.541  0.00  0.00    +0.000 A 
ATOM      7  C   UNL     1     110.197 127.189 135.118  0.00  0.00    +0.000 A 
ATOM      8  C   UNL     1     111.684 127.855 135.376  0.00  0.00    +0.000 A 
ATOM      9  C   UNL     1     111.069 128.320 135.082  0.00  0.00    +0.000 A 
ATOM     10  C   UNL     1     110.326 127.987 134.953  0.00  0.00    +0.000 A 
ATOM     11  C   UNL     1     111.190 129.152 134.906  0.00  0.00    +0.000 A 
ATOM     12  C   UNL     1     112.603 129.021 135.345  0.00  0.00    +0.000 A 
ATOM     13  C   UNL     1     111.963 129.505 135.039  0.00  0.00    +0.000 A 
ENDROOT
BRANCH  12  14
ATOM     14  C   UNL     1     113.348 129.352 135.476  0.00  0.00    +0.000 A 
ATOM     15  C   UNL     1     113.508 129.740 136.186  0.00  0.00    +0.000 A 
ATOM     16  C   UNL     1     113.932 129.294 134.896  0.00  0.00    +0.000 A 
ATOM     17  C   UNL     1     114.253 130.070 136.316  0.00  0.00    +0.000 A 
ATOM     18  C   UNL     1     114.676 129.624 135.025  0.00  0.00    +0.000 A 
ATOM     19  C   UNL     1     114.837 130.012 135.735  0.00  0.00    +0.000 A 
ENDBRANCH  12  14
BRANCH   5  20
ATOM     20  O   UNL     1     110.682 125.926 135.577  0.00  0.00    +0.000 OA
BRANCH  20  28
ATOM     21  O   UNL     1     110.562 126.044 136.996  0.00  0.00    +0.000 OA
ATOM     22  O   UNL     1     111.811 123.926 137.278  0.00  0.00    +0.000 OA
ATOM     23  O   UNL     1     111.515 124.513 135.765  0.00  0.00    +0.000 OA
ATOM     24  O   UNL     1     111.275 124.750 138.602  0.00  0.00    +0.000 OA
ATOM     25  C   UNL     1     111.395 124.632 137.184  0.00  0.00    +0.000 C 
ATOM     26  C   UNL     1     111.247 124.926 136.427  0.00  0.00    +0.000 C 
ATOM     27  C   UNL     1     111.126 125.044 137.846  0.00  0.00    +0.000 C 
ATOM     28  C   UNL     1     110.830 125.632 136.333  0.00  0.00    +0.000 C 
ATOM     29  C   UNL     1     110.710 125.750 137.752  0.00  0.00    +0.000 C 
BRANCH  29  32
ATOM     30  O   UNL     1     110.963 126.633 138.846  0.00  0.00    +0.000 OA
ATOM     31  O   UNL     1     109.652 126.103 138.644  0.00  0.00    +0.000 OA
ATOM     32  C   UNL     1     110.442 126.162 138.414  0.00  0.00    +0.000 C 
ENDBRANCH  29  32
ENDBRANCH  20  28
ENDBRANCH   5  20
TORSDOF 4
ENDMDL
MODEL 7
REMARK VINA RESULT:      -9.0      3.589      5.044
REMARK  Name = 3807559
REMARK  4 active torsions:
REMARK  status: ('A' for Active; 'I' for Inactive)
REMARK    1  A    between atoms: O_2  and  C_15
REMARK    2  A    between atoms: O_2  and  C_18
REMARK    3  A    between atoms: C_16  and  C_17
REMARK    4  A    between atoms: C_25  and  C_27
REMARK                            x       y       z     vdW  Elec       q    Type
REMARK                         _______ _______ _______ _____ _____    ______ ____
ROOT
ATOM      1  O   UNL     1     112.632 130.817 136.529  0.00  0.00    +0.000 OA
ATOM      2  O   UNL     1     110.372 131.730 138.806  0.00  0.00    +0.000 OA
ATOM      3  O   UNL     1     111.692 130.853 139.267  0.00  0.00    +0.000 OA
ATOM      4  O   UNL     1     112.928 130.174 138.961  0.00  0.00    +0.000 OA
ATOM      5  C   UNL     1     110.833 131.713 137.454  0.00  0.00    +0.000 A 
ATOM      6  C   UNL     1     111.395 131.486 136.893  0.00  0.00    +0.000 A 
ATOM      7  C   UNL     1     110.933 131.502 138.245  0.00  0.00    +0.000 A 
ATOM      8  C   UNL     1     112.055 131.048 137.123  0.00  0.00    +0.000 A 
ATOM      9  C   UNL     1     112.153 130.837 137.915  0.00  0.00    +0.000 A 
ATOM     10  C   UNL     1     111.593 131.064 138.476  0.00  0.00    +0.000 A 
ATOM     11  C   UNL     1     112.836 130.381 138.167  0.00  0.00    +0.000 A 
ATOM     12  C   UNL     1     113.321 130.361 136.764  0.00  0.00    +0.000 A 
ATOM     13  C   UNL     1     113.424 130.141 137.588  0.00  0.00    +0.000 A 
ENDROOT
BRANCH  12  14
ATOM     14  C   UNL     1     113.880 130.135 136.201  0.00  0.00    +0.000 A 
ATOM     15  C   UNL     1     114.518 130.630 136.031  0.00  0.00    +0.000 A 
ATOM     16  C   UNL     1     113.801 129.414 135.807  0.00  0.00    +0.000 A 
ATOM     17  C   UNL     1     115.077 130.404 135.469  0.00  0.00    +0.000 A 
ATOM     18  C   UNL     1     114.359 129.187 135.244  0.00  0.00    +0.000 A 
ATOM     19  C   UNL     1     114.998 129.682 135.075  0.00  0.00    +0.000 A 
ENDBRANCH  12  14
BRANCH   5  20
ATOM     20  O   UNL     1     110.174 132.151 137.223  0.00  0.00    +0.000 OA
BRANCH  20  28
ATOM     21  O   UNL     1     109.403 131.132 136.584  0.00  0.00    +0.000 OA
ATOM     22  O   UNL     1     108.939 132.666 134.698  0.00  0.00    +0.000 OA
ATOM     23  O   UNL     1     109.864 133.174 135.966  0.00  0.00    +0.000 OA
ATOM     24  O   UNL     1     108.323 131.136 134.687  0.00  0.00    +0.000 OA
ATOM     25  C   UNL     1     109.094 132.155 135.327  0.00  0.00    +0.000 C 
ATOM     26  C   UNL     1     109.557 132.409 135.961  0.00  0.00    +0.000 C 
ATOM     27  C   UNL     1     108.786 131.390 135.322  0.00  0.00    +0.000 C 
ATOM     28  C   UNL     1     109.711 131.898 136.590  0.00  0.00    +0.000 C 
ATOM     29  C   UNL     1     108.940 130.878 135.950  0.00  0.00    +0.000 C 
BRANCH  29  32
ATOM     30  O   UNL     1     109.065 129.496 135.609  0.00  0.00    +0.000 OA
ATOM     31  O   UNL     1     107.891 129.965 136.275  0.00  0.00    +0.000 OA
ATOM     32  C   UNL     1     108.633 130.114 135.945  0.00  0.00    +0.000 C 
ENDBRANCH  29  32
ENDBRANCH  20  28
ENDBRANCH   5  20
TORSDOF 4
ENDMDL
MODEL 8
REMARK VINA RESULT:      -9.0      1.694      2.293
REMARK  Name = 3807559
REMARK  4 active torsions:
REMARK  status: ('A' for Active; 'I' for Inactive)
REMARK    1  A    between atoms: O_2  and  C_15
REMARK    2  A    between atoms: O_2  and  C_18
REMARK    3  A    between atoms: C_16  and  C_17
REMARK    4  A    between atoms: C_25  and  C_27
REMARK                            x       y       z     vdW  Elec       q    Type
REMARK                         _______ _______ _______ _____ _____    ______ ____
ROOT
ATOM      1  O   UNL     1     111.868 126.265 136.507  0.00  0.00    +0.000 OA
ATOM      2  O   UNL     1     110.382 128.947 135.195  0.00  0.00    +0.000 OA
ATOM      3  O   UNL     1     110.021 127.445 134.615  0.00  0.00    +0.000 OA
ATOM      4  O   UNL     1     110.190 126.012 134.626  0.00  0.00    +0.000 OA
ATOM      5  C   UNL     1     111.294 128.367 136.130  0.00  0.00    +0.000 A 
ATOM      6  C   UNL     1     111.660 127.701 136.452  0.00  0.00    +0.000 A 
ATOM      7  C   UNL     1     110.748 128.281 135.518  0.00  0.00    +0.000 A 
ATOM      8  C   UNL     1     111.480 126.950 136.162  0.00  0.00    +0.000 A 
ATOM      9  C   UNL     1     110.933 126.865 135.550  0.00  0.00    +0.000 A 
ATOM     10  C   UNL     1     110.568 127.530 135.228  0.00  0.00    +0.000 A 
ATOM     11  C   UNL     1     110.737 126.089 135.239  0.00  0.00    +0.000 A 
ATOM     12  C   UNL     1     111.684 125.481 136.209  0.00  0.00    +0.000 A 
ATOM     13  C   UNL     1     111.115 125.391 135.571  0.00  0.00    +0.000 A 
ENDROOT
BRANCH  12  14
ATOM     14  C   UNL     1     112.051 124.817 136.533  0.00  0.00    +0.000 A 
ATOM     15  C   UNL     1     112.871 124.735 136.486  0.00  0.00    +0.000 A 
ATOM     16  C   UNL     1     111.599 124.235 136.904  0.00  0.00    +0.000 A 
ATOM     17  C   UNL     1     113.239 124.071 136.810  0.00  0.00    +0.000 A 
ATOM     18  C   UNL     1     111.966 123.572 137.229  0.00  0.00    +0.000 A 
ATOM     19  C   UNL     1     112.785 123.489 137.181  0.00  0.00    +0.000 A 
ENDBRANCH  12  14
BRANCH   5  20
ATOM     20  O   UNL     1     111.474 129.118 136.420  0.00  0.00    +0.000 OA
BRANCH  20  28
ATOM     21  O   UNL     1     112.772 129.239 135.835  0.00  0.00    +0.000 OA
ATOM     22  O   UNL     1     113.594 130.349 137.889  0.00  0.00    +0.000 OA
ATOM     23  O   UNL     1     112.022 129.858 137.789  0.00  0.00    +0.000 OA
ATOM     24  O   UNL     1     114.617 130.099 136.620  0.00  0.00    +0.000 OA
ATOM     25  C   UNL     1     113.320 129.979 137.204  0.00  0.00    +0.000 C 
ATOM     26  C   UNL     1     112.533 129.733 137.154  0.00  0.00    +0.000 C 
ATOM     27  C   UNL     1     113.832 129.854 136.569  0.00  0.00    +0.000 C 
ATOM     28  C   UNL     1     112.259 129.363 136.470  0.00  0.00    +0.000 C 
ATOM     29  C   UNL     1     113.557 129.484 135.885  0.00  0.00    +0.000 C 
BRANCH  29  32
ATOM     30  O   UNL     1     114.084 129.893 134.621  0.00  0.00    +0.000 OA
ATOM     31  O   UNL     1     114.567 128.702 135.245  0.00  0.00    +0.000 OA
ATOM     32  C   UNL     1     114.069 129.360 135.250  0.00  0.00    +0.000 C 
ENDBRANCH  29  32
ENDBRANCH  20  28
ENDBRANCH   5  20
TORSDOF 4
ENDMDL
MODEL 9
REMARK VINA RESULT:      -9.0      1.808      3.145
REMARK  Name = 3807559
REMARK  4 active torsions:
REMARK  status: ('A' for Active; 'I' for Inactive)
REMARK    1  A    between atoms: O_2  and  C_15
REMARK    2  A    between atoms: O_2  and  C_18
REMARK    3  A    between atoms: C_16  and  C_17
REMARK    4  A    between atoms: C_25  and  C_27
REMARK                            x       y       z     vdW  Elec       q    Type
REMARK                         _______ _______ _______ _____ _____    ______ ____
ROOT
ATOM      1  O   UNL     1     113.043 127.213 136.879  0.00  0.00    +0.000 OA
ATOM      2  O   UNL     1     112.822 130.468 136.182  0.00  0.00    +0.000 OA
ATOM      3  O   UNL     1     114.058 129.576 135.549  0.00  0.00    +0.000 OA
ATOM      4  O   UNL     1     114.759 128.325 135.385  0.00  0.00    +0.000 OA
ATOM      5  C   UNL     1     112.319 129.303 136.840  0.00  0.00    +0.000 A 
ATOM      6  C   UNL     1     112.377 128.497 137.011  0.00  0.00    +0.000 A 
ATOM      7  C   UNL     1     112.880 129.662 136.353  0.00  0.00    +0.000 A 
ATOM      8  C   UNL     1     112.994 128.051 136.694  0.00  0.00    +0.000 A 
ATOM      9  C   UNL     1     113.555 128.411 136.207  0.00  0.00    +0.000 A 
ATOM     10  C   UNL     1     113.497 129.216 136.036  0.00  0.00    +0.000 A 
ATOM     11  C   UNL     1     114.202 127.958 135.871  0.00  0.00    +0.000 A 
ATOM     12  C   UNL     1     113.684 126.744 136.552  0.00  0.00    +0.000 A 
ATOM     13  C   UNL     1     114.268 127.118 136.045  0.00  0.00    +0.000 A 
ENDROOT
BRANCH  12  14
ATOM     14  C   UNL     1     113.739 125.939 136.725  0.00  0.00    +0.000 A 
ATOM     15  C   UNL     1     114.299 125.671 137.268  0.00  0.00    +0.000 A 
ATOM     16  C   UNL     1     113.234 125.403 136.354  0.00  0.00    +0.000 A 
ATOM     17  C   UNL     1     114.354 124.866 137.440  0.00  0.00    +0.000 A 
ATOM     18  C   UNL     1     113.288 124.598 136.525  0.00  0.00    +0.000 A 
ATOM     19  C   UNL     1     113.848 124.330 137.068  0.00  0.00    +0.000 A 
ENDBRANCH  12  14
BRANCH   5  20
ATOM     20  O   UNL     1     111.701 129.749 137.157  0.00  0.00    +0.000 OA
BRANCH  20  28
ATOM     21  O   UNL     1     110.683 129.411 136.213  0.00  0.00    +0.000 OA
ATOM     22  O   UNL     1     109.044 129.203 138.055  0.00  0.00    +0.000 OA
ATOM     23  O   UNL     1     110.608 129.610 138.385  0.00  0.00    +0.000 OA
ATOM     24  O   UNL     1     108.573 128.934 136.497  0.00  0.00    +0.000 OA
ATOM     25  C   UNL     1     109.590 129.272 137.441  0.00  0.00    +0.000 C 
ATOM     26  C   UNL     1     110.373 129.476 137.606  0.00  0.00    +0.000 C 
ATOM     27  C   UNL     1     109.355 129.138 136.662  0.00  0.00    +0.000 C 
ATOM     28  C   UNL     1     110.920 129.545 136.992  0.00  0.00    +0.000 C 
ATOM     29  C   UNL     1     109.902 129.207 136.048  0.00  0.00    +0.000 C 
BRANCH  29  32
ATOM     30  O   UNL     1     109.628 128.302 134.976  0.00  0.00    +0.000 OA
ATOM     31  O   UNL     1     109.467 129.709 134.783  0.00  0.00    +0.000 OA
ATOM     32  C   UNL     1     109.666 129.073 135.269  0.00  0.00    +0.000 C 
ENDBRANCH  29  32
ENDBRANCH  20  28
ENDBRANCH   5  20
TORSDOF 4
ENDMDL
MODEL 10
REMARK VINA RESULT:      -9.0      2.128      3.247
REMARK  Name = 3807559
REMARK  4 active torsions:
REMARK  status: ('A' for Active; 'I' for Inactive)
REMARK    1  A    between atoms: O_2  and  C_15
REMARK    2  A    between atoms: O_2  and  C_18
REMARK    3  A    between atoms: C_16  and  C_17
REMARK    4  A    between atoms: C_25  and  C_27
REMARK                            x       y       z     vdW  Elec       q    Type
REMARK                         _______ _______ _______ _____ _____    ______ ____
ROOT
ATOM      1  O   UNL     1     112.194 126.746 137.742  0.00  0.00    +0.000 OA
ATOM      2  O   UNL     1     110.810 125.680 134.901  0.00  0.00    +0.000 OA
ATOM      3  O   UNL     1     111.114 124.607 136.117  0.00  0.00    +0.000 OA
ATOM      4  O   UNL     1     111.608 124.301 137.439  0.00  0.00    +0.000 OA
ATOM      5  C   UNL     1     111.342 126.738 135.701  0.00  0.00    +0.000 A 
ATOM      6  C   UNL     1     111.685 126.999 136.406  0.00  0.00    +0.000 A 
ATOM      7  C   UNL     1     111.152 125.941 135.606  0.00  0.00    +0.000 A 
ATOM      8  C   UNL     1     111.837 126.462 137.014  0.00  0.00    +0.000 A 
ATOM      9  C   UNL     1     111.647 125.665 136.917  0.00  0.00    +0.000 A 
ATOM     10  C   UNL     1     111.305 125.404 136.214  0.00  0.00    +0.000 A 
ATOM     11  C   UNL     1     111.801 125.097 137.543  0.00  0.00    +0.000 A 
ATOM     12  C   UNL     1     112.355 126.192 138.378  0.00  0.00    +0.000 A 
ATOM     13  C   UNL     1     112.157 125.362 138.279  0.00  0.00    +0.000 A 
ENDROOT
BRANCH  12  14
ATOM     14  C   UNL     1     112.698 126.456 139.081  0.00  0.00    +0.000 A 
ATOM     15  C   UNL     1     112.223 126.617 139.736  0.00  0.00    +0.000 A 
ATOM     16  C   UNL     1     113.515 126.557 139.129  0.00  0.00    +0.000 A 
ATOM     17  C   UNL     1     112.565 126.880 140.439  0.00  0.00    +0.000 A 
ATOM     18  C   UNL     1     113.858 126.821 139.831  0.00  0.00    +0.000 A 
ATOM     19  C   UNL     1     113.383 126.982 140.486  0.00  0.00    +0.000 A 
ENDBRANCH  12  14
BRANCH   5  20
ATOM     20  O   UNL     1     111.190 127.274 135.093  0.00  0.00    +0.000 OA
BRANCH  20  28
ATOM     21  O   UNL     1     110.027 127.903 135.638  0.00  0.00    +0.000 OA
ATOM     22  O   UNL     1     110.883 130.110 134.916  0.00  0.00    +0.000 OA
ATOM     23  O   UNL     1     111.760 128.746 134.612  0.00  0.00    +0.000 OA
ATOM     24  O   UNL     1     109.436 130.002 135.701  0.00  0.00    +0.000 OA
ATOM     25  C   UNL     1     110.598 129.374 135.157  0.00  0.00    +0.000 C 
ATOM     26  C   UNL     1     111.036 128.692 135.005  0.00  0.00    +0.000 C 
ATOM     27  C   UNL     1     109.874 129.320 135.549  0.00  0.00    +0.000 C 
ATOM     28  C   UNL     1     110.751 127.956 135.245  0.00  0.00    +0.000 C 
ATOM     29  C   UNL     1     109.589 128.584 135.790  0.00  0.00    +0.000 C 
BRANCH  29  32
ATOM     30  O   UNL     1     108.179 128.354 135.760  0.00  0.00    +0.000 OA
ATOM     31  O   UNL     1     108.829 128.653 136.997  0.00  0.00    +0.000 OA
ATOM     32  C   UNL     1     108.866 128.530 136.182  0.00  0.00    +0.000 C 
ENDBRANCH  29  32
ENDBRANCH  20  28
ENDBRANCH   5  20
TORSDOF 4
ENDMDL
