MODEL 1
REMARK VINA RESULT:      -7.5      0.000      0.000
REMARK  Name = 584467
REMARK  4 active torsions:
REMARK  status: ('A' for Active; 'I' for Inactive)
REMARK    1  A    between atoms: O_3  and  C_12
REMARK    2  A    between atoms: O_4  and  C_17
REMARK    3  A    between atoms: O_5  and  C_20
REMARK    4  A    between atoms: C_7  and  C_11
REMARK                            x       y       z     vdW  Elec       q    Type
REMARK                         _______ _______ _______ _____ _____    ______ ____
ROOT
ATOM      1  O   UNL     1     104.364 124.591 145.846  0.00  0.00    +0.000 OA
ATOM      2  O   UNL     1     105.428 124.418 148.073  0.00  0.00    +0.000 OA
ATOM      3  C   UNL     1     104.320 124.162 147.208  0.00  0.00    +0.000 C 
ATOM      4  C   UNL     1     103.965 124.219 146.465  0.00  0.00    +0.000 C 
ATOM      5  C   UNL     1     105.073 124.476 147.331  0.00  0.00    +0.000 C 
ATOM      6  C   UNL     1     105.471 124.847 146.711  0.00  0.00    +0.000 A 
ATOM      7  C   UNL     1     105.116 124.905 145.968  0.00  0.00    +0.000 A 
ATOM      8  C   UNL     1     106.255 125.170 146.851  0.00  0.00    +0.000 A 
ATOM      9  C   UNL     1     105.521 125.289 145.315  0.00  0.00    +0.000 A 
ATOM     10  C   UNL     1     106.675 125.558 146.210  0.00  0.00    +0.000 A 
ATOM     11  C   UNL     1     106.305 125.618 145.436  0.00  0.00    +0.000 A 
ENDROOT
BRANCH   4  12
ATOM     12  C   UNL     1     103.212 123.906 146.343  0.00  0.00    +0.000 A 
ATOM     13  C   UNL     1     102.546 124.313 146.610  0.00  0.00    +0.000 A 
ATOM     14  C   UNL     1     103.125 123.185 145.952  0.00  0.00    +0.000 A 
ATOM     15  C   UNL     1     101.794 123.999 146.488  0.00  0.00    +0.000 A 
ATOM     16  C   UNL     1     102.371 122.870 145.829  0.00  0.00    +0.000 A 
ATOM     17  C   UNL     1     101.706 123.278 146.097  0.00  0.00    +0.000 A 
BRANCH  17  18
ATOM     18  O   UNL     1     100.953 122.963 145.974  0.00  0.00    +0.000 OA
ATOM     19  C   UNL     1     100.719 122.739 145.216  0.00  0.00    +0.000 C 
ENDBRANCH  17  18
ENDBRANCH   4  12
BRANCH   8  20
ATOM     20  O   UNL     1     106.602 125.108 147.597  0.00  0.00    +0.000 OA
ATOM     21  C   UNL     1     107.417 125.209 147.683  0.00  0.00    +0.000 C 
ENDBRANCH   8  20
BRANCH  11  22
ATOM     22  O   UNL     1     106.701 125.989 144.815  0.00  0.00    +0.000 OA
ATOM     23  C   UNL     1     106.411 126.694 144.503  0.00  0.00    +0.000 C 
ENDBRANCH  11  22
TORSDOF 4
ENDMDL
MODEL 2
REMARK VINA RESULT:      -7.4     12.461     13.944
REMARK  Name = 584467
REMARK  4 active torsions:
REMARK  status: ('A' for Active; 'I' for Inactive)
REMARK    1  A    between atoms: O_3  and  C_12
REMARK    2  A    between atoms: O_4  and  C_17
REMARK    3  A    between atoms: O_5  and  C_20
REMARK    4  A    between atoms: C_7  and  C_11
REMARK                            x       y       z     vdW  Elec       q    Type
REMARK                         _______ _______ _______ _____ _____    ______ ____
ROOT
ATOM      1  O   UNL     1     112.292 127.301 135.996  0.00  0.00    +0.000 OA
ATOM      2  O   UNL     1     113.542 125.432 137.031  0.00  0.00    +0.000 OA
ATOM      3  C   UNL     1     113.455 126.811 136.665  0.00  0.00    +0.000 C 
ATOM      4  C   UNL     1     113.039 127.434 136.320  0.00  0.00    +0.000 C 
ATOM      5  C   UNL     1     113.125 126.055 136.686  0.00  0.00    +0.000 C 
ATOM      6  C   UNL     1     112.378 125.923 136.362  0.00  0.00    +0.000 A 
ATOM      7  C   UNL     1     111.962 126.545 136.017  0.00  0.00    +0.000 A 
ATOM      8  C   UNL     1     112.045 125.131 136.389  0.00  0.00    +0.000 A 
ATOM      9  C   UNL     1     111.183 126.420 135.675  0.00  0.00    +0.000 A 
ATOM     10  C   UNL     1     111.267 124.986 136.053  0.00  0.00    +0.000 A 
ATOM     11  C   UNL     1     110.834 125.635 135.694  0.00  0.00    +0.000 A 
ENDROOT
BRANCH   4  12
ATOM     12  C   UNL     1     113.369 128.189 136.300  0.00  0.00    +0.000 A 
ATOM     13  C   UNL     1     113.204 128.729 136.902  0.00  0.00    +0.000 A 
ATOM     14  C   UNL     1     113.864 128.406 135.676  0.00  0.00    +0.000 A 
ATOM     15  C   UNL     1     113.534 129.484 136.881  0.00  0.00    +0.000 A 
ATOM     16  C   UNL     1     114.195 129.162 135.655  0.00  0.00    +0.000 A 
ATOM     17  C   UNL     1     114.030 129.700 136.258  0.00  0.00    +0.000 A 
BRANCH  17  18
ATOM     18  O   UNL     1     114.361 130.457 136.237  0.00  0.00    +0.000 OA
ATOM     19  C   UNL     1     115.007 130.610 135.748  0.00  0.00    +0.000 C 
ENDBRANCH  17  18
ENDBRANCH   4  12
BRANCH   8  20
ATOM     20  O   UNL     1     112.469 124.514 136.737  0.00  0.00    +0.000 OA
ATOM     21  C   UNL     1     112.128 123.765 136.804  0.00  0.00    +0.000 C 
ENDBRANCH   8  20
BRANCH  11  22
ATOM     22  O   UNL     1     110.087 125.505 135.369  0.00  0.00    +0.000 OA
ATOM     23  C   UNL     1     109.911 125.784 134.613  0.00  0.00    +0.000 C 
ENDBRANCH  11  22
TORSDOF 4
ENDMDL
MODEL 3
REMARK VINA RESULT:      -7.4      1.250      4.752
REMARK  Name = 584467
REMARK  4 active torsions:
REMARK  status: ('A' for Active; 'I' for Inactive)
REMARK    1  A    between atoms: O_3  and  C_12
REMARK    2  A    between atoms: O_4  and  C_17
REMARK    3  A    between atoms: O_5  and  C_20
REMARK    4  A    between atoms: C_7  and  C_11
REMARK                            x       y       z     vdW  Elec       q    Type
REMARK                         _______ _______ _______ _____ _____    ______ ____
ROOT
ATOM      1  O   UNL     1     104.026 124.920 147.390  0.00  0.00    +0.000 OA
ATOM      2  O   UNL     1     103.345 123.489 145.489  0.00  0.00    +0.000 OA
ATOM      3  C   UNL     1     104.368 124.154 146.234  0.00  0.00    +0.000 C 
ATOM      4  C   UNL     1     104.595 124.631 146.867  0.00  0.00    +0.000 C 
ATOM      5  C   UNL     1     103.572 123.966 146.123  0.00  0.00    +0.000 C 
ATOM      6  C   UNL     1     103.004 124.256 146.646  0.00  0.00    +0.000 A 
ATOM      7  C   UNL     1     103.231 124.732 147.280  0.00  0.00    +0.000 A 
ATOM      8  C   UNL     1     102.178 124.053 146.520  0.00  0.00    +0.000 A 
ATOM      9  C   UNL     1     102.647 125.040 147.831  0.00  0.00    +0.000 A 
ATOM     10  C   UNL     1     101.581 124.351 147.061  0.00  0.00    +0.000 A 
ATOM     11  C   UNL     1     101.817 124.848 147.721  0.00  0.00    +0.000 A 
ENDROOT
BRANCH   4  12
ATOM     12  C   UNL     1     105.390 124.819 146.978  0.00  0.00    +0.000 A 
ATOM     13  C   UNL     1     105.806 125.221 146.389  0.00  0.00    +0.000 A 
ATOM     14  C   UNL     1     105.771 124.604 147.677  0.00  0.00    +0.000 A 
ATOM     15  C   UNL     1     106.601 125.408 146.500  0.00  0.00    +0.000 A 
ATOM     16  C   UNL     1     106.568 124.791 147.788  0.00  0.00    +0.000 A 
ATOM     17  C   UNL     1     106.982 125.194 147.199  0.00  0.00    +0.000 A 
BRANCH  17  18
ATOM     18  O   UNL     1     107.778 125.381 147.310  0.00  0.00    +0.000 OA
ATOM     19  C   UNL     1     108.197 125.045 147.936  0.00  0.00    +0.000 C 
ENDBRANCH  17  18
ENDBRANCH   4  12
BRANCH   8  20
ATOM     20  O   UNL     1     101.960 123.575 145.883  0.00  0.00    +0.000 OA
ATOM     21  C   UNL     1     101.165 123.391 145.758  0.00  0.00    +0.000 C 
ENDBRANCH   8  20
BRANCH  11  22
ATOM     22  O   UNL     1     101.251 125.138 148.246  0.00  0.00    +0.000 OA
ATOM     23  C   UNL     1     101.250 124.890 149.032  0.00  0.00    +0.000 C 
ENDBRANCH  11  22
TORSDOF 4
ENDMDL
MODEL 4
REMARK VINA RESULT:      -7.3      0.957      2.215
REMARK  Name = 584467
REMARK  4 active torsions:
REMARK  status: ('A' for Active; 'I' for Inactive)
REMARK    1  A    between atoms: O_3  and  C_12
REMARK    2  A    between atoms: O_4  and  C_17
REMARK    3  A    between atoms: O_5  and  C_20
REMARK    4  A    between atoms: C_7  and  C_11
REMARK                            x       y       z     vdW  Elec       q    Type
REMARK                         _______ _______ _______ _____ _____    ______ ____
ROOT
ATOM      1  O   UNL     1     105.032 124.235 147.239  0.00  0.00    +0.000 OA
ATOM      2  O   UNL     1     106.117 125.704 145.569  0.00  0.00    +0.000 OA
ATOM      3  C   UNL     1     105.057 124.817 145.934  0.00  0.00    +0.000 C 
ATOM      4  C   UNL     1     104.696 124.327 146.491  0.00  0.00    +0.000 C 
ATOM      5  C   UNL     1     105.755 125.215 146.125  0.00  0.00    +0.000 C 
ATOM      6  C   UNL     1     106.091 125.121 146.873  0.00  0.00    +0.000 A 
ATOM      7  C   UNL     1     105.729 124.631 147.430  0.00  0.00    +0.000 A 
ATOM      8  C   UNL     1     106.818 125.540 147.061  0.00  0.00    +0.000 A 
ATOM      9  C   UNL     1     106.070 124.527 148.212  0.00  0.00    +0.000 A 
ATOM     10  C   UNL     1     107.172 125.448 147.838  0.00  0.00    +0.000 A 
ATOM     11  C   UNL     1     106.796 124.938 148.417  0.00  0.00    +0.000 A 
ENDROOT
BRANCH   4  12
ATOM     12  C   UNL     1     103.999 123.930 146.300  0.00  0.00    +0.000 A 
ATOM     13  C   UNL     1     104.022 123.269 145.807  0.00  0.00    +0.000 A 
ATOM     14  C   UNL     1     103.278 124.194 146.601  0.00  0.00    +0.000 A 
ATOM     15  C   UNL     1     103.325 122.872 145.615  0.00  0.00    +0.000 A 
ATOM     16  C   UNL     1     102.580 123.797 146.410  0.00  0.00    +0.000 A 
ATOM     17  C   UNL     1     102.604 123.136 145.917  0.00  0.00    +0.000 A 
BRANCH  17  18
ATOM     18  O   UNL     1     101.906 122.739 145.726  0.00  0.00    +0.000 OA
ATOM     19  C   UNL     1     101.178 123.051 145.957  0.00  0.00    +0.000 C 
ENDBRANCH  17  18
ENDBRANCH   4  12
BRANCH   8  20
ATOM     20  O   UNL     1     107.172 126.028 146.497  0.00  0.00    +0.000 OA
ATOM     21  C   UNL     1     107.444 126.777 146.713  0.00  0.00    +0.000 C 
ENDBRANCH   8  20
BRANCH  11  22
ATOM     22  O   UNL     1     107.129 124.843 149.166  0.00  0.00    +0.000 OA
ATOM     23  C   UNL     1     107.724 124.285 149.285  0.00  0.00    +0.000 C 
ENDBRANCH  11  22
TORSDOF 4
ENDMDL
MODEL 5
REMARK VINA RESULT:      -7.3     12.242     14.605
REMARK  Name = 584467
REMARK  4 active torsions:
REMARK  status: ('A' for Active; 'I' for Inactive)
REMARK    1  A    between atoms: O_3  and  C_12
REMARK    2  A    between atoms: O_4  and  C_17
REMARK    3  A    between atoms: O_5  and  C_20
REMARK    4  A    between atoms: C_7  and  C_11
REMARK                            x       y       z     vdW  Elec       q    Type
REMARK                         _______ _______ _______ _____ _____    ______ ____
ROOT
ATOM      1  O   UNL     1     113.964 127.495 136.233  0.00  0.00    +0.000 OA
ATOM      2  O   UNL     1     111.502 127.302 136.070  0.00  0.00    +0.000 OA
ATOM      3  C   UNL     1     112.689 128.093 135.988  0.00  0.00    +0.000 C 
ATOM      4  C   UNL     1     113.510 128.157 136.043  0.00  0.00    +0.000 C 
ATOM      5  C   UNL     1     112.322 127.366 136.124  0.00  0.00    +0.000 C 
ATOM      6  C   UNL     1     112.777 126.705 136.315  0.00  0.00    +0.000 A 
ATOM      7  C   UNL     1     113.597 126.769 136.369  0.00  0.00    +0.000 A 
ATOM      8  C   UNL     1     112.383 125.953 136.454  0.00  0.00    +0.000 A 
ATOM      9  C   UNL     1     114.081 126.086 136.566  0.00  0.00    +0.000 A 
ATOM     10  C   UNL     1     112.850 125.260 136.652  0.00  0.00    +0.000 A 
ATOM     11  C   UNL     1     113.705 125.327 136.709  0.00  0.00    +0.000 A 
ENDROOT
BRANCH   4  12
ATOM     12  C   UNL     1     113.876 128.883 135.907  0.00  0.00    +0.000 A 
ATOM     13  C   UNL     1     114.215 129.045 135.172  0.00  0.00    +0.000 A 
ATOM     14  C   UNL     1     113.905 129.449 136.507  0.00  0.00    +0.000 A 
ATOM     15  C   UNL     1     114.581 129.771 135.036  0.00  0.00    +0.000 A 
ATOM     16  C   UNL     1     114.271 130.177 136.371  0.00  0.00    +0.000 A 
ATOM     17  C   UNL     1     114.609 130.337 135.636  0.00  0.00    +0.000 A 
BRANCH  17  18
ATOM     18  O   UNL     1     114.976 131.064 135.500  0.00  0.00    +0.000 OA
ATOM     19  C   UNL     1     115.612 131.113 134.977  0.00  0.00    +0.000 C 
ENDBRANCH  17  18
ENDBRANCH   4  12
BRANCH   8  20
ATOM     20  O   UNL     1     111.562 125.898 136.397  0.00  0.00    +0.000 OA
ATOM     21  C   UNL     1     111.192 125.164 136.465  0.00  0.00    +0.000 C 
ENDBRANCH   8  20
BRANCH  11  22
ATOM     22  O   UNL     1     114.161 124.667 136.899  0.00  0.00    +0.000 OA
ATOM     23  C   UNL     1     114.713 124.708 137.510  0.00  0.00    +0.000 C 
ENDBRANCH  11  22
TORSDOF 4
ENDMDL
MODEL 6
REMARK VINA RESULT:      -7.3      6.272      7.188
REMARK  Name = 584467
REMARK  4 active torsions:
REMARK  status: ('A' for Active; 'I' for Inactive)
REMARK    1  A    between atoms: O_3  and  C_12
REMARK    2  A    between atoms: O_4  and  C_17
REMARK    3  A    between atoms: O_5  and  C_20
REMARK    4  A    between atoms: C_7  and  C_11
REMARK                            x       y       z     vdW  Elec       q    Type
REMARK                         _______ _______ _______ _____ _____    ______ ____
ROOT
ATOM      1  O   UNL     1     104.533 124.639 139.322  0.00  0.00    +0.000 OA
ATOM      2  O   UNL     1     105.962 122.839 140.240  0.00  0.00    +0.000 OA
ATOM      3  C   UNL     1     104.948 123.272 139.329  0.00  0.00    +0.000 C 
ATOM      4  C   UNL     1     104.472 123.872 139.023  0.00  0.00    +0.000 C 
ATOM      5  C   UNL     1     105.486 123.439 139.934  0.00  0.00    +0.000 C 
ATOM      6  C   UNL     1     105.545 124.206 140.231  0.00  0.00    +0.000 A 
ATOM      7  C   UNL     1     105.069 124.806 139.925  0.00  0.00    +0.000 A 
ATOM      8  C   UNL     1     106.108 124.368 140.861  0.00  0.00    +0.000 A 
ATOM      9  C   UNL     1     105.123 125.609 140.227  0.00  0.00    +0.000 A 
ATOM     10  C   UNL     1     106.176 125.164 141.175  0.00  0.00    +0.000 A 
ATOM     11  C   UNL     1     105.680 125.789 140.856  0.00  0.00    +0.000 A 
ENDROOT
BRANCH   4  12
ATOM     12  C   UNL     1     103.936 123.705 138.420  0.00  0.00    +0.000 A 
ATOM     13  C   UNL     1     103.125 123.727 138.570  0.00  0.00    +0.000 A 
ATOM     14  C   UNL     1     104.211 123.516 137.665  0.00  0.00    +0.000 A 
ATOM     15  C   UNL     1     102.589 123.560 137.966  0.00  0.00    +0.000 A 
ATOM     16  C   UNL     1     103.674 123.349 137.060  0.00  0.00    +0.000 A 
ATOM     17  C   UNL     1     102.863 123.371 137.211  0.00  0.00    +0.000 A 
BRANCH  17  18
ATOM     18  O   UNL     1     102.326 123.204 136.607  0.00  0.00    +0.000 OA
ATOM     19  C   UNL     1     102.559 122.739 135.966  0.00  0.00    +0.000 C 
ENDBRANCH  17  18
ENDBRANCH   4  12
BRANCH   8  20
ATOM     20  O   UNL     1     106.580 123.761 141.161  0.00  0.00    +0.000 OA
ATOM     21  C   UNL     1     107.376 123.903 141.330  0.00  0.00    +0.000 C 
ENDBRANCH   8  20
BRANCH  11  22
ATOM     22  O   UNL     1     105.738 126.557 141.152  0.00  0.00    +0.000 OA
ATOM     23  C   UNL     1     105.366 126.756 141.860  0.00  0.00    +0.000 C 
ENDBRANCH  11  22
TORSDOF 4
ENDMDL
MODEL 7
REMARK VINA RESULT:      -7.2     12.636     13.880
REMARK  Name = 584467
REMARK  4 active torsions:
REMARK  status: ('A' for Active; 'I' for Inactive)
REMARK    1  A    between atoms: O_3  and  C_12
REMARK    2  A    between atoms: O_4  and  C_17
REMARK    3  A    between atoms: O_5  and  C_20
REMARK    4  A    between atoms: C_7  and  C_11
REMARK                            x       y       z     vdW  Elec       q    Type
REMARK                         _______ _______ _______ _____ _____    ______ ____
ROOT
ATOM      1  O   UNL     1     113.682 127.539 136.041  0.00  0.00    +0.000 OA
ATOM      2  O   UNL     1     112.872 128.819 137.998  0.00  0.00    +0.000 OA
ATOM      3  C   UNL     1     113.087 127.569 137.339  0.00  0.00    +0.000 C 
ATOM      4  C   UNL     1     113.357 127.142 136.687  0.00  0.00    +0.000 C 
ATOM      5  C   UNL     1     113.142 128.392 137.346  0.00  0.00    +0.000 C 
ATOM      6  C   UNL     1     113.468 128.788 136.700  0.00  0.00    +0.000 A 
ATOM      7  C   UNL     1     113.738 128.362 136.047  0.00  0.00    +0.000 A 
ATOM      8  C   UNL     1     113.521 129.646 136.718  0.00  0.00    +0.000 A 
ATOM      9  C   UNL     1     114.079 128.764 135.368  0.00  0.00    +0.000 A 
ATOM     10  C   UNL     1     113.859 130.065 136.049  0.00  0.00    +0.000 A 
ATOM     11  C   UNL     1     114.140 129.620 135.369  0.00  0.00    +0.000 A 
ENDROOT
BRANCH   4  12
ATOM     12  C   UNL     1     113.301 126.320 136.680  0.00  0.00    +0.000 A 
ATOM     13  C   UNL     1     112.589 125.955 136.478  0.00  0.00    +0.000 A 
ATOM     14  C   UNL     1     113.957 125.860 136.877  0.00  0.00    +0.000 A 
ATOM     15  C   UNL     1     112.533 125.133 136.471  0.00  0.00    +0.000 A 
ATOM     16  C   UNL     1     113.902 125.037 136.870  0.00  0.00    +0.000 A 
ATOM     17  C   UNL     1     113.190 124.673 136.668  0.00  0.00    +0.000 A 
BRANCH  17  18
ATOM     18  O   UNL     1     113.134 123.850 136.661  0.00  0.00    +0.000 OA
ATOM     19  C   UNL     1     112.413 123.484 136.827  0.00  0.00    +0.000 C 
ENDBRANCH  17  18
ENDBRANCH   4  12
BRANCH   8  20
ATOM     20  O   UNL     1     113.248 130.064 137.375  0.00  0.00    +0.000 OA
ATOM     21  C   UNL     1     113.208 130.888 137.352  0.00  0.00    +0.000 C 
ENDBRANCH   8  20
BRANCH  11  22
ATOM     22  O   UNL     1     114.466 130.014 134.722  0.00  0.00    +0.000 OA
ATOM     23  C   UNL     1     115.283 130.024 134.613  0.00  0.00    +0.000 C 
ENDBRANCH  11  22
TORSDOF 4
ENDMDL
MODEL 8
REMARK VINA RESULT:      -7.1     12.360     13.237
REMARK  Name = 584467
REMARK  4 active torsions:
REMARK  status: ('A' for Active; 'I' for Inactive)
REMARK    1  A    between atoms: O_3  and  C_12
REMARK    2  A    between atoms: O_4  and  C_17
REMARK    3  A    between atoms: O_5  and  C_20
REMARK    4  A    between atoms: C_7  and  C_11
REMARK                            x       y       z     vdW  Elec       q    Type
REMARK                         _______ _______ _______ _____ _____    ______ ____
ROOT
ATOM      1  O   UNL     1     112.345 126.706 136.147  0.00  0.00    +0.000 OA
ATOM      2  O   UNL     1     110.807 124.782 135.902  0.00  0.00    +0.000 OA
ATOM      3  C   UNL     1     111.072 126.180 135.765  0.00  0.00    +0.000 C 
ATOM      4  C   UNL     1     111.585 126.822 135.847  0.00  0.00    +0.000 C 
ATOM      5  C   UNL     1     111.319 125.424 135.983  0.00  0.00    +0.000 C 
ATOM      6  C   UNL     1     112.079 125.309 136.284  0.00  0.00    +0.000 A 
ATOM      7  C   UNL     1     112.592 125.950 136.366  0.00  0.00    +0.000 A 
ATOM      8  C   UNL     1     112.325 124.516 136.507  0.00  0.00    +0.000 A 
ATOM      9  C   UNL     1     113.386 125.843 136.677  0.00  0.00    +0.000 A 
ATOM     10  C   UNL     1     113.115 124.390 136.821  0.00  0.00    +0.000 A 
ATOM     11  C   UNL     1     113.649 125.058 136.906  0.00  0.00    +0.000 A 
ENDROOT
BRANCH   4  12
ATOM     12  C   UNL     1     111.338 127.577 135.629  0.00  0.00    +0.000 A 
ATOM     13  C   UNL     1     111.141 128.131 136.208  0.00  0.00    +0.000 A 
ATOM     14  C   UNL     1     111.288 127.780 134.831  0.00  0.00    +0.000 A 
ATOM     15  C   UNL     1     110.894 128.887 135.990  0.00  0.00    +0.000 A 
ATOM     16  C   UNL     1     111.040 128.537 134.612  0.00  0.00    +0.000 A 
ATOM     17  C   UNL     1     110.843 129.090 135.192  0.00  0.00    +0.000 A 
BRANCH  17  18
ATOM     18  O   UNL     1     110.596 129.846 134.973  0.00  0.00    +0.000 OA
ATOM     19  C   UNL     1     109.829 129.964 134.693  0.00  0.00    +0.000 C 
ENDBRANCH  17  18
ENDBRANCH   4  12
BRANCH   8  20
ATOM     20  O   UNL     1     111.805 123.881 136.422  0.00  0.00    +0.000 OA
ATOM     21  C   UNL     1     111.932 123.185 136.847  0.00  0.00    +0.000 C 
ENDBRANCH   8  20
BRANCH  11  22
ATOM     22  O   UNL     1     114.409 124.946 137.206  0.00  0.00    +0.000 OA
ATOM     23  C   UNL     1     114.638 125.323 137.902  0.00  0.00    +0.000 C 
ENDBRANCH  11  22
TORSDOF 4
ENDMDL
MODEL 9
REMARK VINA RESULT:      -7.1     11.904     12.687
REMARK  Name = 584467
REMARK  4 active torsions:
REMARK  status: ('A' for Active; 'I' for Inactive)
REMARK    1  A    between atoms: O_3  and  C_12
REMARK    2  A    between atoms: O_4  and  C_17
REMARK    3  A    between atoms: O_5  and  C_20
REMARK    4  A    between atoms: C_7  and  C_11
REMARK                            x       y       z     vdW  Elec       q    Type
REMARK                         _______ _______ _______ _____ _____    ______ ____
ROOT
ATOM      1  O   UNL     1     110.367 128.367 135.982  0.00  0.00    +0.000 OA
ATOM      2  O   UNL     1     107.950 128.824 135.700  0.00  0.00    +0.000 OA
ATOM      3  C   UNL     1     109.037 127.896 135.759  0.00  0.00    +0.000 C 
ATOM      4  C   UNL     1     109.842 127.744 135.853  0.00  0.00    +0.000 C 
ATOM      5  C   UNL     1     108.756 128.671 135.794  0.00  0.00    +0.000 C 
ATOM      6  C   UNL     1     109.281 129.294 135.923  0.00  0.00    +0.000 A 
ATOM      7  C   UNL     1     110.087 129.142 136.017  0.00  0.00    +0.000 A 
ATOM      8  C   UNL     1     108.977 130.097 135.957  0.00  0.00    +0.000 A 
ATOM      9  C   UNL     1     110.644 129.783 136.151  0.00  0.00    +0.000 A 
ATOM     10  C   UNL     1     109.519 130.750 136.091  0.00  0.00    +0.000 A 
ATOM     11  C   UNL     1     110.358 130.592 136.189  0.00  0.00    +0.000 A 
ENDROOT
BRANCH   4  12
ATOM     12  C   UNL     1     110.122 126.969 135.818  0.00  0.00    +0.000 A 
ATOM     13  C   UNL     1     110.262 126.548 136.514  0.00  0.00    +0.000 A 
ATOM     14  C   UNL     1     110.262 126.614 135.086  0.00  0.00    +0.000 A 
ATOM     15  C   UNL     1     110.542 125.774 136.479  0.00  0.00    +0.000 A 
ATOM     16  C   UNL     1     110.543 125.838 135.051  0.00  0.00    +0.000 A 
ATOM     17  C   UNL     1     110.682 125.419 135.747  0.00  0.00    +0.000 A 
BRANCH  17  18
ATOM     18  O   UNL     1     110.962 124.643 135.712  0.00  0.00    +0.000 OA
ATOM     19  C   UNL     1     111.626 124.424 136.150  0.00  0.00    +0.000 C 
ENDBRANCH  17  18
ENDBRANCH   4  12
BRANCH   8  20
ATOM     20  O   UNL     1     108.170 130.240 135.863  0.00  0.00    +0.000 OA
ATOM     21  C   UNL     1     107.879 131.010 135.913  0.00  0.00    +0.000 C 
ENDBRANCH   8  20
BRANCH  11  22
ATOM     22  O   UNL     1     110.885 131.213 136.318  0.00  0.00    +0.000 OA
ATOM     23  C   UNL     1     111.241 131.306 137.056  0.00  0.00    +0.000 C 
ENDBRANCH  11  22
TORSDOF 4
ENDMDL
MODEL 10
REMARK VINA RESULT:      -7.1      6.200      8.060
REMARK  Name = 584467
REMARK  4 active torsions:
REMARK  status: ('A' for Active; 'I' for Inactive)
REMARK    1  A    between atoms: O_3  and  C_12
REMARK    2  A    between atoms: O_4  and  C_17
REMARK    3  A    between atoms: O_5  and  C_20
REMARK    4  A    between atoms: C_7  and  C_11
REMARK                            x       y       z     vdW  Elec       q    Type
REMARK                         _______ _______ _______ _____ _____    ______ ____
ROOT
ATOM      1  O   UNL     1     103.098 130.614 142.588  0.00  0.00    +0.000 OA
ATOM      2  O   UNL     1     103.306 129.143 140.609  0.00  0.00    +0.000 OA
ATOM      3  C   UNL     1     102.745 130.296 141.241  0.00  0.00    +0.000 C 
ATOM      4  C   UNL     1     102.675 130.786 141.901  0.00  0.00    +0.000 C 
ATOM      5  C   UNL     1     103.236 129.633 141.268  0.00  0.00    +0.000 C 
ATOM      6  C   UNL     1     103.658 129.462 141.956  0.00  0.00    +0.000 A 
ATOM      7  C   UNL     1     103.589 129.952 142.616  0.00  0.00    +0.000 A 
ATOM      8  C   UNL     1     104.167 128.769 141.973  0.00  0.00    +0.000 A 
ATOM      9  C   UNL     1     104.024 129.784 143.338  0.00  0.00    +0.000 A 
ATOM     10  C   UNL     1     104.609 128.585 142.686  0.00  0.00    +0.000 A 
ATOM     11  C   UNL     1     104.537 129.096 143.373  0.00  0.00    +0.000 A 
ENDROOT
BRANCH   4  12
ATOM     12  C   UNL     1     102.184 131.448 141.873  0.00  0.00    +0.000 A 
ATOM     13  C   UNL     1     101.394 131.386 142.101  0.00  0.00    +0.000 A 
ATOM     14  C   UNL     1     102.483 132.173 141.616  0.00  0.00    +0.000 A 
ATOM     15  C   UNL     1     100.903 132.047 142.073  0.00  0.00    +0.000 A 
ATOM     16  C   UNL     1     101.992 132.836 141.588  0.00  0.00    +0.000 A 
ATOM     17  C   UNL     1     101.202 132.772 141.817  0.00  0.00    +0.000 A 
BRANCH  17  18
ATOM     18  O   UNL     1     100.710 133.435 141.788  0.00  0.00    +0.000 OA
ATOM     19  C   UNL     1     100.914 134.117 142.206  0.00  0.00    +0.000 C 
ENDBRANCH  17  18
ENDBRANCH   4  12
BRANCH   8  20
ATOM     20  O   UNL     1     104.230 128.285 141.308  0.00  0.00    +0.000 OA
ATOM     21  C   UNL     1     104.718 127.619 141.328  0.00  0.00    +0.000 C 
ENDBRANCH   8  20
BRANCH  11  22
ATOM     22  O   UNL     1     104.958 128.927 144.062  0.00  0.00    +0.000 OA
ATOM     23  C   UNL     1     105.557 129.434 144.316  0.00  0.00    +0.000 C 
ENDBRANCH  11  22
TORSDOF 4
ENDMDL
