MODEL 1
REMARK VINA RESULT:      -9.5      0.000      0.000
REMARK  Name = 44260052
REMARK  10 active torsions:
REMARK  status: ('A' for Active; 'I' for Inactive)
REMARK    1  A    between atoms: O_1  and  C_19
REMARK    2  A    between atoms: O_1  and  C_20
REMARK    3  A    between atoms: O_9  and  C_27
REMARK    4  A    between atoms: O_9  and  C_30
REMARK    5  A    between atoms: O_13  and  C_37
REMARK    6  A    between atoms: O_14  and  C_41
REMARK    7  A    between atoms: O_15  and  C_42
REMARK    8  A    between atoms: O_17  and  C_43
REMARK    9  A    between atoms: C_24  and  C_29
REMARK   10  A    between atoms: C_35  and  C_36
REMARK                            x       y       z     vdW  Elec       q    Type
REMARK                         _______ _______ _______ _____ _____    ______ ____
ROOT
ATOM      1  C   UNL     1     110.605 131.002 144.026  0.00  0.00    +0.000 A 
ATOM      2  C   UNL     1     111.181 130.486 144.313  0.00  0.00    +0.000 A 
ATOM      3  C   UNL     1     110.405 130.996 143.226  0.00  0.00    +0.000 A 
ATOM      4  C   UNL     1     111.559 129.963 143.798  0.00  0.00    +0.000 A 
ATOM      5  C   UNL     1     110.783 130.473 142.712  0.00  0.00    +0.000 A 
ATOM      6  C   UNL     1     111.359 129.957 142.997  0.00  0.00    +0.000 A 
ENDROOT
BRANCH   6  10
ATOM      7  O   UNL     1     111.388 128.668 142.312  0.00  0.00    +0.000 OA
ATOM      8  O   UNL     1     113.581 129.304 141.218  0.00  0.00    +0.000 OA
ATOM      9  O   UNL     1     111.484 126.135 140.941  0.00  0.00    +0.000 OA
ATOM     10  C   UNL     1     111.737 129.434 142.482  0.00  0.00    +0.000 A 
ATOM     11  C   UNL     1     112.480 129.653 142.113  0.00  0.00    +0.000 A 
ATOM     12  C   UNL     1     111.788 128.130 141.775  0.00  0.00    +0.000 A 
ATOM     13  C   UNL     1     112.503 128.340 141.419  0.00  0.00    +0.000 A 
ATOM     14  C   UNL     1     112.866 129.102 141.578  0.00  0.00    +0.000 A 
ATOM     15  C   UNL     1     112.878 127.815 140.905  0.00  0.00    +0.000 A 
ATOM     16  C   UNL     1     111.449 127.395 141.615  0.00  0.00    +0.000 A 
ATOM     17  C   UNL     1     112.538 127.081 140.746  0.00  0.00    +0.000 A 
ATOM     18  C   UNL     1     111.824 126.870 141.101  0.00  0.00    +0.000 A 
BRANCH  11  19
ATOM     19  O   UNL     1     112.822 130.387 142.270  0.00  0.00    +0.000 OA
ATOM     20  C   UNL     1     113.296 130.752 141.702  0.00  0.00    +0.000 C 
ENDBRANCH  11  19
BRANCH  15  21
ATOM     21  O   UNL     1     113.592 128.025 140.550  0.00  0.00    +0.000 OA
ATOM     22  C   UNL     1     114.303 127.730 140.847  0.00  0.00    +0.000 C 
ENDBRANCH  15  21
BRANCH  16  23
ATOM     23  O   UNL     1     110.734 127.185 141.970  0.00  0.00    +0.000 OA
ATOM     24  C   UNL     1     110.065 127.053 141.505  0.00  0.00    +0.000 C 
ENDBRANCH  16  23
BRANCH  17  25
ATOM     25  O   UNL     1     112.913 126.556 140.231  0.00  0.00    +0.000 OA
ATOM     26  C   UNL     1     112.613 126.437 139.472  0.00  0.00    +0.000 C 
ENDBRANCH  17  25
ENDBRANCH   6  10
BRANCH   1  27
ATOM     27  O   UNL     1     110.227 131.525 144.541  0.00  0.00    +0.000 OA
BRANCH  27  35
ATOM     28  O   UNL     1     111.021 132.662 144.197  0.00  0.00    +0.000 OA
ATOM     29  O   UNL     1     110.118 132.071 146.094  0.00  0.00    +0.000 OA
ATOM     30  O   UNL     1     111.705 134.346 145.406  0.00  0.00    +0.000 OA
ATOM     31  O   UNL     1     111.815 133.800 143.853  0.00  0.00    +0.000 OA
ATOM     32  C   UNL     1     110.911 133.209 145.750  0.00  0.00    +0.000 C 
ATOM     33  C   UNL     1     110.542 132.503 145.534  0.00  0.00    +0.000 C 
ATOM     34  C   UNL     1     111.335 133.640 145.190  0.00  0.00    +0.000 C 
ATOM     35  C   UNL     1     110.596 132.230 144.758  0.00  0.00    +0.000 C 
ATOM     36  C   UNL     1     111.390 133.367 144.414  0.00  0.00    +0.000 C 
BRANCH  32  37
ATOM     37  O   UNL     1     110.857 133.482 146.526  0.00  0.00    +0.000 OA
BRANCH  37  42
ATOM     38  O   UNL     1     112.031 132.745 146.873  0.00  0.00    +0.000 OA
ATOM     39  O   UNL     1     110.651 133.898 148.110  0.00  0.00    +0.000 OA
ATOM     40  O   UNL     1     111.722 133.369 149.248  0.00  0.00    +0.000 OA
ATOM     41  O   UNL     1     112.998 132.424 148.803  0.00  0.00    +0.000 OA
ATOM     42  C   UNL     1     111.392 133.218 147.096  0.00  0.00    +0.000 C 
ATOM     43  C   UNL     1     111.289 133.426 147.888  0.00  0.00    +0.000 C 
ATOM     44  C   UNL     1     111.825 133.161 148.456  0.00  0.00    +0.000 C 
ATOM     45  C   UNL     1     112.463 132.689 148.234  0.00  0.00    +0.000 C 
ATOM     46  C   UNL     1     112.566 132.481 147.442  0.00  0.00    +0.000 C 
BRANCH  46  48
ATOM     47  O   UNL     1     113.832 132.337 146.794  0.00  0.00    +0.000 OA
ATOM     48  C   UNL     1     113.204 132.008 147.219  0.00  0.00    +0.000 C 
ENDBRANCH  46  48
ENDBRANCH  37  42
ENDBRANCH  32  37
ENDBRANCH  27  35
ENDBRANCH   1  27
TORSDOF 10
ENDMDL
MODEL 2
REMARK VINA RESULT:      -9.5      5.406      7.052
REMARK  Name = 44260052
REMARK  10 active torsions:
REMARK  status: ('A' for Active; 'I' for Inactive)
REMARK    1  A    between atoms: O_1  and  C_19
REMARK    2  A    between atoms: O_1  and  C_20
REMARK    3  A    between atoms: O_9  and  C_27
REMARK    4  A    between atoms: O_9  and  C_30
REMARK    5  A    between atoms: O_13  and  C_37
REMARK    6  A    between atoms: O_14  and  C_41
REMARK    7  A    between atoms: O_15  and  C_42
REMARK    8  A    between atoms: O_17  and  C_43
REMARK    9  A    between atoms: C_24  and  C_29
REMARK   10  A    between atoms: C_35  and  C_36
REMARK                            x       y       z     vdW  Elec       q    Type
REMARK                         _______ _______ _______ _____ _____    ______ ____
ROOT
ATOM      1  C   UNL     1     111.430 129.217 139.675  0.00  0.00    +0.000 A 
ATOM      2  C   UNL     1     111.276 128.491 140.036  0.00  0.00    +0.000 A 
ATOM      3  C   UNL     1     111.832 129.243 138.956  0.00  0.00    +0.000 A 
ATOM      4  C   UNL     1     111.525 127.791 139.678  0.00  0.00    +0.000 A 
ATOM      5  C   UNL     1     112.082 128.543 138.597  0.00  0.00    +0.000 A 
ATOM      6  C   UNL     1     111.929 127.817 138.958  0.00  0.00    +0.000 A 
ENDROOT
BRANCH   6  10
ATOM      7  O   UNL     1     111.651 126.692 138.070  0.00  0.00    +0.000 OA
ATOM      8  O   UNL     1     113.971 125.778 138.514  0.00  0.00    +0.000 OA
ATOM      9  O   UNL     1     111.148 124.454 136.327  0.00  0.00    +0.000 OA
ATOM     10  C   UNL     1     112.178 127.118 138.599  0.00  0.00    +0.000 A 
ATOM     11  C   UNL     1     112.965 126.811 138.752  0.00  0.00    +0.000 A 
ATOM     12  C   UNL     1     111.920 125.964 137.701  0.00  0.00    +0.000 A 
ATOM     13  C   UNL     1     112.677 125.668 137.847  0.00  0.00    +0.000 A 
ATOM     14  C   UNL     1     113.216 126.081 138.374  0.00  0.00    +0.000 A 
ATOM     15  C   UNL     1     112.924 124.968 137.487  0.00  0.00    +0.000 A 
ATOM     16  C   UNL     1     111.411 125.559 137.194  0.00  0.00    +0.000 A 
ATOM     17  C   UNL     1     112.414 124.564 136.981  0.00  0.00    +0.000 A 
ATOM     18  C   UNL     1     111.658 124.859 136.834  0.00  0.00    +0.000 A 
BRANCH  11  19
ATOM     19  O   UNL     1     113.477 127.213 139.258  0.00  0.00    +0.000 OA
ATOM     20  C   UNL     1     113.968 126.791 139.769  0.00  0.00    +0.000 C 
ENDBRANCH  11  19
BRANCH  15  21
ATOM     21  O   UNL     1     113.680 124.673 137.634  0.00  0.00    +0.000 OA
ATOM     22  C   UNL     1     114.291 124.819 137.099  0.00  0.00    +0.000 C 
ENDBRANCH  15  21
BRANCH  16  23
ATOM     23  O   UNL     1     110.654 125.854 137.047  0.00  0.00    +0.000 OA
ATOM     24  C   UNL     1     110.432 126.054 136.278  0.00  0.00    +0.000 C 
ENDBRANCH  16  23
BRANCH  17  25
ATOM     25  O   UNL     1     112.661 123.864 136.620  0.00  0.00    +0.000 OA
ATOM     26  C   UNL     1     112.319 123.145 136.838  0.00  0.00    +0.000 C 
ENDBRANCH  17  25
ENDBRANCH   6  10
BRANCH   1  27
ATOM     27  O   UNL     1     111.180 129.917 140.034  0.00  0.00    +0.000 OA
BRANCH  27  35
ATOM     28  O   UNL     1     109.757 129.819 139.951  0.00  0.00    +0.000 OA
ATOM     29  O   UNL     1     111.113 131.434 139.390  0.00  0.00    +0.000 OA
ATOM     30  O   UNL     1     108.267 131.239 139.225  0.00  0.00    +0.000 OA
ATOM     31  O   UNL     1     108.333 129.722 139.869  0.00  0.00    +0.000 OA
ATOM     32  C   UNL     1     109.690 131.337 139.307  0.00  0.00    +0.000 C 
ATOM     33  C   UNL     1     110.419 131.007 139.509  0.00  0.00    +0.000 C 
ATOM     34  C   UNL     1     108.996 130.909 139.427  0.00  0.00    +0.000 C 
ATOM     35  C   UNL     1     110.452 130.248 139.831  0.00  0.00    +0.000 C 
ATOM     36  C   UNL     1     109.029 130.150 139.749  0.00  0.00    +0.000 C 
BRANCH  32  37
ATOM     37  O   UNL     1     109.657 132.096 138.985  0.00  0.00    +0.000 OA
BRANCH  37  42
ATOM     38  O   UNL     1     109.571 131.598 137.648  0.00  0.00    +0.000 OA
ATOM     39  O   UNL     1     110.249 133.526 138.415  0.00  0.00    +0.000 OA
ATOM     40  O   UNL     1     110.459 133.744 136.793  0.00  0.00    +0.000 OA
ATOM     41  O   UNL     1     110.077 132.532 135.742  0.00  0.00    +0.000 OA
ATOM     42  C   UNL     1     109.762 132.205 138.175  0.00  0.00    +0.000 C 
ATOM     43  C   UNL     1     110.058 132.920 137.889  0.00  0.00    +0.000 C 
ATOM     44  C   UNL     1     110.163 133.029 137.078  0.00  0.00    +0.000 C 
ATOM     45  C   UNL     1     109.972 132.423 136.553  0.00  0.00    +0.000 C 
ATOM     46  C   UNL     1     109.676 131.708 136.838  0.00  0.00    +0.000 C 
BRANCH  46  48
ATOM     47  O   UNL     1     109.966 130.433 136.262  0.00  0.00    +0.000 OA
ATOM     48  C   UNL     1     109.485 131.101 136.312  0.00  0.00    +0.000 C 
ENDBRANCH  46  48
ENDBRANCH  37  42
ENDBRANCH  32  37
ENDBRANCH  27  35
ENDBRANCH   1  27
TORSDOF 10
ENDMDL
MODEL 3
REMARK VINA RESULT:      -9.0      4.424      7.650
REMARK  Name = 44260052
REMARK  10 active torsions:
REMARK  status: ('A' for Active; 'I' for Inactive)
REMARK    1  A    between atoms: O_1  and  C_19
REMARK    2  A    between atoms: O_1  and  C_20
REMARK    3  A    between atoms: O_9  and  C_27
REMARK    4  A    between atoms: O_9  and  C_30
REMARK    5  A    between atoms: O_13  and  C_37
REMARK    6  A    between atoms: O_14  and  C_41
REMARK    7  A    between atoms: O_15  and  C_42
REMARK    8  A    between atoms: O_17  and  C_43
REMARK    9  A    between atoms: C_24  and  C_29
REMARK   10  A    between atoms: C_35  and  C_36
REMARK                            x       y       z     vdW  Elec       q    Type
REMARK                         _______ _______ _______ _____ _____    ______ ____
ROOT
ATOM      1  C   UNL     1     106.879 129.180 144.917  0.00  0.00    +0.000 A 
ATOM      2  C   UNL     1     107.340 129.109 145.598  0.00  0.00    +0.000 A 
ATOM      3  C   UNL     1     107.095 129.712 144.326  0.00  0.00    +0.000 A 
ATOM      4  C   UNL     1     108.019 129.570 145.686  0.00  0.00    +0.000 A 
ATOM      5  C   UNL     1     107.774 130.173 144.413  0.00  0.00    +0.000 A 
ATOM      6  C   UNL     1     108.236 130.102 145.093  0.00  0.00    +0.000 A 
ENDROOT
BRANCH   6  10
ATOM      7  O   UNL     1     108.858 131.359 145.500  0.00  0.00    +0.000 OA
ATOM      8  O   UNL     1     111.124 130.447 144.833  0.00  0.00    +0.000 OA
ATOM      9  O   UNL     1     110.127 133.822 146.290  0.00  0.00    +0.000 OA
ATOM     10  C   UNL     1     108.915 130.563 145.181  0.00  0.00    +0.000 A 
ATOM     11  C   UNL     1     109.681 130.251 144.954  0.00  0.00    +0.000 A 
ATOM     12  C   UNL     1     109.570 131.832 145.587  0.00  0.00    +0.000 A 
ATOM     13  C   UNL     1     110.308 131.532 145.369  0.00  0.00    +0.000 A 
ATOM     14  C   UNL     1     110.382 130.738 145.049  0.00  0.00    +0.000 A 
ATOM     15  C   UNL     1     110.984 131.995 145.458  0.00  0.00    +0.000 A 
ATOM     16  C   UNL     1     109.510 132.595 145.894  0.00  0.00    +0.000 A 
ATOM     17  C   UNL     1     110.924 132.758 145.765  0.00  0.00    +0.000 A 
ATOM     18  C   UNL     1     110.187 133.058 145.983  0.00  0.00    +0.000 A 
BRANCH  11  19
ATOM     19  O   UNL     1     109.745 129.487 144.646  0.00  0.00    +0.000 OA
ATOM     20  C   UNL     1     110.274 129.332 144.033  0.00  0.00    +0.000 C 
ENDBRANCH  11  19
BRANCH  15  21
ATOM     21  O   UNL     1     111.721 131.695 145.240  0.00  0.00    +0.000 OA
ATOM     22  C   UNL     1     112.227 131.386 145.814  0.00  0.00    +0.000 C 
ENDBRANCH  15  21
BRANCH  16  23
ATOM     23  O   UNL     1     108.773 132.896 146.112  0.00  0.00    +0.000 OA
ATOM     24  C   UNL     1     108.633 133.115 146.895  0.00  0.00    +0.000 C 
ENDBRANCH  16  23
BRANCH  17  25
ATOM     25  O   UNL     1     111.601 133.221 145.854  0.00  0.00    +0.000 OA
ATOM     26  C   UNL     1     111.721 133.875 145.364  0.00  0.00    +0.000 C 
ENDBRANCH  17  25
ENDBRANCH   6  10
BRANCH   1  27
ATOM     27  O   UNL     1     106.200 128.719 144.830  0.00  0.00    +0.000 OA
BRANCH  27  35
ATOM     28  O   UNL     1     106.839 127.738 144.011  0.00  0.00    +0.000 OA
ATOM     29  O   UNL     1     105.170 127.567 145.408  0.00  0.00    +0.000 OA
ATOM     30  O   UNL     1     106.447 125.604 143.770  0.00  0.00    +0.000 OA
ATOM     31  O   UNL     1     107.477 126.756 143.192  0.00  0.00    +0.000 OA
ATOM     32  C   UNL     1     105.809 126.586 144.589  0.00  0.00    +0.000 C 
ATOM     33  C   UNL     1     105.747 127.364 144.854  0.00  0.00    +0.000 C 
ATOM     34  C   UNL     1     106.385 126.383 144.035  0.00  0.00    +0.000 C 
ATOM     35  C   UNL     1     106.262 127.940 144.565  0.00  0.00    +0.000 C 
ATOM     36  C   UNL     1     106.900 126.959 143.746  0.00  0.00    +0.000 C 
BRANCH  32  37
ATOM     37  O   UNL     1     105.294 126.009 144.878  0.00  0.00    +0.000 OA
BRANCH  37  42
ATOM     38  O   UNL     1     106.167 125.780 145.986  0.00  0.00    +0.000 OA
ATOM     39  O   UNL     1     104.341 124.755 145.368  0.00  0.00    +0.000 OA
ATOM     40  O   UNL     1     104.738 123.897 146.721  0.00  0.00    +0.000 OA
ATOM     41  O   UNL     1     106.086 124.295 147.583  0.00  0.00    +0.000 OA
ATOM     42  C   UNL     1     105.491 125.581 145.554  0.00  0.00    +0.000 C 
ATOM     43  C   UNL     1     105.015 124.953 145.799  0.00  0.00    +0.000 C 
ATOM     44  C   UNL     1     105.214 124.525 146.476  0.00  0.00    +0.000 C 
ATOM     45  C   UNL     1     105.888 124.723 146.907  0.00  0.00    +0.000 C 
ATOM     46  C   UNL     1     106.364 125.351 146.662  0.00  0.00    +0.000 C 
BRANCH  46  48
ATOM     47  O   UNL     1     107.787 125.379 146.789  0.00  0.00    +0.000 OA
ATOM     48  C   UNL     1     107.039 125.550 147.093  0.00  0.00    +0.000 C 
ENDBRANCH  46  48
ENDBRANCH  37  42
ENDBRANCH  32  37
ENDBRANCH  27  35
ENDBRANCH   1  27
TORSDOF 10
ENDMDL
MODEL 4
REMARK VINA RESULT:      -8.9      4.192      5.845
REMARK  Name = 44260052
REMARK  10 active torsions:
REMARK  status: ('A' for Active; 'I' for Inactive)
REMARK    1  A    between atoms: O_1  and  C_19
REMARK    2  A    between atoms: O_1  and  C_20
REMARK    3  A    between atoms: O_9  and  C_27
REMARK    4  A    between atoms: O_9  and  C_30
REMARK    5  A    between atoms: O_13  and  C_37
REMARK    6  A    between atoms: O_14  and  C_41
REMARK    7  A    between atoms: O_15  and  C_42
REMARK    8  A    between atoms: O_17  and  C_43
REMARK    9  A    between atoms: C_24  and  C_29
REMARK   10  A    between atoms: C_35  and  C_36
REMARK                            x       y       z     vdW  Elec       q    Type
REMARK                         _______ _______ _______ _____ _____    ______ ____
ROOT
ATOM      1  C   UNL     1     109.716 128.871 138.529  0.00  0.00    +0.000 A 
ATOM      2  C   UNL     1     109.738 128.176 138.973  0.00  0.00    +0.000 A 
ATOM      3  C   UNL     1     110.178 128.942 137.851  0.00  0.00    +0.000 A 
ATOM      4  C   UNL     1     110.223 127.552 138.737  0.00  0.00    +0.000 A 
ATOM      5  C   UNL     1     110.664 128.318 137.615  0.00  0.00    +0.000 A 
ATOM      6  C   UNL     1     110.687 127.623 138.057  0.00  0.00    +0.000 A 
ENDROOT
BRANCH   6  10
ATOM      7  O   UNL     1     111.975 126.938 138.122  0.00  0.00    +0.000 OA
ATOM      8  O   UNL     1     111.117 125.185 136.510  0.00  0.00    +0.000 OA
ATOM      9  O   UNL     1     114.501 125.556 138.218  0.00  0.00    +0.000 OA
ATOM     10  C   UNL     1     111.172 126.999 137.822  0.00  0.00    +0.000 A 
ATOM     11  C   UNL     1     110.878 126.406 137.275  0.00  0.00    +0.000 A 
ATOM     12  C   UNL     1     112.473 126.285 137.870  0.00  0.00    +0.000 A 
ATOM     13  C   UNL     1     112.191 125.715 137.345  0.00  0.00    +0.000 A 
ATOM     14  C   UNL     1     111.390 125.759 137.035  0.00  0.00    +0.000 A 
ATOM     15  C   UNL     1     112.678 125.092 137.110  0.00  0.00    +0.000 A 
ATOM     16  C   UNL     1     113.243 126.232 138.161  0.00  0.00    +0.000 A 
ATOM     17  C   UNL     1     113.448 125.039 137.402  0.00  0.00    +0.000 A 
ATOM     18  C   UNL     1     113.730 125.609 137.927  0.00  0.00    +0.000 A 
BRANCH  11  19
ATOM     19  O   UNL     1     110.108 126.456 136.982  0.00  0.00    +0.000 OA
ATOM     20  C   UNL     1     109.939 126.191 136.219  0.00  0.00    +0.000 C 
ENDBRANCH  11  19
BRANCH  15  21
ATOM     21  O   UNL     1     112.395 124.522 136.585  0.00  0.00    +0.000 OA
ATOM     22  C   UNL     1     112.120 123.798 136.870  0.00  0.00    +0.000 C 
ENDBRANCH  15  21
BRANCH  16  23
ATOM     23  O   UNL     1     113.526 126.802 138.687  0.00  0.00    +0.000 OA
ATOM     24  C   UNL     1     113.733 126.587 139.456  0.00  0.00    +0.000 C 
ENDBRANCH  16  23
BRANCH  17  25
ATOM     25  O   UNL     1     113.935 124.416 137.168  0.00  0.00    +0.000 OA
ATOM     26  C   UNL     1     114.617 124.568 136.728  0.00  0.00    +0.000 C 
ENDBRANCH  17  25
ENDBRANCH   6  10
BRANCH   1  27
ATOM     27  O   UNL     1     109.231 129.495 138.765  0.00  0.00    +0.000 OA
BRANCH  27  35
ATOM     28  O   UNL     1     110.270 130.309 139.312  0.00  0.00    +0.000 OA
ATOM     29  O   UNL     1     108.206 130.006 139.953  0.00  0.00    +0.000 OA
ATOM     30  O   UNL     1     110.285 131.634 141.046  0.00  0.00    +0.000 OA
ATOM     31  O   UNL     1     111.310 131.123 139.859  0.00  0.00    +0.000 OA
ATOM     32  C   UNL     1     109.245 130.820 140.500  0.00  0.00    +0.000 C 
ATOM     33  C   UNL     1     108.981 130.285 139.930  0.00  0.00    +0.000 C 
ATOM     34  C   UNL     1     110.021 131.099 140.476  0.00  0.00    +0.000 C 
ATOM     35  C   UNL     1     109.494 130.030 139.336  0.00  0.00    +0.000 C 
ATOM     36  C   UNL     1     110.533 130.844 139.882  0.00  0.00    +0.000 C 
BRANCH  32  37
ATOM     37  O   UNL     1     108.733 131.076 141.094  0.00  0.00    +0.000 OA
BRANCH  37  42
ATOM     38  O   UNL     1     109.188 130.022 141.945  0.00  0.00    +0.000 OA
ATOM     39  O   UNL     1     107.594 131.490 142.214  0.00  0.00    +0.000 OA
ATOM     40  O   UNL     1     107.480 130.643 143.625  0.00  0.00    +0.000 OA
ATOM     41  O   UNL     1     108.503 129.383 143.916  0.00  0.00    +0.000 OA
ATOM     42  C   UNL     1     108.675 130.653 141.799  0.00  0.00    +0.000 C 
ATOM     43  C   UNL     1     108.106 130.860 142.359  0.00  0.00    +0.000 C 
ATOM     44  C   UNL     1     108.049 130.436 143.065  0.00  0.00    +0.000 C 
ATOM     45  C   UNL     1     108.561 129.806 143.211  0.00  0.00    +0.000 C 
ATOM     46  C   UNL     1     109.130 129.599 142.651  0.00  0.00    +0.000 C 
BRANCH  46  48
ATOM     47  O   UNL     1     109.487 128.228 142.468  0.00  0.00    +0.000 OA
ATOM     48  C   UNL     1     109.642 128.969 142.796  0.00  0.00    +0.000 C 
ENDBRANCH  46  48
ENDBRANCH  37  42
ENDBRANCH  32  37
ENDBRANCH  27  35
ENDBRANCH   1  27
TORSDOF 10
ENDMDL
MODEL 5
REMARK VINA RESULT:      -8.8      5.977      8.075
REMARK  Name = 44260052
REMARK  10 active torsions:
REMARK  status: ('A' for Active; 'I' for Inactive)
REMARK    1  A    between atoms: O_1  and  C_19
REMARK    2  A    between atoms: O_1  and  C_20
REMARK    3  A    between atoms: O_9  and  C_27
REMARK    4  A    between atoms: O_9  and  C_30
REMARK    5  A    between atoms: O_13  and  C_37
REMARK    6  A    between atoms: O_14  and  C_41
REMARK    7  A    between atoms: O_15  and  C_42
REMARK    8  A    between atoms: O_17  and  C_43
REMARK    9  A    between atoms: C_24  and  C_29
REMARK   10  A    between atoms: C_35  and  C_36
REMARK                            x       y       z     vdW  Elec       q    Type
REMARK                         _______ _______ _______ _____ _____    ______ ____
ROOT
ATOM      1  C   UNL     1     112.525 130.139 137.424  0.00  0.00    +0.000 A 
ATOM      2  C   UNL     1     112.921 129.718 138.013  0.00  0.00    +0.000 A 
ATOM      3  C   UNL     1     112.219 129.743 136.769  0.00  0.00    +0.000 A 
ATOM      4  C   UNL     1     113.011 128.901 137.946  0.00  0.00    +0.000 A 
ATOM      5  C   UNL     1     112.309 128.925 136.702  0.00  0.00    +0.000 A 
ATOM      6  C   UNL     1     112.704 128.504 137.290  0.00  0.00    +0.000 A 
ENDROOT
BRANCH   6  10
ATOM      7  O   UNL     1     112.208 127.158 137.563  0.00  0.00    +0.000 OA
ATOM      8  O   UNL     1     114.209 126.182 136.357  0.00  0.00    +0.000 OA
ATOM      9  O   UNL     1     111.265 124.485 138.079  0.00  0.00    +0.000 OA
ATOM     10  C   UNL     1     112.794 127.686 137.223  0.00  0.00    +0.000 A 
ATOM     11  C   UNL     1     113.474 127.359 136.813  0.00  0.00    +0.000 A 
ATOM     12  C   UNL     1     112.310 126.308 137.488  0.00  0.00    +0.000 A 
ATOM     13  C   UNL     1     112.963 125.992 137.095  0.00  0.00    +0.000 A 
ATOM     14  C   UNL     1     113.559 126.506 136.749  0.00  0.00    +0.000 A 
ATOM     15  C   UNL     1     113.050 125.175 137.029  0.00  0.00    +0.000 A 
ATOM     16  C   UNL     1     111.744 125.806 137.816  0.00  0.00    +0.000 A 
ATOM     17  C   UNL     1     112.484 124.673 137.357  0.00  0.00    +0.000 A 
ATOM     18  C   UNL     1     111.831 124.988 137.751  0.00  0.00    +0.000 A 
BRANCH  11  19
ATOM     19  O   UNL     1     114.042 127.859 136.484  0.00  0.00    +0.000 OA
ATOM     20  C   UNL     1     114.403 127.659 135.770  0.00  0.00    +0.000 C 
ENDBRANCH  11  19
BRANCH  15  21
ATOM     21  O   UNL     1     113.703 124.860 136.636  0.00  0.00    +0.000 OA
ATOM     22  C   UNL     1     114.372 124.633 137.062  0.00  0.00    +0.000 C 
ENDBRANCH  15  21
BRANCH  16  23
ATOM     23  O   UNL     1     111.090 126.121 138.210  0.00  0.00    +0.000 OA
ATOM     24  C   UNL     1     110.334 126.029 137.893  0.00  0.00    +0.000 C 
ENDBRANCH  16  23
BRANCH  17  25
ATOM     25  O   UNL     1     112.571 123.855 137.292  0.00  0.00    +0.000 OA
ATOM     26  C   UNL     1     112.022 123.415 136.862  0.00  0.00    +0.000 C 
ENDBRANCH  17  25
ENDBRANCH   6  10
BRANCH   1  27
ATOM     27  O   UNL     1     112.435 130.956 137.491  0.00  0.00    +0.000 OA
BRANCH  27  35
ATOM     28  O   UNL     1     111.492 131.109 138.554  0.00  0.00    +0.000 OA
ATOM     29  O   UNL     1     111.501 131.912 136.524  0.00  0.00    +0.000 OA
ATOM     30  O   UNL     1     109.615 132.218 138.650  0.00  0.00    +0.000 OA
ATOM     31  O   UNL     1     110.549 131.261 139.616  0.00  0.00    +0.000 OA
ATOM     32  C   UNL     1     110.558 132.065 137.587  0.00  0.00    +0.000 C 
ATOM     33  C   UNL     1     111.263 131.750 137.297  0.00  0.00    +0.000 C 
ATOM     34  C   UNL     1     110.320 131.903 138.359  0.00  0.00    +0.000 C 
ATOM     35  C   UNL     1     111.730 131.272 137.780  0.00  0.00    +0.000 C 
ATOM     36  C   UNL     1     110.787 131.424 138.843  0.00  0.00    +0.000 C 
BRANCH  32  37
ATOM     37  O   UNL     1     110.090 132.544 137.104  0.00  0.00    +0.000 OA
BRANCH  37  42
ATOM     38  O   UNL     1     109.239 131.463 136.717  0.00  0.00    +0.000 OA
ATOM     39  O   UNL     1     109.725 133.333 135.702  0.00  0.00    +0.000 OA
ATOM     40  O   UNL     1     108.690 132.647 134.615  0.00  0.00    +0.000 OA
ATOM     41  O   UNL     1     108.022 131.172 134.930  0.00  0.00    +0.000 OA
ATOM     42  C   UNL     1     109.573 132.201 136.560  0.00  0.00    +0.000 C 
ATOM     43  C   UNL     1     109.390 132.596 135.859  0.00  0.00    +0.000 C 
ATOM     44  C   UNL     1     108.873 132.252 135.316  0.00  0.00    +0.000 C 
ATOM     45  C   UNL     1     108.539 131.515 135.473  0.00  0.00    +0.000 C 
ATOM     46  C   UNL     1     108.722 131.121 136.174  0.00  0.00    +0.000 C 
BRANCH  46  48
ATOM     47  O   UNL     1     108.855 129.703 136.295  0.00  0.00    +0.000 OA
ATOM     48  C   UNL     1     108.388 130.383 136.332  0.00  0.00    +0.000 C 
ENDBRANCH  46  48
ENDBRANCH  37  42
ENDBRANCH  32  37
ENDBRANCH  27  35
ENDBRANCH   1  27
TORSDOF 10
ENDMDL
MODEL 6
REMARK VINA RESULT:      -8.8      2.417      5.013
REMARK  Name = 44260052
REMARK  10 active torsions:
REMARK  status: ('A' for Active; 'I' for Inactive)
REMARK    1  A    between atoms: O_1  and  C_19
REMARK    2  A    between atoms: O_1  and  C_20
REMARK    3  A    between atoms: O_9  and  C_27
REMARK    4  A    between atoms: O_9  and  C_30
REMARK    5  A    between atoms: O_13  and  C_37
REMARK    6  A    between atoms: O_14  and  C_41
REMARK    7  A    between atoms: O_15  and  C_42
REMARK    8  A    between atoms: O_17  and  C_43
REMARK    9  A    between atoms: C_24  and  C_29
REMARK   10  A    between atoms: C_35  and  C_36
REMARK                            x       y       z     vdW  Elec       q    Type
REMARK                         _______ _______ _______ _____ _____    ______ ____
ROOT
ATOM      1  C   UNL     1     112.820 129.079 139.803  0.00  0.00    +0.000 A 
ATOM      2  C   UNL     1     112.621 128.365 140.165  0.00  0.00    +0.000 A 
ATOM      3  C   UNL     1     112.831 129.136 138.981  0.00  0.00    +0.000 A 
ATOM      4  C   UNL     1     112.433 127.707 139.704  0.00  0.00    +0.000 A 
ATOM      5  C   UNL     1     112.643 128.479 138.520  0.00  0.00    +0.000 A 
ATOM      6  C   UNL     1     112.444 127.764 138.880  0.00  0.00    +0.000 A 
ENDROOT
BRANCH   6  10
ATOM      7  O   UNL     1     112.845 126.497 138.275  0.00  0.00    +0.000 OA
ATOM      8  O   UNL     1     110.534 126.255 137.268  0.00  0.00    +0.000 OA
ATOM      9  O   UNL     1     113.592 123.993 137.063  0.00  0.00    +0.000 OA
ATOM     10  C   UNL     1     112.256 127.107 138.418  0.00  0.00    +0.000 A 
ATOM     11  C   UNL     1     111.472 127.028 138.078  0.00  0.00    +0.000 A 
ATOM     12  C   UNL     1     112.640 125.816 137.793  0.00  0.00    +0.000 A 
ATOM     13  C   UNL     1     111.886 125.740 137.466  0.00  0.00    +0.000 A 
ATOM     14  C   UNL     1     111.285 126.340 137.599  0.00  0.00    +0.000 A 
ATOM     15  C   UNL     1     111.701 125.081 137.005  0.00  0.00    +0.000 A 
ATOM     16  C   UNL     1     113.208 125.234 137.659  0.00  0.00    +0.000 A 
ATOM     17  C   UNL     1     112.269 124.499 136.871  0.00  0.00    +0.000 A 
ATOM     18  C   UNL     1     113.023 124.575 137.197  0.00  0.00    +0.000 A 
BRANCH  11  19
ATOM     19  O   UNL     1     110.900 127.609 138.211  0.00  0.00    +0.000 OA
ATOM     20  C   UNL     1     110.110 127.395 138.312  0.00  0.00    +0.000 C 
ENDBRANCH  11  19
BRANCH  15  21
ATOM     21  O   UNL     1     110.947 125.005 136.678  0.00  0.00    +0.000 OA
ATOM     22  C   UNL     1     110.817 125.210 135.889  0.00  0.00    +0.000 C 
ENDBRANCH  15  21
BRANCH  16  23
ATOM     23  O   UNL     1     113.962 125.310 137.985  0.00  0.00    +0.000 OA
ATOM     24  C   UNL     1     114.627 125.293 137.497  0.00  0.00    +0.000 C 
ENDBRANCH  16  23
BRANCH  17  25
ATOM     25  O   UNL     1     112.084 123.841 136.409  0.00  0.00    +0.000 OA
ATOM     26  C   UNL     1     111.998 123.100 136.763  0.00  0.00    +0.000 C 
ENDBRANCH  17  25
ENDBRANCH   6  10
BRANCH   1  27
ATOM     27  O   UNL     1     113.007 129.737 140.265  0.00  0.00    +0.000 OA
BRANCH  27  35
ATOM     28  O   UNL     1     111.669 130.236 140.312  0.00  0.00    +0.000 OA
ATOM     29  O   UNL     1     113.298 130.377 141.758  0.00  0.00    +0.000 OA
ATOM     30  O   UNL     1     110.622 131.376 141.851  0.00  0.00    +0.000 OA
ATOM     31  O   UNL     1     110.331 130.735 140.358  0.00  0.00    +0.000 OA
ATOM     32  C   UNL     1     111.960 130.876 141.804  0.00  0.00    +0.000 C 
ATOM     33  C   UNL     1     112.557 130.467 141.408  0.00  0.00    +0.000 C 
ATOM     34  C   UNL     1     111.219 130.966 141.455  0.00  0.00    +0.000 C 
ATOM     35  C   UNL     1     112.412 130.146 140.662  0.00  0.00    +0.000 C 
ATOM     36  C   UNL     1     111.074 130.646 140.709  0.00  0.00    +0.000 C 
BRANCH  32  37
ATOM     37  O   UNL     1     112.106 131.197 142.551  0.00  0.00    +0.000 OA
BRANCH  37  42
ATOM     38  O   UNL     1     111.812 129.946 143.175  0.00  0.00    +0.000 OA
ATOM     39  O   UNL     1     111.987 131.954 144.011  0.00  0.00    +0.000 OA
ATOM     40  O   UNL     1     111.633 131.082 145.367  0.00  0.00    +0.000 OA
ATOM     41  O   UNL     1     111.399 129.453 145.261  0.00  0.00    +0.000 OA
ATOM     42  C   UNL     1     111.929 130.761 143.228  0.00  0.00    +0.000 C 
ATOM     43  C   UNL     1     111.870 131.140 143.959  0.00  0.00    +0.000 C 
ATOM     44  C   UNL     1     111.693 130.703 144.636  0.00  0.00    +0.000 C 
ATOM     45  C   UNL     1     111.575 129.889 144.584  0.00  0.00    +0.000 C 
ATOM     46  C   UNL     1     111.635 129.510 143.853  0.00  0.00    +0.000 C 
BRANCH  46  48
ATOM     47  O   UNL     1     110.841 128.400 143.431  0.00  0.00    +0.000 OA
ATOM     48  C   UNL     1     111.518 128.696 143.800  0.00  0.00    +0.000 C 
ENDBRANCH  46  48
ENDBRANCH  37  42
ENDBRANCH  32  37
ENDBRANCH  27  35
ENDBRANCH   1  27
TORSDOF 10
ENDMDL
MODEL 7
REMARK VINA RESULT:      -8.8      7.089      8.857
REMARK  Name = 44260052
REMARK  10 active torsions:
REMARK  status: ('A' for Active; 'I' for Inactive)
REMARK    1  A    between atoms: O_1  and  C_19
REMARK    2  A    between atoms: O_1  and  C_20
REMARK    3  A    between atoms: O_9  and  C_27
REMARK    4  A    between atoms: O_9  and  C_30
REMARK    5  A    between atoms: O_13  and  C_37
REMARK    6  A    between atoms: O_14  and  C_41
REMARK    7  A    between atoms: O_15  and  C_42
REMARK    8  A    between atoms: O_17  and  C_43
REMARK    9  A    between atoms: C_24  and  C_29
REMARK   10  A    between atoms: C_35  and  C_36
REMARK                            x       y       z     vdW  Elec       q    Type
REMARK                         _______ _______ _______ _____ _____    ______ ____
ROOT
ATOM      1  C   UNL     1     105.729 128.357 145.051  0.00  0.00    +0.000 A 
ATOM      2  C   UNL     1     106.217 128.594 144.429  0.00  0.00    +0.000 A 
ATOM      3  C   UNL     1     104.929 128.558 145.049  0.00  0.00    +0.000 A 
ATOM      4  C   UNL     1     105.904 129.032 143.804  0.00  0.00    +0.000 A 
ATOM      5  C   UNL     1     104.616 128.996 144.424  0.00  0.00    +0.000 A 
ATOM      6  C   UNL     1     105.103 129.233 143.801  0.00  0.00    +0.000 A 
ENDROOT
BRANCH   6  10
ATOM      7  O   UNL     1     104.784 130.530 143.211  0.00  0.00    +0.000 OA
ATOM      8  O   UNL     1     103.831 129.363 141.176  0.00  0.00    +0.000 OA
ATOM      9  O   UNL     1     104.138 133.067 142.008  0.00  0.00    +0.000 OA
ATOM     10  C   UNL     1     104.790 129.672 143.176  0.00  0.00    +0.000 A 
ATOM     11  C   UNL     1     104.467 129.273 142.488  0.00  0.00    +0.000 A 
ATOM     12  C   UNL     1     104.456 130.978 142.555  0.00  0.00    +0.000 A 
ATOM     13  C   UNL     1     104.146 130.595 141.893  0.00  0.00    +0.000 A 
ATOM     14  C   UNL     1     104.143 129.737 141.842  0.00  0.00    +0.000 A 
ATOM     15  C   UNL     1     103.834 131.036 141.269  0.00  0.00    +0.000 A 
ATOM     16  C   UNL     1     104.453 131.802 142.593  0.00  0.00    +0.000 A 
ATOM     17  C   UNL     1     103.831 131.860 141.308  0.00  0.00    +0.000 A 
ATOM     18  C   UNL     1     104.141 132.243 141.970  0.00  0.00    +0.000 A 
BRANCH  11  19
ATOM     19  O   UNL     1     104.468 128.448 142.447  0.00  0.00    +0.000 OA
ATOM     20  C   UNL     1     104.614 128.072 141.727  0.00  0.00    +0.000 C 
ENDBRANCH  11  19
BRANCH  15  21
ATOM     21  O   UNL     1     103.524 130.653 140.608  0.00  0.00    +0.000 OA
ATOM     22  C   UNL     1     102.709 130.543 140.539  0.00  0.00    +0.000 C 
ENDBRANCH  15  21
BRANCH  16  23
ATOM     23  O   UNL     1     104.763 132.186 143.255  0.00  0.00    +0.000 OA
ATOM     24  C   UNL     1     104.272 132.646 143.732  0.00  0.00    +0.000 C 
ENDBRANCH  16  23
BRANCH  17  25
ATOM     25  O   UNL     1     103.519 132.300 140.685  0.00  0.00    +0.000 OA
ATOM     26  C   UNL     1     104.013 132.780 140.230  0.00  0.00    +0.000 C 
ENDBRANCH  17  25
ENDBRANCH   6  10
BRANCH   1  27
ATOM     27  O   UNL     1     106.042 127.919 145.676  0.00  0.00    +0.000 OA
BRANCH  27  35
ATOM     28  O   UNL     1     105.651 126.681 145.079  0.00  0.00    +0.000 OA
ATOM     29  O   UNL     1     107.168 127.125 146.584  0.00  0.00    +0.000 OA
ATOM     30  O   UNL     1     106.387 124.649 145.389  0.00  0.00    +0.000 OA
ATOM     31  O   UNL     1     105.261 125.443 144.481  0.00  0.00    +0.000 OA
ATOM     32  C   UNL     1     106.778 125.887 145.987  0.00  0.00    +0.000 C 
ATOM     33  C   UNL     1     106.692 126.705 146.059  0.00  0.00    +0.000 C 
ATOM     34  C   UNL     1     106.301 125.467 145.462  0.00  0.00    +0.000 C 
ATOM     35  C   UNL     1     106.129 127.102 145.605  0.00  0.00    +0.000 C 
ATOM     36  C   UNL     1     105.738 125.864 145.008  0.00  0.00    +0.000 C 
BRANCH  32  37
ATOM     37  O   UNL     1     107.341 125.491 146.441  0.00  0.00    +0.000 OA
BRANCH  37  42
ATOM     38  O   UNL     1     106.356 125.138 147.414  0.00  0.00    +0.000 OA
ATOM     39  O   UNL     1     108.536 125.129 147.519  0.00  0.00    +0.000 OA
ATOM     40  O   UNL     1     108.149 124.595 149.031  0.00  0.00    +0.000 OA
ATOM     41  O   UNL     1     106.567 124.423 149.465  0.00  0.00    +0.000 OA
ATOM     42  C   UNL     1     107.148 125.224 147.197  0.00  0.00    +0.000 C 
ATOM     43  C   UNL     1     107.746 125.043 147.736  0.00  0.00    +0.000 C 
ATOM     44  C   UNL     1     107.551 124.776 148.492  0.00  0.00    +0.000 C 
ATOM     45  C   UNL     1     106.761 124.690 148.710  0.00  0.00    +0.000 C 
ATOM     46  C   UNL     1     106.163 124.871 148.171  0.00  0.00    +0.000 C 
BRANCH  46  48
ATOM     47  O   UNL     1     104.906 125.454 148.520  0.00  0.00    +0.000 OA
ATOM     48  C   UNL     1     105.372 124.785 148.387  0.00  0.00    +0.000 C 
ENDBRANCH  46  48
ENDBRANCH  37  42
ENDBRANCH  32  37
ENDBRANCH  27  35
ENDBRANCH   1  27
TORSDOF 10
ENDMDL
MODEL 8
REMARK VINA RESULT:      -8.8      4.476      7.650
REMARK  Name = 44260052
REMARK  10 active torsions:
REMARK  status: ('A' for Active; 'I' for Inactive)
REMARK    1  A    between atoms: O_1  and  C_19
REMARK    2  A    between atoms: O_1  and  C_20
REMARK    3  A    between atoms: O_9  and  C_27
REMARK    4  A    between atoms: O_9  and  C_30
REMARK    5  A    between atoms: O_13  and  C_37
REMARK    6  A    between atoms: O_14  and  C_41
REMARK    7  A    between atoms: O_15  and  C_42
REMARK    8  A    between atoms: O_17  and  C_43
REMARK    9  A    between atoms: C_24  and  C_29
REMARK   10  A    between atoms: C_35  and  C_36
REMARK                            x       y       z     vdW  Elec       q    Type
REMARK                         _______ _______ _______ _____ _____    ______ ____
ROOT
ATOM      1  C   UNL     1     106.629 129.237 144.940  0.00  0.00    +0.000 A 
ATOM      2  C   UNL     1     106.842 129.783 144.359  0.00  0.00    +0.000 A 
ATOM      3  C   UNL     1     107.048 129.205 145.649  0.00  0.00    +0.000 A 
ATOM      4  C   UNL     1     107.474 130.298 144.488  0.00  0.00    +0.000 A 
ATOM      5  C   UNL     1     107.680 129.720 145.779  0.00  0.00    +0.000 A 
ATOM      6  C   UNL     1     107.893 130.266 145.198  0.00  0.00    +0.000 A 
ENDROOT
BRANCH   6  10
ATOM      7  O   UNL     1     109.322 130.550 145.104  0.00  0.00    +0.000 OA
ATOM      8  O   UNL     1     108.935 132.818 146.161  0.00  0.00    +0.000 OA
ATOM      9  O   UNL     1     112.135 131.152 144.937  0.00  0.00    +0.000 OA
ATOM     10  C   UNL     1     108.525 130.780 145.328  0.00  0.00    +0.000 A 
ATOM     11  C   UNL     1     108.390 131.549 145.686  0.00  0.00    +0.000 A 
ATOM     12  C   UNL     1     109.974 131.092 145.242  0.00  0.00    +0.000 A 
ATOM     13  C   UNL     1     109.845 131.831 145.587  0.00  0.00    +0.000 A 
ATOM     14  C   UNL     1     109.055 132.077 145.817  0.00  0.00    +0.000 A 
ATOM     15  C   UNL     1     110.479 132.343 145.715  0.00  0.00    +0.000 A 
ATOM     16  C   UNL     1     110.738 130.866 145.026  0.00  0.00    +0.000 A 
ATOM     17  C   UNL     1     111.242 132.117 145.498  0.00  0.00    +0.000 A 
ATOM     18  C   UNL     1     111.371 131.378 145.154  0.00  0.00    +0.000 A 
BRANCH  11  19
ATOM     19  O   UNL     1     107.628 131.778 145.904  0.00  0.00    +0.000 OA
ATOM     20  C   UNL     1     107.425 132.577 145.914  0.00  0.00    +0.000 C 
ENDBRANCH  11  19
BRANCH  15  21
ATOM     21  O   UNL     1     110.350 133.082 146.060  0.00  0.00    +0.000 OA
ATOM     22  C   UNL     1     110.504 133.195 146.862  0.00  0.00    +0.000 C 
ENDBRANCH  15  21
BRANCH  16  23
ATOM     23  O   UNL     1     110.867 130.128 144.681  0.00  0.00    +0.000 OA
ATOM     24  C   UNL     1     111.360 129.580 145.053  0.00  0.00    +0.000 C 
ENDBRANCH  16  23
BRANCH  17  25
ATOM     25  O   UNL     1     111.876 132.629 145.627  0.00  0.00    +0.000 OA
ATOM     26  C   UNL     1     112.260 132.978 144.985  0.00  0.00    +0.000 C 
ENDBRANCH  17  25
ENDBRANCH   6  10
BRANCH   1  27
ATOM     27  O   UNL     1     105.997 128.723 144.811  0.00  0.00    +0.000 OA
BRANCH  27  35
ATOM     28  O   UNL     1     106.754 127.804 144.020  0.00  0.00    +0.000 OA
ATOM     29  O   UNL     1     105.049 127.483 145.345  0.00  0.00    +0.000 OA
ATOM     30  O   UNL     1     106.562 125.645 143.763  0.00  0.00    +0.000 OA
ATOM     31  O   UNL     1     107.510 126.885 143.229  0.00  0.00    +0.000 OA
ATOM     32  C   UNL     1     105.806 126.564 144.554  0.00  0.00    +0.000 C 
ATOM     33  C   UNL     1     105.664 127.333 144.816  0.00  0.00    +0.000 C 
ATOM     34  C   UNL     1     106.420 126.414 144.025  0.00  0.00    +0.000 C 
ATOM     35  C   UNL     1     106.138 127.953 144.549  0.00  0.00    +0.000 C 
ATOM     36  C   UNL     1     106.894 127.034 143.758  0.00  0.00    +0.000 C 
BRANCH  32  37
ATOM     37  O   UNL     1     105.331 125.944 144.821  0.00  0.00    +0.000 OA
BRANCH  37  42
ATOM     38  O   UNL     1     106.195 125.767 145.945  0.00  0.00    +0.000 OA
ATOM     39  O   UNL     1     104.381 124.706 145.356  0.00  0.00    +0.000 OA
ATOM     40  O   UNL     1     104.770 123.910 146.749  0.00  0.00    +0.000 OA
ATOM     41  O   UNL     1     106.109 124.353 147.605  0.00  0.00    +0.000 OA
ATOM     42  C   UNL     1     105.525 125.546 145.517  0.00  0.00    +0.000 C 
ATOM     43  C   UNL     1     105.050 124.927 145.785  0.00  0.00    +0.000 C 
ATOM     44  C   UNL     1     105.245 124.529 146.481  0.00  0.00    +0.000 C 
ATOM     45  C   UNL     1     105.914 124.750 146.909  0.00  0.00    +0.000 C 
ATOM     46  C   UNL     1     106.389 125.369 146.641  0.00  0.00    +0.000 C 
BRANCH  46  48
ATOM     47  O   UNL     1     107.810 125.383 146.796  0.00  0.00    +0.000 OA
ATOM     48  C   UNL     1     107.059 125.591 147.069  0.00  0.00    +0.000 C 
ENDBRANCH  46  48
ENDBRANCH  37  42
ENDBRANCH  32  37
ENDBRANCH  27  35
ENDBRANCH   1  27
TORSDOF 10
ENDMDL
MODEL 9
REMARK VINA RESULT:      -8.7      4.387      5.605
REMARK  Name = 44260052
REMARK  10 active torsions:
REMARK  status: ('A' for Active; 'I' for Inactive)
REMARK    1  A    between atoms: O_1  and  C_19
REMARK    2  A    between atoms: O_1  and  C_20
REMARK    3  A    between atoms: O_9  and  C_27
REMARK    4  A    between atoms: O_9  and  C_30
REMARK    5  A    between atoms: O_13  and  C_37
REMARK    6  A    between atoms: O_14  and  C_41
REMARK    7  A    between atoms: O_15  and  C_42
REMARK    8  A    between atoms: O_17  and  C_43
REMARK    9  A    between atoms: C_24  and  C_29
REMARK   10  A    between atoms: C_35  and  C_36
REMARK                            x       y       z     vdW  Elec       q    Type
REMARK                         _______ _______ _______ _____ _____    ______ ____
ROOT
ATOM      1  C   UNL     1     111.324 129.383 139.828  0.00  0.00    +0.000 A 
ATOM      2  C   UNL     1     111.188 128.652 140.184  0.00  0.00    +0.000 A 
ATOM      3  C   UNL     1     111.726 129.425 139.110  0.00  0.00    +0.000 A 
ATOM      4  C   UNL     1     111.454 127.961 139.820  0.00  0.00    +0.000 A 
ATOM      5  C   UNL     1     111.992 128.734 138.746  0.00  0.00    +0.000 A 
ATOM      6  C   UNL     1     111.857 128.002 139.101  0.00  0.00    +0.000 A 
ENDROOT
BRANCH   6  10
ATOM      7  O   UNL     1     111.615 126.889 138.186  0.00  0.00    +0.000 OA
ATOM      8  O   UNL     1     113.931 125.991 138.678  0.00  0.00    +0.000 OA
ATOM      9  O   UNL     1     111.182 124.677 136.392  0.00  0.00    +0.000 OA
ATOM     10  C   UNL     1     112.123 127.311 138.737  0.00  0.00    +0.000 A 
ATOM     11  C   UNL     1     112.909 127.009 138.906  0.00  0.00    +0.000 A 
ATOM     12  C   UNL     1     111.901 126.170 137.813  0.00  0.00    +0.000 A 
ATOM     13  C   UNL     1     112.656 125.879 137.974  0.00  0.00    +0.000 A 
ATOM     14  C   UNL     1     113.177 126.289 138.522  0.00  0.00    +0.000 A 
ATOM     15  C   UNL     1     112.920 125.188 137.609  0.00  0.00    +0.000 A 
ATOM     16  C   UNL     1     111.410 125.769 137.285  0.00  0.00    +0.000 A 
ATOM     17  C   UNL     1     112.428 124.788 137.082  0.00  0.00    +0.000 A 
ATOM     18  C   UNL     1     111.673 125.078 136.920  0.00  0.00    +0.000 A 
BRANCH  11  19
ATOM     19  O   UNL     1     113.403 127.408 139.433  0.00  0.00    +0.000 OA
ATOM     20  C   UNL     1     113.893 126.982 139.941  0.00  0.00    +0.000 C 
ENDBRANCH  11  19
BRANCH  15  21
ATOM     21  O   UNL     1     113.675 124.898 137.772  0.00  0.00    +0.000 OA
ATOM     22  C   UNL     1     114.298 125.057 137.254  0.00  0.00    +0.000 C 
ENDBRANCH  15  21
BRANCH  16  23
ATOM     23  O   UNL     1     110.655 126.059 137.123  0.00  0.00    +0.000 OA
ATOM     24  C   UNL     1     110.450 126.269 136.351  0.00  0.00    +0.000 C 
ENDBRANCH  16  23
BRANCH  17  25
ATOM     25  O   UNL     1     112.692 124.097 136.717  0.00  0.00    +0.000 OA
ATOM     26  C   UNL     1     112.352 123.371 136.913  0.00  0.00    +0.000 C 
ENDBRANCH  17  25
ENDBRANCH   6  10
BRANCH   1  27
ATOM     27  O   UNL     1     111.058 130.074 140.192  0.00  0.00    +0.000 OA
BRANCH  27  35
ATOM     28  O   UNL     1     109.833 130.173 139.463  0.00  0.00    +0.000 OA
ATOM     29  O   UNL     1     110.309 130.677 141.533  0.00  0.00    +0.000 OA
ATOM     30  O   UNL     1     107.858 130.874 140.075  0.00  0.00    +0.000 OA
ATOM     31  O   UNL     1     108.607 130.271 138.734  0.00  0.00    +0.000 OA
ATOM     32  C   UNL     1     109.083 130.775 140.804  0.00  0.00    +0.000 C 
ATOM     33  C   UNL     1     109.883 130.576 140.834  0.00  0.00    +0.000 C 
ATOM     34  C   UNL     1     108.658 130.674 140.105  0.00  0.00    +0.000 C 
ATOM     35  C   UNL     1     110.258 130.274 140.163  0.00  0.00    +0.000 C 
ATOM     36  C   UNL     1     109.033 130.372 139.435  0.00  0.00    +0.000 C 
BRANCH  32  37
ATOM     37  O   UNL     1     108.709 131.077 141.474  0.00  0.00    +0.000 OA
BRANCH  37  42
ATOM     38  O   UNL     1     108.424 129.756 141.940  0.00  0.00    +0.000 OA
ATOM     39  O   UNL     1     107.635 131.693 142.565  0.00  0.00    +0.000 OA
ATOM     40  O   UNL     1     106.813 130.681 143.576  0.00  0.00    +0.000 OA
ATOM     41  O   UNL     1     107.065 129.053 143.497  0.00  0.00    +0.000 OA
ATOM     42  C   UNL     1     108.298 130.571 141.980  0.00  0.00    +0.000 C 
ATOM     43  C   UNL     1     107.761 130.880 142.526  0.00  0.00    +0.000 C 
ATOM     44  C   UNL     1     107.350 130.373 143.031  0.00  0.00    +0.000 C 
ATOM     45  C   UNL     1     107.476 129.559 142.991  0.00  0.00    +0.000 C 
ATOM     46  C   UNL     1     108.013 129.251 142.446  0.00  0.00    +0.000 C 
BRANCH  46  48
ATOM     47  O   UNL     1     108.828 128.110 142.723  0.00  0.00    +0.000 OA
ATOM     48  C   UNL     1     108.139 128.437 142.406  0.00  0.00    +0.000 C 
ENDBRANCH  46  48
ENDBRANCH  37  42
ENDBRANCH  32  37
ENDBRANCH  27  35
ENDBRANCH   1  27
TORSDOF 10
ENDMDL
MODEL 10
REMARK VINA RESULT:      -8.7      6.476      8.605
REMARK  Name = 44260052
REMARK  10 active torsions:
REMARK  status: ('A' for Active; 'I' for Inactive)
REMARK    1  A    between atoms: O_1  and  C_19
REMARK    2  A    between atoms: O_1  and  C_20
REMARK    3  A    between atoms: O_9  and  C_27
REMARK    4  A    between atoms: O_9  and  C_30
REMARK    5  A    between atoms: O_13  and  C_37
REMARK    6  A    between atoms: O_14  and  C_41
REMARK    7  A    between atoms: O_15  and  C_42
REMARK    8  A    between atoms: O_17  and  C_43
REMARK    9  A    between atoms: C_24  and  C_29
REMARK   10  A    between atoms: C_35  and  C_36
REMARK                            x       y       z     vdW  Elec       q    Type
REMARK                         _______ _______ _______ _____ _____    ______ ____
ROOT
ATOM      1  C   UNL     1     109.269 125.778 140.558  0.00  0.00    +0.000 A 
ATOM      2  C   UNL     1     109.119 125.745 139.747  0.00  0.00    +0.000 A 
ATOM      3  C   UNL     1     109.865 126.267 140.849  0.00  0.00    +0.000 A 
ATOM      4  C   UNL     1     109.568 126.203 139.227  0.00  0.00    +0.000 A 
ATOM      5  C   UNL     1     110.313 126.724 140.329  0.00  0.00    +0.000 A 
ATOM      6  C   UNL     1     110.165 126.693 139.518  0.00  0.00    +0.000 A 
ENDROOT
BRANCH   6  10
ATOM      7  O   UNL     1     111.336 126.833 138.658  0.00  0.00    +0.000 OA
ATOM      8  O   UNL     1     110.600 129.178 138.050  0.00  0.00    +0.000 OA
ATOM      9  O   UNL     1     113.633 127.155 136.948  0.00  0.00    +0.000 OA
ATOM     10  C   UNL     1     110.614 127.150 138.998  0.00  0.00    +0.000 A 
ATOM     11  C   UNL     1     110.361 127.945 138.794  0.00  0.00    +0.000 A 
ATOM     12  C   UNL     1     111.797 127.317 138.117  0.00  0.00    +0.000 A 
ATOM     13  C   UNL     1     111.554 128.081 137.920  0.00  0.00    +0.000 A 
ATOM     14  C   UNL     1     110.834 128.414 138.252  0.00  0.00    +0.000 A 
ATOM     15  C   UNL     1     112.005 128.537 137.400  0.00  0.00    +0.000 A 
ATOM     16  C   UNL     1     112.490 127.009 137.793  0.00  0.00    +0.000 A 
ATOM     17  C   UNL     1     112.697 128.227 137.077  0.00  0.00    +0.000 A 
ATOM     18  C   UNL     1     112.940 127.464 137.272  0.00  0.00    +0.000 A 
BRANCH  11  19
ATOM     19  O   UNL     1     109.668 128.256 139.117  0.00  0.00    +0.000 OA
ATOM     20  C   UNL     1     109.584 129.072 139.202  0.00  0.00    +0.000 C 
ENDBRANCH  11  19
BRANCH  15  21
ATOM     21  O   UNL     1     111.762 129.300 137.204  0.00  0.00    +0.000 OA
ATOM     22  C   UNL     1     112.135 129.952 137.546  0.00  0.00    +0.000 C 
ENDBRANCH  15  21
BRANCH  16  23
ATOM     23  O   UNL     1     112.733 126.245 137.989  0.00  0.00    +0.000 OA
ATOM     24  C   UNL     1     113.453 126.127 138.373  0.00  0.00    +0.000 C 
ENDBRANCH  16  23
BRANCH  17  25
ATOM     25  O   UNL     1     113.148 128.683 136.556  0.00  0.00    +0.000 OA
ATOM     26  C   UNL     1     113.180 128.484 135.756  0.00  0.00    +0.000 C 
ENDBRANCH  17  25
ENDBRANCH   6  10
BRANCH   1  27
ATOM     27  O   UNL     1     108.820 125.320 141.078  0.00  0.00    +0.000 OA
BRANCH  27  35
ATOM     28  O   UNL     1     107.881 126.368 141.331  0.00  0.00    +0.000 OA
ATOM     29  O   UNL     1     107.663 124.198 141.429  0.00  0.00    +0.000 OA
ATOM     30  O   UNL     1     105.785 126.292 141.935  0.00  0.00    +0.000 OA
ATOM     31  O   UNL     1     106.943 127.415 141.584  0.00  0.00    +0.000 OA
ATOM     32  C   UNL     1     106.724 125.245 141.682  0.00  0.00    +0.000 C 
ATOM     33  C   UNL     1     107.483 125.001 141.468  0.00  0.00    +0.000 C 
ATOM     34  C   UNL     1     106.544 126.049 141.721  0.00  0.00    +0.000 C 
ATOM     35  C   UNL     1     108.061 125.563 141.292  0.00  0.00    +0.000 C 
ATOM     36  C   UNL     1     107.123 126.610 141.545  0.00  0.00    +0.000 C 
BRANCH  32  37
ATOM     37  O   UNL     1     106.145 124.684 141.858  0.00  0.00    +0.000 OA
BRANCH  37  42
ATOM     38  O   UNL     1     105.774 124.627 140.479  0.00  0.00    +0.000 OA
ATOM     39  O   UNL     1     105.129 123.426 142.184  0.00  0.00    +0.000 OA
ATOM     40  O   UNL     1     104.250 122.739 140.968  0.00  0.00    +0.000 OA
ATOM     41  O   UNL     1     104.387 123.311 139.427  0.00  0.00    +0.000 OA
ATOM     42  C   UNL     1     105.706 124.340 141.250  0.00  0.00    +0.000 C 
ATOM     43  C   UNL     1     105.197 123.711 141.413  0.00  0.00    +0.000 C 
ATOM     44  C   UNL     1     104.758 123.368 140.805  0.00  0.00    +0.000 C 
ATOM     45  C   UNL     1     104.826 123.654 140.034  0.00  0.00    +0.000 C 
ATOM     46  C   UNL     1     105.335 124.283 139.871  0.00  0.00    +0.000 C 
BRANCH  46  48
ATOM     47  O   UNL     1     105.037 125.279 138.891  0.00  0.00    +0.000 OA
ATOM     48  C   UNL     1     105.404 124.569 139.101  0.00  0.00    +0.000 C 
ENDBRANCH  46  48
ENDBRANCH  37  42
ENDBRANCH  32  37
ENDBRANCH  27  35
ENDBRANCH   1  27
TORSDOF 10
ENDMDL
