MODEL 1
REMARK VINA RESULT:     -11.8      0.000      0.000
REMARK  Name = 74819376
REMARK  8 active torsions:
REMARK  status: ('A' for Active; 'I' for Inactive)
REMARK    1  A    between atoms: O_1  and  C_19
REMARK    2  A    between atoms: O_1  and  C_24
REMARK    3  A    between atoms: O_4  and  C_27
REMARK    4  A    between atoms: O_4  and  C_30
REMARK    5  A    between atoms: O_6  and  C_23
REMARK    6  A    between atoms: O_6  and  C_37
REMARK    7  A    between atoms: C_22  and  C_27
REMARK    8  A    between atoms: C_43  and  C_46
REMARK                            x       y       z     vdW  Elec       q    Type
REMARK                         _______ _______ _______ _____ _____    ______ ____
ROOT
ATOM      1  O   UNL     1     105.565 127.015 143.544  0.00  0.00    +0.000 OA
ATOM      2  O   UNL     1     106.443 127.551 145.795  0.00  0.00    +0.000 OA
ATOM      3  O   UNL     1     105.661 128.709 144.918  0.00  0.00    +0.000 OA
ATOM      4  C   UNL     1     106.249 126.614 144.733  0.00  0.00    +0.000 C 
ATOM      5  C   UNL     1     106.150 127.372 145.045  0.00  0.00    +0.000 C 
ATOM      6  C   UNL     1     105.759 127.951 144.606  0.00  0.00    +0.000 C 
ATOM      7  C   UNL     1     105.467 127.772 143.855  0.00  0.00    +0.000 C 
ATOM      8  C   UNL     1     105.956 126.436 143.983  0.00  0.00    +0.000 C 
ENDROOT
BRANCH   4   9
ATOM      9  O   UNL     1     106.640 126.036 145.172  0.00  0.00    +0.000 OA
BRANCH   9  14
ATOM     10  O   UNL     1     105.415 125.585 145.755  0.00  0.00    +0.000 OA
ATOM     11  O   UNL     1     107.485 125.312 146.390  0.00  0.00    +0.000 OA
ATOM     12  O   UNL     1     106.683 124.499 147.582  0.00  0.00    +0.000 OA
ATOM     13  O   UNL     1     105.036 124.411 147.555  0.00  0.00    +0.000 OA
ATOM     14  C   UNL     1     106.238 125.629 145.768  0.00  0.00    +0.000 C 
ATOM     15  C   UNL     1     106.661 125.268 146.377  0.00  0.00    +0.000 C 
ATOM     16  C   UNL     1     106.260 124.861 146.973  0.00  0.00    +0.000 C 
ATOM     17  C   UNL     1     105.436 124.817 146.960  0.00  0.00    +0.000 C 
ATOM     18  C   UNL     1     105.014 125.179 146.350  0.00  0.00    +0.000 C 
ATOM     19  C   UNL     1     104.190 125.135 146.337  0.00  0.00    +0.000 C 
ENDBRANCH   9  14
ENDBRANCH   4   9
BRANCH   8  20
ATOM     20  O   UNL     1     106.055 125.679 143.671  0.00  0.00    +0.000 OA
BRANCH  20  24
ATOM     21  O   UNL     1     105.417 124.836 140.957  0.00  0.00    +0.000 OA
ATOM     22  O   UNL     1     108.029 125.930 141.533  0.00  0.00    +0.000 OA
ATOM     23  O   UNL     1     107.678 125.502 140.201  0.00  0.00    +0.000 OA
ATOM     24  C   UNL     1     106.274 125.583 142.882  0.00  0.00    +0.000 A 
ATOM     25  C   UNL     1     105.718 125.251 142.316  0.00  0.00    +0.000 A 
ATOM     26  C   UNL     1     107.058 125.814 142.619  0.00  0.00    +0.000 A 
ATOM     27  C   UNL     1     105.955 125.155 141.496  0.00  0.00    +0.000 A 
ATOM     28  C   UNL     1     106.708 125.377 141.244  0.00  0.00    +0.000 A 
ATOM     29  C   UNL     1     107.277 125.710 141.794  0.00  0.00    +0.000 A 
ATOM     30  C   UNL     1     105.633 124.738 140.167  0.00  0.00    +0.000 C 
ATOM     31  C   UNL     1     106.387 124.961 139.915  0.00  0.00    +0.000 C 
ATOM     32  C   UNL     1     106.924 125.280 140.453  0.00  0.00    +0.000 C 
BRANCH  30  34
ATOM     33  O   UNL     1     103.483 123.463 138.013  0.00  0.00    +0.000 OA
ATOM     34  C   UNL     1     105.095 124.419 139.628  0.00  0.00    +0.000 A 
ATOM     35  C   UNL     1     105.168 123.633 139.390  0.00  0.00    +0.000 A 
ATOM     36  C   UNL     1     104.486 124.888 139.328  0.00  0.00    +0.000 A 
ATOM     37  C   UNL     1     104.630 123.315 138.852  0.00  0.00    +0.000 A 
ATOM     38  C   UNL     1     103.948 124.569 138.790  0.00  0.00    +0.000 A 
ATOM     39  C   UNL     1     104.020 123.782 138.552  0.00  0.00    +0.000 A 
ENDBRANCH  30  34
ENDBRANCH  20  24
ENDBRANCH   8  20
BRANCH   7  40
ATOM     40  C   UNL     1     105.076 128.352 143.417  0.00  0.00    +0.000 C 
BRANCH  40  41
ATOM     41  O   UNL     1     104.655 128.143 142.739  0.00  0.00    +0.000 OA
BRANCH  41  46
ATOM     42  O   UNL     1     103.852 129.324 142.793  0.00  0.00    +0.000 OA
ATOM     43  O   UNL     1     104.345 128.005 141.125  0.00  0.00    +0.000 OA
ATOM     44  O   UNL     1     103.387 129.117 140.370  0.00  0.00    +0.000 OA
ATOM     45  O   UNL     1     102.739 130.367 141.231  0.00  0.00    +0.000 OA
ATOM     46  C   UNL     1     104.176 128.700 142.363  0.00  0.00    +0.000 C 
ATOM     47  C   UNL     1     104.021 128.630 141.555  0.00  0.00    +0.000 C 
ATOM     48  C   UNL     1     103.542 129.186 141.178  0.00  0.00    +0.000 C 
ATOM     49  C   UNL     1     103.218 129.811 141.609  0.00  0.00    +0.000 C 
ATOM     50  C   UNL     1     103.373 129.880 142.416  0.00  0.00    +0.000 C 
ATOM     51  C   UNL     1     103.049 130.505 142.846  0.00  0.00    +0.000 C 
ENDBRANCH  41  46
ENDBRANCH  40  41
ENDBRANCH   7  40
TORSDOF 8
ENDMDL
MODEL 2
REMARK VINA RESULT:     -11.6      2.541      3.944
REMARK  Name = 74819376
REMARK  8 active torsions:
REMARK  status: ('A' for Active; 'I' for Inactive)
REMARK    1  A    between atoms: O_1  and  C_19
REMARK    2  A    between atoms: O_1  and  C_24
REMARK    3  A    between atoms: O_4  and  C_27
REMARK    4  A    between atoms: O_4  and  C_30
REMARK    5  A    between atoms: O_6  and  C_23
REMARK    6  A    between atoms: O_6  and  C_37
REMARK    7  A    between atoms: C_22  and  C_27
REMARK    8  A    between atoms: C_43  and  C_46
REMARK                            x       y       z     vdW  Elec       q    Type
REMARK                         _______ _______ _______ _____ _____    ______ ____
ROOT
ATOM      1  O   UNL     1     106.305 126.688 141.419  0.00  0.00    +0.000 OA
ATOM      2  O   UNL     1     108.342 127.193 142.730  0.00  0.00    +0.000 OA
ATOM      3  O   UNL     1     106.948 128.029 143.017  0.00  0.00    +0.000 OA
ATOM      4  C   UNL     1     107.681 126.438 141.713  0.00  0.00    +0.000 C 
ATOM      5  C   UNL     1     107.663 127.025 142.293  0.00  0.00    +0.000 C 
ATOM      6  C   UNL     1     106.966 127.442 142.436  0.00  0.00    +0.000 C 
ATOM      7  C   UNL     1     106.287 127.274 141.999  0.00  0.00    +0.000 C 
ATOM      8  C   UNL     1     107.001 126.270 141.276  0.00  0.00    +0.000 C 
ENDROOT
BRANCH   4   9
ATOM      9  O   UNL     1     108.378 126.021 141.570  0.00  0.00    +0.000 OA
BRANCH   9  14
ATOM     10  O   UNL     1     108.811 127.048 140.675  0.00  0.00    +0.000 OA
ATOM     11  O   UNL     1     109.822 125.246 141.379  0.00  0.00    +0.000 OA
ATOM     12  O   UNL     1     110.977 125.885 140.389  0.00  0.00    +0.000 OA
ATOM     13  O   UNL     1     110.687 127.299 139.590  0.00  0.00    +0.000 OA
ATOM     14  C   UNL     1     108.955 126.341 141.074  0.00  0.00    +0.000 C 
ATOM     15  C   UNL     1     109.677 125.953 140.980  0.00  0.00    +0.000 C 
ATOM     16  C   UNL     1     110.255 126.273 140.484  0.00  0.00    +0.000 C 
ATOM     17  C   UNL     1     110.110 126.980 140.084  0.00  0.00    +0.000 C 
ATOM     18  C   UNL     1     109.388 127.367 140.180  0.00  0.00    +0.000 C 
ATOM     19  C   UNL     1     109.243 128.074 139.780  0.00  0.00    +0.000 C 
ENDBRANCH   9  14
ENDBRANCH   4   9
BRANCH   8  20
ATOM     20  O   UNL     1     107.019 125.684 140.696  0.00  0.00    +0.000 OA
BRANCH  20  24
ATOM     21  O   UNL     1     104.852 124.336 139.292  0.00  0.00    +0.000 OA
ATOM     22  O   UNL     1     105.566 123.489 141.961  0.00  0.00    +0.000 OA
ATOM     23  O   UNL     1     104.498 122.844 141.235  0.00  0.00    +0.000 OA
ATOM     24  C   UNL     1     106.430 125.107 140.674  0.00  0.00    +0.000 A 
ATOM     25  C   UNL     1     105.935 125.019 139.977  0.00  0.00    +0.000 A 
ATOM     26  C   UNL     1     106.307 124.589 141.349  0.00  0.00    +0.000 A 
ATOM     27  C   UNL     1     105.324 124.416 139.964  0.00  0.00    +0.000 A 
ATOM     28  C   UNL     1     105.206 123.918 140.612  0.00  0.00    +0.000 A 
ATOM     29  C   UNL     1     105.691 123.991 141.317  0.00  0.00    +0.000 A 
ATOM     30  C   UNL     1     104.262 123.760 139.268  0.00  0.00    +0.000 C 
ATOM     31  C   UNL     1     104.144 123.263 139.916  0.00  0.00    +0.000 C 
ATOM     32  C   UNL     1     104.616 123.342 140.588  0.00  0.00    +0.000 C 
BRANCH  30  34
ATOM     33  O   UNL     1     102.373 123.444 136.581  0.00  0.00    +0.000 OA
ATOM     34  C   UNL     1     103.790 123.681 138.596  0.00  0.00    +0.000 A 
ATOM     35  C   UNL     1     104.117 123.401 137.892  0.00  0.00    +0.000 A 
ATOM     36  C   UNL     1     102.989 123.882 138.628  0.00  0.00    +0.000 A 
ATOM     37  C   UNL     1     103.644 123.323 137.221  0.00  0.00    +0.000 A 
ATOM     38  C   UNL     1     102.517 123.802 137.956  0.00  0.00    +0.000 A 
ATOM     39  C   UNL     1     102.845 123.523 137.253  0.00  0.00    +0.000 A 
ENDBRANCH  30  34
ENDBRANCH  20  24
ENDBRANCH   8  20
BRANCH   7  40
ATOM     40  C   UNL     1     105.590 127.692 142.143  0.00  0.00    +0.000 C 
BRANCH  40  41
ATOM     41  O   UNL     1     105.021 127.761 141.551  0.00  0.00    +0.000 OA
BRANCH  41  46
ATOM     42  O   UNL     1     104.387 128.817 142.277  0.00  0.00    +0.000 OA
ATOM     43  O   UNL     1     103.962 127.983 140.304  0.00  0.00    +0.000 OA
ATOM     44  O   UNL     1     102.800 129.150 140.407  0.00  0.00    +0.000 OA
ATOM     45  O   UNL     1     102.695 130.094 141.756  0.00  0.00    +0.000 OA
ATOM     46  C   UNL     1     104.439 128.345 141.603  0.00  0.00    +0.000 C 
ATOM     47  C   UNL     1     103.910 128.456 140.980  0.00  0.00    +0.000 C 
ATOM     48  C   UNL     1     103.329 129.039 141.030  0.00  0.00    +0.000 C 
ATOM     49  C   UNL     1     103.277 129.510 141.705  0.00  0.00    +0.000 C 
ATOM     50  C   UNL     1     103.806 129.399 142.328  0.00  0.00    +0.000 C 
ATOM     51  C   UNL     1     103.753 129.872 143.003  0.00  0.00    +0.000 C 
ENDBRANCH  41  46
ENDBRANCH  40  41
ENDBRANCH   7  40
TORSDOF 8
ENDMDL
MODEL 3
REMARK VINA RESULT:     -11.4      7.487      9.712
REMARK  Name = 74819376
REMARK  8 active torsions:
REMARK  status: ('A' for Active; 'I' for Inactive)
REMARK    1  A    between atoms: O_1  and  C_19
REMARK    2  A    between atoms: O_1  and  C_24
REMARK    3  A    between atoms: O_4  and  C_27
REMARK    4  A    between atoms: O_4  and  C_30
REMARK    5  A    between atoms: O_6  and  C_23
REMARK    6  A    between atoms: O_6  and  C_37
REMARK    7  A    between atoms: C_22  and  C_27
REMARK    8  A    between atoms: C_43  and  C_46
REMARK                            x       y       z     vdW  Elec       q    Type
REMARK                         _______ _______ _______ _____ _____    ______ ____
ROOT
ATOM      1  O   UNL     1     111.014 129.420 138.058  0.00  0.00    +0.000 OA
ATOM      2  O   UNL     1     108.679 130.143 138.448  0.00  0.00    +0.000 OA
ATOM      3  O   UNL     1     109.732 130.035 139.714  0.00  0.00    +0.000 OA
ATOM      4  C   UNL     1     109.709 129.715 137.554  0.00  0.00    +0.000 C 
ATOM      5  C   UNL     1     109.457 129.902 138.318  0.00  0.00    +0.000 C 
ATOM      6  C   UNL     1     109.984 129.848 138.950  0.00  0.00    +0.000 C 
ATOM      7  C   UNL     1     110.762 129.607 138.820  0.00  0.00    +0.000 C 
ATOM      8  C   UNL     1     110.488 129.474 137.424  0.00  0.00    +0.000 C 
ENDROOT
BRANCH   4   9
ATOM      9  O   UNL     1     109.183 129.769 136.922  0.00  0.00    +0.000 OA
BRANCH   9  14
ATOM     10  O   UNL     1     109.534 131.144 136.747  0.00  0.00    +0.000 OA
ATOM     11  O   UNL     1     108.074 129.898 135.706  0.00  0.00    +0.000 OA
ATOM     12  O   UNL     1     107.872 131.336 134.923  0.00  0.00    +0.000 OA
ATOM     13  O   UNL     1     108.778 132.646 135.356  0.00  0.00    +0.000 OA
ATOM     14  C   UNL     1     109.081 130.489 136.530  0.00  0.00    +0.000 C 
ATOM     15  C   UNL     1     108.527 130.553 135.923  0.00  0.00    +0.000 C 
ATOM     16  C   UNL     1     108.426 131.272 135.531  0.00  0.00    +0.000 C 
ATOM     17  C   UNL     1     108.879 131.927 135.748  0.00  0.00    +0.000 C 
ATOM     18  C   UNL     1     109.433 131.862 136.356  0.00  0.00    +0.000 C 
ATOM     19  C   UNL     1     109.886 132.517 136.572  0.00  0.00    +0.000 C 
ENDBRANCH   9  14
ENDBRANCH   4   9
BRANCH   8  20
ATOM     20  O   UNL     1     110.739 129.287 136.662  0.00  0.00    +0.000 OA
BRANCH  20  24
ATOM     21  O   UNL     1     111.858 126.598 136.674  0.00  0.00    +0.000 OA
ATOM     22  O   UNL     1     113.543 128.840 135.975  0.00  0.00    +0.000 OA
ATOM     23  O   UNL     1     114.063 127.494 135.991  0.00  0.00    +0.000 OA
ATOM     24  C   UNL     1     111.378 128.778 136.551  0.00  0.00    +0.000 A 
ATOM     25  C   UNL     1     111.284 127.932 136.673  0.00  0.00    +0.000 A 
ATOM     26  C   UNL     1     112.144 129.088 136.315  0.00  0.00    +0.000 A 
ATOM     27  C   UNL     1     111.955 127.409 136.556  0.00  0.00    +0.000 A 
ATOM     28  C   UNL     1     112.690 127.708 136.328  0.00  0.00    +0.000 A 
ATOM     29  C   UNL     1     112.804 128.550 136.202  0.00  0.00    +0.000 A 
ATOM     30  C   UNL     1     112.496 126.086 136.564  0.00  0.00    +0.000 C 
ATOM     31  C   UNL     1     113.231 126.385 136.337  0.00  0.00    +0.000 C 
ATOM     32  C   UNL     1     113.327 127.196 136.219  0.00  0.00    +0.000 C 
BRANCH  30  34
ATOM     33  O   UNL     1     112.108 122.843 137.035  0.00  0.00    +0.000 OA
ATOM     34  C   UNL     1     112.399 125.275 136.682  0.00  0.00    +0.000 A 
ATOM     35  C   UNL     1     112.869 124.880 137.233  0.00  0.00    +0.000 A 
ATOM     36  C   UNL     1     111.832 124.861 136.248  0.00  0.00    +0.000 A 
ATOM     37  C   UNL     1     112.771 124.069 137.350  0.00  0.00    +0.000 A 
ATOM     38  C   UNL     1     111.735 124.050 136.366  0.00  0.00    +0.000 A 
ATOM     39  C   UNL     1     112.205 123.654 136.917  0.00  0.00    +0.000 A 
ENDBRANCH  30  34
ENDBRANCH  20  24
ENDBRANCH   8  20
BRANCH   7  40
ATOM     40  C   UNL     1     111.288 129.553 139.454  0.00  0.00    +0.000 C 
BRANCH  40  41
ATOM     41  O   UNL     1     112.030 129.911 139.406  0.00  0.00    +0.000 OA
BRANCH  41  46
ATOM     42  O   UNL     1     112.812 128.763 139.741  0.00  0.00    +0.000 OA
ATOM     43  O   UNL     1     113.051 130.863 140.285  0.00  0.00    +0.000 OA
ATOM     44  O   UNL     1     114.344 130.191 141.059  0.00  0.00    +0.000 OA
ATOM     45  O   UNL     1     114.616 128.567 140.954  0.00  0.00    +0.000 OA
ATOM     46  C   UNL     1     112.676 129.574 139.793  0.00  0.00    +0.000 C 
ATOM     47  C   UNL     1     113.187 130.050 140.233  0.00  0.00    +0.000 C 
ATOM     48  C   UNL     1     113.833 129.715 140.620  0.00  0.00    +0.000 C 
ATOM     49  C   UNL     1     113.969 128.903 140.567  0.00  0.00    +0.000 C 
ATOM     50  C   UNL     1     113.458 128.427 140.127  0.00  0.00    +0.000 C 
ATOM     51  C   UNL     1     113.595 127.615 140.075  0.00  0.00    +0.000 C 
ENDBRANCH  41  46
ENDBRANCH  40  41
ENDBRANCH   7  40
TORSDOF 8
ENDMDL
MODEL 4
REMARK VINA RESULT:     -11.3      7.657      9.730
REMARK  Name = 74819376
REMARK  8 active torsions:
REMARK  status: ('A' for Active; 'I' for Inactive)
REMARK    1  A    between atoms: O_1  and  C_19
REMARK    2  A    between atoms: O_1  and  C_24
REMARK    3  A    between atoms: O_4  and  C_27
REMARK    4  A    between atoms: O_4  and  C_30
REMARK    5  A    between atoms: O_6  and  C_23
REMARK    6  A    between atoms: O_6  and  C_37
REMARK    7  A    between atoms: C_22  and  C_27
REMARK    8  A    between atoms: C_43  and  C_46
REMARK                            x       y       z     vdW  Elec       q    Type
REMARK                         _______ _______ _______ _____ _____    ______ ____
ROOT
ATOM      1  O   UNL     1     112.930 128.016 138.966  0.00  0.00    +0.000 OA
ATOM      2  O   UNL     1     112.023 125.836 139.709  0.00  0.00    +0.000 OA
ATOM      3  O   UNL     1     112.771 126.832 140.792  0.00  0.00    +0.000 OA
ATOM      4  C   UNL     1     112.254 126.792 138.672  0.00  0.00    +0.000 C 
ATOM      5  C   UNL     1     112.326 126.563 139.462  0.00  0.00    +0.000 C 
ATOM      6  C   UNL     1     112.700 127.061 140.002  0.00  0.00    +0.000 C 
ATOM      7  C   UNL     1     113.002 127.787 139.754  0.00  0.00    +0.000 C 
ATOM      8  C   UNL     1     112.556 127.518 138.424  0.00  0.00    +0.000 C 
ENDROOT
BRANCH   4   9
ATOM      9  O   UNL     1     111.880 126.294 138.131  0.00  0.00    +0.000 OA
BRANCH   9  14
ATOM     10  O   UNL     1     113.127 125.669 137.816  0.00  0.00    +0.000 OA
ATOM     11  O   UNL     1     111.077 125.092 137.335  0.00  0.00    +0.000 OA
ATOM     12  O   UNL     1     111.922 123.867 136.623  0.00  0.00    +0.000 OA
ATOM     13  O   UNL     1     113.569 123.843 136.706  0.00  0.00    +0.000 OA
ATOM     14  C   UNL     1     112.303 125.681 137.774  0.00  0.00    +0.000 C 
ATOM     15  C   UNL     1     111.901 125.080 137.377  0.00  0.00    +0.000 C 
ATOM     16  C   UNL     1     112.324 124.467 137.020  0.00  0.00    +0.000 C 
ATOM     17  C   UNL     1     113.147 124.455 137.062  0.00  0.00    +0.000 C 
ATOM     18  C   UNL     1     113.548 125.057 137.460  0.00  0.00    +0.000 C 
ATOM     19  C   UNL     1     114.372 125.045 137.501  0.00  0.00    +0.000 C 
ENDBRANCH   9  14
ENDBRANCH   4   9
BRANCH   8  20
ATOM     20  O   UNL     1     112.485 127.747 137.635  0.00  0.00    +0.000 OA
BRANCH  20  24
ATOM     21  O   UNL     1     110.656 129.978 137.230  0.00  0.00    +0.000 OA
ATOM     22  O   UNL     1     113.496 130.381 136.877  0.00  0.00    +0.000 OA
ATOM     23  O   UNL     1     112.561 131.462 136.685  0.00  0.00    +0.000 OA
ATOM     24  C   UNL     1     112.353 128.539 137.445  0.00  0.00    +0.000 A 
ATOM     25  C   UNL     1     111.553 128.855 137.436  0.00  0.00    +0.000 A 
ATOM     26  C   UNL     1     113.013 129.055 137.256  0.00  0.00    +0.000 A 
ATOM     27  C   UNL     1     111.426 129.681 137.237  0.00  0.00    +0.000 A 
ATOM     28  C   UNL     1     112.061 130.175 137.056  0.00  0.00    +0.000 A 
ATOM     29  C   UNL     1     112.866 129.878 137.060  0.00  0.00    +0.000 A 
ATOM     30  C   UNL     1     110.521 130.770 137.041  0.00  0.00    +0.000 C 
ATOM     31  C   UNL     1     111.156 131.264 136.859  0.00  0.00    +0.000 C 
ATOM     32  C   UNL     1     111.926 130.967 136.867  0.00  0.00    +0.000 C 
BRANCH  30  34
ATOM     33  O   UNL     1     107.443 131.959 137.010  0.00  0.00    +0.000 OA
ATOM     34  C   UNL     1     109.752 131.067 137.033  0.00  0.00    +0.000 A 
ATOM     35  C   UNL     1     109.453 131.456 137.697  0.00  0.00    +0.000 A 
ATOM     36  C   UNL     1     109.281 130.975 136.362  0.00  0.00    +0.000 A 
ATOM     37  C   UNL     1     108.684 131.753 137.689  0.00  0.00    +0.000 A 
ATOM     38  C   UNL     1     108.511 131.272 136.354  0.00  0.00    +0.000 A 
ATOM     39  C   UNL     1     108.213 131.661 137.018  0.00  0.00    +0.000 A 
ENDBRANCH  30  34
ENDBRANCH  20  24
ENDBRANCH   8  20
BRANCH   7  40
ATOM     40  C   UNL     1     113.376 128.284 140.296  0.00  0.00    +0.000 C 
BRANCH  40  41
ATOM     41  O   UNL     1     113.011 128.984 140.534  0.00  0.00    +0.000 OA
BRANCH  41  46
ATOM     42  O   UNL     1     114.235 129.721 140.490  0.00  0.00    +0.000 OA
ATOM     43  O   UNL     1     112.391 130.081 141.600  0.00  0.00    +0.000 OA
ATOM     44  O   UNL     1     113.305 131.365 142.089  0.00  0.00    +0.000 OA
ATOM     45  O   UNL     1     114.839 131.553 141.511  0.00  0.00    +0.000 OA
ATOM     46  C   UNL     1     113.469 129.627 140.778  0.00  0.00    +0.000 C 
ATOM     47  C   UNL     1     113.159 130.175 141.311  0.00  0.00    +0.000 C 
ATOM     48  C   UNL     1     113.615 130.817 141.556  0.00  0.00    +0.000 C 
ATOM     49  C   UNL     1     114.382 130.911 141.266  0.00  0.00    +0.000 C 
ATOM     50  C   UNL     1     114.692 130.363 140.733  0.00  0.00    +0.000 C 
ATOM     51  C   UNL     1     115.459 130.457 140.445  0.00  0.00    +0.000 C 
ENDBRANCH  41  46
ENDBRANCH  40  41
ENDBRANCH   7  40
TORSDOF 8
ENDMDL
MODEL 5
REMARK VINA RESULT:     -11.1      1.316      4.181
REMARK  Name = 74819376
REMARK  8 active torsions:
REMARK  status: ('A' for Active; 'I' for Inactive)
REMARK    1  A    between atoms: O_1  and  C_19
REMARK    2  A    between atoms: O_1  and  C_24
REMARK    3  A    between atoms: O_4  and  C_27
REMARK    4  A    between atoms: O_4  and  C_30
REMARK    5  A    between atoms: O_6  and  C_23
REMARK    6  A    between atoms: O_6  and  C_37
REMARK    7  A    between atoms: C_22  and  C_27
REMARK    8  A    between atoms: C_43  and  C_46
REMARK                            x       y       z     vdW  Elec       q    Type
REMARK                         _______ _______ _______ _____ _____    ______ ____
ROOT
ATOM      1  O   UNL     1     105.647 126.052 144.028  0.00  0.00    +0.000 OA
ATOM      2  O   UNL     1     106.643 124.800 145.916  0.00  0.00    +0.000 OA
ATOM      3  O   UNL     1     106.392 124.049 144.469  0.00  0.00    +0.000 OA
ATOM      4  C   UNL     1     106.104 126.011 145.381  0.00  0.00    +0.000 C 
ATOM      5  C   UNL     1     106.311 125.218 145.287  0.00  0.00    +0.000 C 
ATOM      6  C   UNL     1     106.185 124.842 144.563  0.00  0.00    +0.000 C 
ATOM      7  C   UNL     1     105.853 125.260 143.933  0.00  0.00    +0.000 C 
ATOM      8  C   UNL     1     105.772 126.429 144.751  0.00  0.00    +0.000 C 
ENDROOT
BRANCH   4   9
ATOM      9  O   UNL     1     106.230 126.387 146.104  0.00  0.00    +0.000 OA
BRANCH   9  14
ATOM     10  O   UNL     1     104.966 125.910 146.574  0.00  0.00    +0.000 OA
ATOM     11  O   UNL     1     106.554 127.003 147.600  0.00  0.00    +0.000 OA
ATOM     12  O   UNL     1     105.453 126.835 148.818  0.00  0.00    +0.000 OA
ATOM     13  O   UNL     1     104.028 126.051 148.539  0.00  0.00    +0.000 OA
ATOM     14  C   UNL     1     105.679 126.303 146.713  0.00  0.00    +0.000 C 
ATOM     15  C   UNL     1     105.841 126.611 147.461  0.00  0.00    +0.000 C 
ATOM     16  C   UNL     1     105.290 126.527 148.070  0.00  0.00    +0.000 C 
ATOM     17  C   UNL     1     104.578 126.135 147.931  0.00  0.00    +0.000 C 
ATOM     18  C   UNL     1     104.417 125.827 147.183  0.00  0.00    +0.000 C 
ATOM     19  C   UNL     1     103.704 125.434 147.043  0.00  0.00    +0.000 C 
ENDBRANCH   9  14
ENDBRANCH   4   9
BRANCH   8  20
ATOM     20  O   UNL     1     105.566 127.221 144.845  0.00  0.00    +0.000 OA
BRANCH  20  24
ATOM     21  O   UNL     1     104.343 128.660 142.627  0.00  0.00    +0.000 OA
ATOM     22  O   UNL     1     107.167 128.982 143.151  0.00  0.00    +0.000 OA
ATOM     23  O   UNL     1     106.527 129.678 142.062  0.00  0.00    +0.000 OA
ATOM     24  C   UNL     1     105.629 127.742 144.209  0.00  0.00    +0.000 A 
ATOM     25  C   UNL     1     104.936 127.935 143.737  0.00  0.00    +0.000 A 
ATOM     26  C   UNL     1     106.386 128.096 144.012  0.00  0.00    +0.000 A 
ATOM     27  C   UNL     1     105.011 128.479 143.076  0.00  0.00    +0.000 A 
ATOM     28  C   UNL     1     105.739 128.818 142.888  0.00  0.00    +0.000 A 
ATOM     29  C   UNL     1     106.442 128.637 143.347  0.00  0.00    +0.000 A 
ATOM     30  C   UNL     1     104.403 129.181 141.990  0.00  0.00    +0.000 C 
ATOM     31  C   UNL     1     105.131 129.520 141.802  0.00  0.00    +0.000 C 
ATOM     32  C   UNL     1     105.799 129.339 142.251  0.00  0.00    +0.000 C 
BRANCH  30  34
ATOM     33  O   UNL     1     101.731 129.908 140.196  0.00  0.00    +0.000 OA
ATOM     34  C   UNL     1     103.735 129.363 141.541  0.00  0.00    +0.000 A 
ATOM     35  C   UNL     1     103.533 128.894 140.893  0.00  0.00    +0.000 A 
ATOM     36  C   UNL     1     103.268 130.013 141.742  0.00  0.00    +0.000 A 
ATOM     37  C   UNL     1     102.866 129.076 140.445  0.00  0.00    +0.000 A 
ATOM     38  C   UNL     1     102.600 130.195 141.293  0.00  0.00    +0.000 A 
ATOM     39  C   UNL     1     102.399 129.726 140.645  0.00  0.00    +0.000 A 
ENDBRANCH  30  34
ENDBRANCH  20  24
ENDBRANCH   8  20
BRANCH   7  40
ATOM     40  C   UNL     1     105.728 124.883 143.210  0.00  0.00    +0.000 C 
BRANCH  40  41
ATOM     41  O   UNL     1     106.043 125.202 142.518  0.00  0.00    +0.000 OA
BRANCH  41  46
ATOM     42  O   UNL     1     105.440 124.156 141.754  0.00  0.00    +0.000 OA
ATOM     43  O   UNL     1     106.559 125.922 141.126  0.00  0.00    +0.000 OA
ATOM     44  O   UNL     1     106.214 125.235 139.666  0.00  0.00    +0.000 OA
ATOM     45  O   UNL     1     105.353 123.829 139.598  0.00  0.00    +0.000 OA
ATOM     46  C   UNL     1     105.870 124.858 141.788  0.00  0.00    +0.000 C 
ATOM     47  C   UNL     1     106.128 125.218 141.092  0.00  0.00    +0.000 C 
ATOM     48  C   UNL     1     105.956 124.876 140.362  0.00  0.00    +0.000 C 
ATOM     49  C   UNL     1     105.525 124.173 140.328  0.00  0.00    +0.000 C 
ATOM     50  C   UNL     1     105.267 123.813 141.025  0.00  0.00    +0.000 C 
ATOM     51  C   UNL     1     104.837 123.110 140.990  0.00  0.00    +0.000 C 
ENDBRANCH  41  46
ENDBRANCH  40  41
ENDBRANCH   7  40
TORSDOF 8
ENDMDL
MODEL 6
REMARK VINA RESULT:     -11.1      6.101      7.518
REMARK  Name = 74819376
REMARK  8 active torsions:
REMARK  status: ('A' for Active; 'I' for Inactive)
REMARK    1  A    between atoms: O_1  and  C_19
REMARK    2  A    between atoms: O_1  and  C_24
REMARK    3  A    between atoms: O_4  and  C_27
REMARK    4  A    between atoms: O_4  and  C_30
REMARK    5  A    between atoms: O_6  and  C_23
REMARK    6  A    between atoms: O_6  and  C_37
REMARK    7  A    between atoms: C_22  and  C_27
REMARK    8  A    between atoms: C_43  and  C_46
REMARK                            x       y       z     vdW  Elec       q    Type
REMARK                         _______ _______ _______ _____ _____    ______ ____
ROOT
ATOM      1  O   UNL     1     110.494 129.308 139.203  0.00  0.00    +0.000 OA
ATOM      2  O   UNL     1     109.223 128.795 141.264  0.00  0.00    +0.000 OA
ATOM      3  O   UNL     1     108.463 129.496 139.978  0.00  0.00    +0.000 OA
ATOM      4  C   UNL     1     110.452 128.786 140.532  0.00  0.00    +0.000 C 
ATOM      5  C   UNL     1     109.647 128.966 140.577  0.00  0.00    +0.000 C 
ATOM      6  C   UNL     1     109.267 129.316 139.934  0.00  0.00    +0.000 C 
ATOM      7  C   UNL     1     109.691 129.487 139.247  0.00  0.00    +0.000 C 
ATOM      8  C   UNL     1     110.875 128.957 139.845  0.00  0.00    +0.000 C 
ENDROOT
BRANCH   4   9
ATOM      9  O   UNL     1     110.832 128.436 141.175  0.00  0.00    +0.000 OA
BRANCH   9  14
ATOM     10  O   UNL     1     111.188 129.714 141.706  0.00  0.00    +0.000 OA
ATOM     11  O   UNL     1     111.140 127.742 142.640  0.00  0.00    +0.000 OA
ATOM     12  O   UNL     1     111.650 128.673 143.903  0.00  0.00    +0.000 OA
ATOM     13  O   UNL     1     111.853 130.298 143.701  0.00  0.00    +0.000 OA
ATOM     14  C   UNL     1     111.087 128.902 141.807  0.00  0.00    +0.000 C 
ATOM     15  C   UNL     1     111.241 128.554 142.539  0.00  0.00    +0.000 C 
ATOM     16  C   UNL     1     111.496 129.020 143.171  0.00  0.00    +0.000 C 
ATOM     17  C   UNL     1     111.598 129.833 143.070  0.00  0.00    +0.000 C 
ATOM     18  C   UNL     1     111.443 130.179 142.337  0.00  0.00    +0.000 C 
ATOM     19  C   UNL     1     111.544 130.992 142.236  0.00  0.00    +0.000 C 
ENDBRANCH   9  14
ENDBRANCH   4   9
BRANCH   8  20
ATOM     20  O   UNL     1     111.679 128.778 139.801  0.00  0.00    +0.000 OA
BRANCH  20  24
ATOM     21  O   UNL     1     112.097 126.631 137.877  0.00  0.00    +0.000 OA
ATOM     22  O   UNL     1     113.242 129.237 137.377  0.00  0.00    +0.000 OA
ATOM     23  O   UNL     1     113.429 128.150 136.446  0.00  0.00    +0.000 OA
ATOM     24  C   UNL     1     112.002 128.504 139.093  0.00  0.00    +0.000 A 
ATOM     25  C   UNL     1     111.878 127.690 138.847  0.00  0.00    +0.000 A 
ATOM     26  C   UNL     1     112.464 129.031 138.596  0.00  0.00    +0.000 A 
ATOM     27  C   UNL     1     112.219 127.414 138.108  0.00  0.00    +0.000 A 
ATOM     28  C   UNL     1     112.662 127.920 137.631  0.00  0.00    +0.000 A 
ATOM     29  C   UNL     1     112.797 128.737 137.860  0.00  0.00    +0.000 A 
ATOM     30  C   UNL     1     112.419 126.355 137.169  0.00  0.00    +0.000 C 
ATOM     31  C   UNL     1     112.862 126.861 136.692  0.00  0.00    +0.000 C 
ATOM     32  C   UNL     1     112.984 127.644 136.923  0.00  0.00    +0.000 C 
BRANCH  30  34
ATOM     33  O   UNL     1     111.932 123.225 136.246  0.00  0.00    +0.000 OA
ATOM     34  C   UNL     1     112.297 125.572 136.938  0.00  0.00    +0.000 A 
ATOM     35  C   UNL     1     111.621 125.369 136.511  0.00  0.00    +0.000 A 
ATOM     36  C   UNL     1     112.852 124.994 137.135  0.00  0.00    +0.000 A 
ATOM     37  C   UNL     1     111.500 124.586 136.281  0.00  0.00    +0.000 A 
ATOM     38  C   UNL     1     112.730 124.211 136.904  0.00  0.00    +0.000 A 
ATOM     39  C   UNL     1     112.054 124.007 136.477  0.00  0.00    +0.000 A 
ENDBRANCH  30  34
ENDBRANCH  20  24
ENDBRANCH   8  20
BRANCH   7  40
ATOM     40  C   UNL     1     109.310 129.838 138.604  0.00  0.00    +0.000 C 
BRANCH  40  41
ATOM     41  O   UNL     1     109.272 129.444 137.881  0.00  0.00    +0.000 OA
BRANCH  41  46
ATOM     42  O   UNL     1     108.696 130.601 137.272  0.00  0.00    +0.000 OA
ATOM     43  O   UNL     1     109.362 128.712 136.405  0.00  0.00    +0.000 OA
ATOM     44  O   UNL     1     108.830 129.503 135.058  0.00  0.00    +0.000 OA
ATOM     45  O   UNL     1     108.209 131.026 135.187  0.00  0.00    +0.000 OA
ATOM     46  C   UNL     1     109.006 129.840 137.208  0.00  0.00    +0.000 C 
ATOM     47  C   UNL     1     109.051 129.474 136.470  0.00  0.00    +0.000 C 
ATOM     48  C   UNL     1     108.785 129.869 135.796  0.00  0.00    +0.000 C 
ATOM     49  C   UNL     1     108.475 130.631 135.861  0.00  0.00    +0.000 C 
ATOM     50  C   UNL     1     108.430 130.997 136.599  0.00  0.00    +0.000 C 
ATOM     51  C   UNL     1     108.119 131.758 136.663  0.00  0.00    +0.000 C 
ENDBRANCH  41  46
ENDBRANCH  40  41
ENDBRANCH   7  40
TORSDOF 8
ENDMDL
MODEL 7
REMARK VINA RESULT:     -11.1      7.660      9.592
REMARK  Name = 74819376
REMARK  8 active torsions:
REMARK  status: ('A' for Active; 'I' for Inactive)
REMARK    1  A    between atoms: O_1  and  C_19
REMARK    2  A    between atoms: O_1  and  C_24
REMARK    3  A    between atoms: O_4  and  C_27
REMARK    4  A    between atoms: O_4  and  C_30
REMARK    5  A    between atoms: O_6  and  C_23
REMARK    6  A    between atoms: O_6  and  C_37
REMARK    7  A    between atoms: C_22  and  C_27
REMARK    8  A    between atoms: C_43  and  C_46
REMARK                            x       y       z     vdW  Elec       q    Type
REMARK                         _______ _______ _______ _____ _____    ______ ____
ROOT
ATOM      1  O   UNL     1     113.072 127.983 138.797  0.00  0.00    +0.000 OA
ATOM      2  O   UNL     1     114.361 127.866 140.907  0.00  0.00    +0.000 OA
ATOM      3  O   UNL     1     113.575 126.529 140.345  0.00  0.00    +0.000 OA
ATOM      4  C   UNL     1     113.895 128.613 139.780  0.00  0.00    +0.000 C 
ATOM      5  C   UNL     1     113.931 127.905 140.203  0.00  0.00    +0.000 C 
ATOM      6  C   UNL     1     113.538 127.237 139.922  0.00  0.00    +0.000 C 
ATOM      7  C   UNL     1     113.109 127.276 139.219  0.00  0.00    +0.000 C 
ATOM      8  C   UNL     1     113.465 128.652 139.077  0.00  0.00    +0.000 C 
ENDROOT
BRANCH   4   9
ATOM      9  O   UNL     1     114.288 129.282 140.062  0.00  0.00    +0.000 OA
BRANCH   9  14
ATOM     10  O   UNL     1     113.169 129.586 140.899  0.00  0.00    +0.000 OA
ATOM     11  O   UNL     1     115.072 130.620 140.624  0.00  0.00    +0.000 OA
ATOM     12  O   UNL     1     114.346 131.593 141.742  0.00  0.00    +0.000 OA
ATOM     13  O   UNL     1     112.836 131.228 142.297  0.00  0.00    +0.000 OA
ATOM     14  C   UNL     1     113.924 129.769 140.621  0.00  0.00    +0.000 C 
ATOM     15  C   UNL     1     114.317 130.437 140.902  0.00  0.00    +0.000 C 
ATOM     16  C   UNL     1     113.954 130.924 141.461  0.00  0.00    +0.000 C 
ATOM     17  C   UNL     1     113.199 130.742 141.739  0.00  0.00    +0.000 C 
ATOM     18  C   UNL     1     112.807 130.072 141.457  0.00  0.00    +0.000 C 
ATOM     19  C   UNL     1     112.052 129.889 141.735  0.00  0.00    +0.000 C 
ENDBRANCH   9  14
ENDBRANCH   4   9
BRANCH   8  20
ATOM     20  O   UNL     1     113.429 129.359 138.655  0.00  0.00    +0.000 OA
BRANCH  20  24
ATOM     21  O   UNL     1     111.132 129.699 136.896  0.00  0.00    +0.000 OA
ATOM     22  O   UNL     1     113.719 129.092 135.761  0.00  0.00    +0.000 OA
ATOM     23  O   UNL     1     112.559 129.267 134.920  0.00  0.00    +0.000 OA
ATOM     24  C   UNL     1     113.103 129.371 137.897  0.00  0.00    +0.000 A 
ATOM     25  C   UNL     1     112.266 129.533 137.788  0.00  0.00    +0.000 A 
ATOM     26  C   UNL     1     113.598 129.221 137.211  0.00  0.00    +0.000 A 
ATOM     27  C   UNL     1     111.936 129.543 136.995  0.00  0.00    +0.000 A 
ATOM     28  C   UNL     1     112.412 129.399 136.336  0.00  0.00    +0.000 A 
ATOM     29  C   UNL     1     113.250 129.235 136.426  0.00  0.00    +0.000 A 
ATOM     30  C   UNL     1     110.804 129.711 136.139  0.00  0.00    +0.000 C 
ATOM     31  C   UNL     1     111.280 129.567 135.481  0.00  0.00    +0.000 C 
ATOM     32  C   UNL     1     112.084 129.411 135.580  0.00  0.00    +0.000 C 
BRANCH  30  34
ATOM     33  O   UNL     1     107.588 130.336 135.745  0.00  0.00    +0.000 OA
ATOM     34  C   UNL     1     109.999 129.867 136.041  0.00  0.00    +0.000 A 
ATOM     35  C   UNL     1     109.453 129.250 136.067  0.00  0.00    +0.000 A 
ATOM     36  C   UNL     1     109.742 130.641 135.915  0.00  0.00    +0.000 A 
ATOM     37  C   UNL     1     108.650 129.406 135.969  0.00  0.00    +0.000 A 
ATOM     38  C   UNL     1     108.938 130.798 135.817  0.00  0.00    +0.000 A 
ATOM     39  C   UNL     1     108.392 130.180 135.843  0.00  0.00    +0.000 A 
ENDBRANCH  30  34
ENDBRANCH  20  24
ENDBRANCH   8  20
BRANCH   7  40
ATOM     40  C   UNL     1     112.716 126.606 138.938  0.00  0.00    +0.000 C 
BRANCH  40  41
ATOM     41  O   UNL     1     113.031 126.176 138.309  0.00  0.00    +0.000 OA
BRANCH  41  46
ATOM     42  O   UNL     1     111.761 126.047 137.667  0.00  0.00    +0.000 OA
ATOM     43  O   UNL     1     113.567 124.830 137.520  0.00  0.00    +0.000 OA
ATOM     44  O   UNL     1     112.566 124.028 136.482  0.00  0.00    +0.000 OA
ATOM     45  O   UNL     1     111.027 124.572 136.235  0.00  0.00    +0.000 OA
ATOM     46  C   UNL     1     112.529 125.775 137.791  0.00  0.00    +0.000 C 
ATOM     47  C   UNL     1     112.798 125.102 137.396  0.00  0.00    +0.000 C 
ATOM     48  C   UNL     1     112.297 124.701 136.877  0.00  0.00    +0.000 C 
ATOM     49  C   UNL     1     111.528 124.973 136.754  0.00  0.00    +0.000 C 
ATOM     50  C   UNL     1     111.260 125.646 137.149  0.00  0.00    +0.000 C 
ATOM     51  C   UNL     1     110.491 125.917 137.025  0.00  0.00    +0.000 C 
ENDBRANCH  41  46
ENDBRANCH  40  41
ENDBRANCH   7  40
TORSDOF 8
ENDMDL
MODEL 8
REMARK VINA RESULT:     -11.0      7.382      9.713
REMARK  Name = 74819376
REMARK  8 active torsions:
REMARK  status: ('A' for Active; 'I' for Inactive)
REMARK    1  A    between atoms: O_1  and  C_19
REMARK    2  A    between atoms: O_1  and  C_24
REMARK    3  A    between atoms: O_4  and  C_27
REMARK    4  A    between atoms: O_4  and  C_30
REMARK    5  A    between atoms: O_6  and  C_23
REMARK    6  A    between atoms: O_6  and  C_37
REMARK    7  A    between atoms: C_22  and  C_27
REMARK    8  A    between atoms: C_43  and  C_46
REMARK                            x       y       z     vdW  Elec       q    Type
REMARK                         _______ _______ _______ _____ _____    ______ ____
ROOT
ATOM      1  O   UNL     1     110.682 128.985 137.838  0.00  0.00    +0.000 OA
ATOM      2  O   UNL     1     108.618 130.249 138.355  0.00  0.00    +0.000 OA
ATOM      3  O   UNL     1     109.711 129.930 139.549  0.00  0.00    +0.000 OA
ATOM      4  C   UNL     1     109.448 129.565 137.413  0.00  0.00    +0.000 C 
ATOM      5  C   UNL     1     109.306 129.827 138.183  0.00  0.00    +0.000 C 
ATOM      6  C   UNL     1     109.853 129.668 138.779  0.00  0.00    +0.000 C 
ATOM      7  C   UNL     1     110.541 129.246 138.607  0.00  0.00    +0.000 C 
ATOM      8  C   UNL     1     110.136 129.144 137.240  0.00  0.00    +0.000 C 
ENDROOT
BRANCH   4   9
ATOM      9  O   UNL     1     108.901 129.725 136.816  0.00  0.00    +0.000 OA
BRANCH   9  14
ATOM     10  O   UNL     1     109.548 130.967 136.527  0.00  0.00    +0.000 OA
ATOM     11  O   UNL     1     107.606 130.188 135.905  0.00  0.00    +0.000 OA
ATOM     12  O   UNL     1     107.605 131.661 135.161  0.00  0.00    +0.000 OA
ATOM     13  O   UNL     1     108.899 132.670 135.328  0.00  0.00    +0.000 OA
ATOM     14  C   UNL     1     108.901 130.462 136.444  0.00  0.00    +0.000 C 
ATOM     15  C   UNL     1     108.253 130.693 135.988  0.00  0.00    +0.000 C 
ATOM     16  C   UNL     1     108.253 131.430 135.616  0.00  0.00    +0.000 C 
ATOM     17  C   UNL     1     108.900 131.935 135.700  0.00  0.00    +0.000 C 
ATOM     18  C   UNL     1     109.547 131.702 136.156  0.00  0.00    +0.000 C 
ATOM     19  C   UNL     1     110.195 132.207 136.239  0.00  0.00    +0.000 C 
ENDBRANCH   9  14
ENDBRANCH   4   9
BRANCH   8  20
ATOM     20  O   UNL     1     110.278 128.882 136.472  0.00  0.00    +0.000 OA
BRANCH  20  24
ATOM     21  O   UNL     1     112.158 126.661 136.597  0.00  0.00    +0.000 OA
ATOM     22  O   UNL     1     109.521 126.235 135.495  0.00  0.00    +0.000 OA
ATOM     23  O   UNL     1     110.479 125.159 135.573  0.00  0.00    +0.000 OA
ATOM     24  C   UNL     1     110.459 128.090 136.333  0.00  0.00    +0.000 A 
ATOM     25  C   UNL     1     111.234 127.780 136.542  0.00  0.00    +0.000 A 
ATOM     26  C   UNL     1     109.877 127.568 135.977  0.00  0.00    +0.000 A 
ATOM     27  C   UNL     1     111.414 126.953 136.394  0.00  0.00    +0.000 A 
ATOM     28  C   UNL     1     110.854 126.453 136.053  0.00  0.00    +0.000 A 
ATOM     29  C   UNL     1     110.075 126.744 135.836  0.00  0.00    +0.000 A 
ATOM     30  C   UNL     1     112.343 125.869 136.460  0.00  0.00    +0.000 C 
ATOM     31  C   UNL     1     111.783 125.369 136.118  0.00  0.00    +0.000 C 
ATOM     32  C   UNL     1     111.038 125.660 135.915  0.00  0.00    +0.000 C 
BRANCH  30  34
ATOM     33  O   UNL     1     115.320 124.702 137.274  0.00  0.00    +0.000 OA
ATOM     34  C   UNL     1     113.087 125.578 136.663  0.00  0.00    +0.000 A 
ATOM     35  C   UNL     1     113.764 125.891 136.309  0.00  0.00    +0.000 A 
ATOM     36  C   UNL     1     113.155 124.973 137.221  0.00  0.00    +0.000 A 
ATOM     37  C   UNL     1     114.508 125.599 136.513  0.00  0.00    +0.000 A 
ATOM     38  C   UNL     1     113.899 124.681 137.424  0.00  0.00    +0.000 A 
ATOM     39  C   UNL     1     114.576 124.994 137.070  0.00  0.00    +0.000 A 
ENDBRANCH  30  34
ENDBRANCH  20  24
ENDBRANCH   8  20
BRANCH   7  40
ATOM     40  C   UNL     1     111.087 129.087 139.205  0.00  0.00    +0.000 C 
BRANCH  40  41
ATOM     41  O   UNL     1     111.851 129.394 139.158  0.00  0.00    +0.000 OA
BRANCH  41  46
ATOM     42  O   UNL     1     112.510 128.244 139.692  0.00  0.00    +0.000 OA
ATOM     43  O   UNL     1     112.958 130.370 139.895  0.00  0.00    +0.000 OA
ATOM     44  O   UNL     1     114.171 129.709 140.797  0.00  0.00    +0.000 OA
ATOM     45  O   UNL     1     114.277 128.070 140.962  0.00  0.00    +0.000 OA
ATOM     46  C   UNL     1     112.457 129.062 139.609  0.00  0.00    +0.000 C 
ATOM     47  C   UNL     1     113.011 129.551 139.978  0.00  0.00    +0.000 C 
ATOM     48  C   UNL     1     113.618 129.220 140.428  0.00  0.00    +0.000 C 
ATOM     49  C   UNL     1     113.670 128.401 140.511  0.00  0.00    +0.000 C 
ATOM     50  C   UNL     1     113.116 127.913 140.142  0.00  0.00    +0.000 C 
ATOM     51  C   UNL     1     113.170 127.094 140.225  0.00  0.00    +0.000 C 
ENDBRANCH  41  46
ENDBRANCH  40  41
ENDBRANCH   7  40
TORSDOF 8
ENDMDL
MODEL 9
REMARK VINA RESULT:     -10.9      6.143      8.991
REMARK  Name = 74819376
REMARK  8 active torsions:
REMARK  status: ('A' for Active; 'I' for Inactive)
REMARK    1  A    between atoms: O_1  and  C_19
REMARK    2  A    between atoms: O_1  and  C_24
REMARK    3  A    between atoms: O_4  and  C_27
REMARK    4  A    between atoms: O_4  and  C_30
REMARK    5  A    between atoms: O_6  and  C_23
REMARK    6  A    between atoms: O_6  and  C_37
REMARK    7  A    between atoms: C_22  and  C_27
REMARK    8  A    between atoms: C_43  and  C_46
REMARK                            x       y       z     vdW  Elec       q    Type
REMARK                         _______ _______ _______ _____ _____    ______ ____
ROOT
ATOM      1  O   UNL     1     110.672 127.526 138.663  0.00  0.00    +0.000 OA
ATOM      2  O   UNL     1     109.720 125.942 137.017  0.00  0.00    +0.000 OA
ATOM      3  O   UNL     1     109.207 127.510 137.045  0.00  0.00    +0.000 OA
ATOM      4  C   UNL     1     110.612 126.214 138.101  0.00  0.00    +0.000 C 
ATOM      5  C   UNL     1     110.037 126.470 137.566  0.00  0.00    +0.000 C 
ATOM      6  C   UNL     1     109.781 127.254 137.580  0.00  0.00    +0.000 C 
ATOM      7  C   UNL     1     110.098 127.782 138.129  0.00  0.00    +0.000 C 
ATOM      8  C   UNL     1     110.929 126.742 138.650  0.00  0.00    +0.000 C 
ENDROOT
BRANCH   4   9
ATOM      9  O   UNL     1     110.868 125.430 138.086  0.00  0.00    +0.000 OA
BRANCH   9  14
ATOM     10  O   UNL     1     111.882 125.778 137.140  0.00  0.00    +0.000 OA
ATOM     11  O   UNL     1     111.300 123.842 137.967  0.00  0.00    +0.000 OA
ATOM     12  O   UNL     1     112.530 123.396 136.961  0.00  0.00    +0.000 OA
ATOM     13  O   UNL     1     113.327 124.537 136.075  0.00  0.00    +0.000 OA
ATOM     14  C   UNL     1     111.483 125.207 137.583  0.00  0.00    +0.000 C 
ATOM     15  C   UNL     1     111.699 124.413 137.524  0.00  0.00    +0.000 C 
ATOM     16  C   UNL     1     112.314 124.190 137.020  0.00  0.00    +0.000 C 
ATOM     17  C   UNL     1     112.713 124.761 136.578  0.00  0.00    +0.000 C 
ATOM     18  C   UNL     1     112.496 125.554 136.638  0.00  0.00    +0.000 C 
ATOM     19  C   UNL     1     112.894 126.125 136.195  0.00  0.00    +0.000 C 
ENDBRANCH   9  14
ENDBRANCH   4   9
BRANCH   8  20
ATOM     20  O   UNL     1     111.502 126.486 139.184  0.00  0.00    +0.000 OA
BRANCH  20  24
ATOM     21  O   UNL     1     112.936 128.666 140.479  0.00  0.00    +0.000 OA
ATOM     22  O   UNL     1     111.091 127.061 142.018  0.00  0.00    +0.000 OA
ATOM     23  O   UNL     1     111.819 128.149 142.626  0.00  0.00    +0.000 OA
ATOM     24  C   UNL     1     111.668 126.934 139.857  0.00  0.00    +0.000 A 
ATOM     25  C   UNL     1     112.230 127.583 139.817  0.00  0.00    +0.000 A 
ATOM     26  C   UNL     1     111.280 126.755 140.602  0.00  0.00    +0.000 A 
ATOM     27  C   UNL     1     112.396 128.044 140.523  0.00  0.00    +0.000 A 
ATOM     28  C   UNL     1     112.023 127.872 141.238  0.00  0.00    +0.000 A 
ATOM     29  C   UNL     1     111.459 127.227 141.298  0.00  0.00    +0.000 A 
ATOM     30  C   UNL     1     113.104 129.115 141.150  0.00  0.00    +0.000 C 
ATOM     31  C   UNL     1     112.731 128.943 141.865  0.00  0.00    +0.000 C 
ATOM     32  C   UNL     1     112.191 128.321 141.910  0.00  0.00    +0.000 C 
BRANCH  30  34
ATOM     33  O   UNL     1     115.265 131.603 140.973  0.00  0.00    +0.000 OA
ATOM     34  C   UNL     1     113.645 129.737 141.106  0.00  0.00    +0.000 A 
ATOM     35  C   UNL     1     114.369 129.628 140.726  0.00  0.00    +0.000 A 
ATOM     36  C   UNL     1     113.460 130.468 141.441  0.00  0.00    +0.000 A 
ATOM     37  C   UNL     1     114.908 130.250 140.682  0.00  0.00    +0.000 A 
ATOM     38  C   UNL     1     114.000 131.090 141.397  0.00  0.00    +0.000 A 
ATOM     39  C   UNL     1     114.724 130.981 141.017  0.00  0.00    +0.000 A 
ENDBRANCH  30  34
ENDBRANCH  20  24
ENDBRANCH   8  20
BRANCH   7  40
ATOM     40  C   UNL     1     109.841 128.566 138.143  0.00  0.00    +0.000 C 
BRANCH  40  41
ATOM     41  O   UNL     1     109.447 128.860 138.804  0.00  0.00    +0.000 OA
BRANCH  41  46
ATOM     42  O   UNL     1     110.210 130.067 138.754  0.00  0.00    +0.000 OA
ATOM     43  O   UNL     1     108.402 129.565 139.869  0.00  0.00    +0.000 OA
ATOM     44  O   UNL     1     108.643 131.125 140.351  0.00  0.00    +0.000 OA
ATOM     45  O   UNL     1     109.929 131.979 139.768  0.00  0.00    +0.000 OA
ATOM     46  C   UNL     1     109.568 129.640 139.045  0.00  0.00    +0.000 C 
ATOM     47  C   UNL     1     109.046 129.993 139.577  0.00  0.00    +0.000 C 
ATOM     48  C   UNL     1     109.166 130.772 139.819  0.00  0.00    +0.000 C 
ATOM     49  C   UNL     1     109.809 131.199 139.527  0.00  0.00    +0.000 C 
ATOM     50  C   UNL     1     110.331 130.846 138.994  0.00  0.00    +0.000 C 
ATOM     51  C   UNL     1     110.974 131.274 138.703  0.00  0.00    +0.000 C 
ENDBRANCH  41  46
ENDBRANCH  40  41
ENDBRANCH   7  40
TORSDOF 8
ENDMDL
MODEL 10
REMARK VINA RESULT:     -10.9      6.791     10.346
REMARK  Name = 74819376
REMARK  8 active torsions:
REMARK  status: ('A' for Active; 'I' for Inactive)
REMARK    1  A    between atoms: O_1  and  C_19
REMARK    2  A    between atoms: O_1  and  C_24
REMARK    3  A    between atoms: O_4  and  C_27
REMARK    4  A    between atoms: O_4  and  C_30
REMARK    5  A    between atoms: O_6  and  C_23
REMARK    6  A    between atoms: O_6  and  C_37
REMARK    7  A    between atoms: C_22  and  C_27
REMARK    8  A    between atoms: C_43  and  C_46
REMARK                            x       y       z     vdW  Elec       q    Type
REMARK                         _______ _______ _______ _____ _____    ______ ____
ROOT
ATOM      1  O   UNL     1     111.556 128.301 137.470  0.00  0.00    +0.000 OA
ATOM      2  O   UNL     1     109.156 127.828 137.094  0.00  0.00    +0.000 OA
ATOM      3  O   UNL     1     110.268 126.617 136.949  0.00  0.00    +0.000 OA
ATOM      4  C   UNL     1     110.200 128.749 137.417  0.00  0.00    +0.000 C 
ATOM      5  C   UNL     1     109.956 127.985 137.219  0.00  0.00    +0.000 C 
ATOM      6  C   UNL     1     110.512 127.381 137.147  0.00  0.00    +0.000 C 
ATOM      7  C   UNL     1     111.312 127.538 137.272  0.00  0.00    +0.000 C 
ATOM      8  C   UNL     1     111.000 128.906 137.543  0.00  0.00    +0.000 C 
ENDROOT
BRANCH   4   9
ATOM      9  O   UNL     1     109.644 129.353 137.490  0.00  0.00    +0.000 OA
BRANCH   9  14
ATOM     10  O   UNL     1     109.752 129.632 136.092  0.00  0.00    +0.000 OA
ATOM     11  O   UNL     1     108.356 130.379 137.595  0.00  0.00    +0.000 OA
ATOM     12  O   UNL     1     107.819 131.171 136.250  0.00  0.00    +0.000 OA
ATOM     13  O   UNL     1     108.571 130.936 134.800  0.00  0.00    +0.000 OA
ATOM     14  C   UNL     1     109.376 129.749 136.817  0.00  0.00    +0.000 C 
ATOM     15  C   UNL     1     108.732 130.262 136.870  0.00  0.00    +0.000 C 
ATOM     16  C   UNL     1     108.463 130.658 136.197  0.00  0.00    +0.000 C 
ATOM     17  C   UNL     1     108.839 130.541 135.472  0.00  0.00    +0.000 C 
ATOM     18  C   UNL     1     109.483 130.028 135.420  0.00  0.00    +0.000 C 
ATOM     19  C   UNL     1     109.859 129.910 134.695  0.00  0.00    +0.000 C 
ENDBRANCH   9  14
ENDBRANCH   4   9
BRANCH   8  20
ATOM     20  O   UNL     1     111.244 129.669 137.740  0.00  0.00    +0.000 OA
BRANCH  20  24
ATOM     21  O   UNL     1     111.923 129.694 140.573  0.00  0.00    +0.000 OA
ATOM     22  O   UNL     1     113.950 130.337 138.615  0.00  0.00    +0.000 OA
ATOM     23  O   UNL     1     114.250 130.340 140.027  0.00  0.00    +0.000 OA
ATOM     24  C   UNL     1     111.796 129.782 138.343  0.00  0.00    +0.000 A 
ATOM     25  C   UNL     1     111.567 129.676 139.165  0.00  0.00    +0.000 A 
ATOM     26  C   UNL     1     112.604 130.006 138.154  0.00  0.00    +0.000 A 
ATOM     27  C   UNL     1     112.149 129.796 139.786  0.00  0.00    +0.000 A 
ATOM     28  C   UNL     1     112.924 130.012 139.604  0.00  0.00    +0.000 A 
ATOM     29  C   UNL     1     113.171 130.122 138.788  0.00  0.00    +0.000 A 
ATOM     30  C   UNL     1     112.473 129.806 141.178  0.00  0.00    +0.000 C 
ATOM     31  C   UNL     1     113.248 130.022 140.995  0.00  0.00    +0.000 C 
ATOM     32  C   UNL     1     113.474 130.124 140.208  0.00  0.00    +0.000 C 
BRANCH  30  34
ATOM     33  O   UNL     1     111.571 129.395 144.325  0.00  0.00    +0.000 OA
ATOM     34  C   UNL     1     112.247 129.704 141.965  0.00  0.00    +0.000 A 
ATOM     35  C   UNL     1     112.112 130.361 142.444  0.00  0.00    +0.000 A 
ATOM     36  C   UNL     1     112.158 128.943 142.272  0.00  0.00    +0.000 A 
ATOM     37  C   UNL     1     111.887 130.258 143.230  0.00  0.00    +0.000 A 
ATOM     38  C   UNL     1     111.932 128.840 143.059  0.00  0.00    +0.000 A 
ATOM     39  C   UNL     1     111.797 129.498 143.538  0.00  0.00    +0.000 A 
ENDBRANCH  30  34
ENDBRANCH  20  24
ENDBRANCH   8  20
BRANCH   7  40
ATOM     40  C   UNL     1     111.868 126.933 137.199  0.00  0.00    +0.000 C 
BRANCH  40  41
ATOM     41  O   UNL     1     112.390 126.774 137.818  0.00  0.00    +0.000 OA
BRANCH  41  46
ATOM     42  O   UNL     1     113.008 125.734 137.058  0.00  0.00    +0.000 OA
ATOM     43  O   UNL     1     113.625 126.711 138.909  0.00  0.00    +0.000 OA
ATOM     44  O   UNL     1     114.861 125.639 138.696  0.00  0.00    +0.000 OA
ATOM     45  O   UNL     1     114.861 124.630 137.390  0.00  0.00    +0.000 OA
ATOM     46  C   UNL     1     113.008 126.238 137.710  0.00  0.00    +0.000 C 
ATOM     47  C   UNL     1     113.625 126.206 138.256  0.00  0.00    +0.000 C 
ATOM     48  C   UNL     1     114.243 125.670 138.150  0.00  0.00    +0.000 C 
ATOM     49  C   UNL     1     114.243 125.166 137.497  0.00  0.00    +0.000 C 
ATOM     50  C   UNL     1     113.625 125.198 136.951  0.00  0.00    +0.000 C 
ATOM     51  C   UNL     1     113.626 124.693 136.298  0.00  0.00    +0.000 C 
ENDBRANCH  41  46
ENDBRANCH  40  41
ENDBRANCH   7  40
TORSDOF 8
ENDMDL
