MODEL 1
REMARK VINA RESULT:     -10.1      0.000      0.000
REMARK  Name = 44259344
REMARK  11 active torsions:
REMARK  status: ('A' for Active; 'I' for Inactive)
REMARK    1  A    between atoms: O_1  and  C_23
REMARK    2  A    between atoms: O_1  and  C_26
REMARK    3  A    between atoms: O_4  and  C_28
REMARK    4  A    between atoms: O_4  and  C_40
REMARK    5  A    between atoms: O_13  and  C_39
REMARK    6  A    between atoms: O_13  and  C_45
REMARK    7  A    between atoms: O_21  and  C_53
REMARK    8  A    between atoms: C_29  and  C_33
REMARK    9  A    between atoms: C_32  and  C_34
REMARK   10  A    between atoms: C_38  and  C_41
REMARK   11  A    between atoms: C_42  and  C_49
REMARK                            x       y       z     vdW  Elec       q    Type
REMARK                         _______ _______ _______ _____ _____    ______ ____
ROOT
ATOM      1  O   UNL     1     112.591 127.957 139.390  0.00  0.00    +0.000 OA
ATOM      2  O   UNL     1     111.673 129.672 137.859  0.00  0.00    +0.000 OA
ATOM      3  O   UNL     1     112.050 130.727 138.768  0.00  0.00    +0.000 OA
ATOM      4  C   UNL     1     111.941 128.302 138.165  0.00  0.00    +0.000 A 
ATOM      5  C   UNL     1     112.246 127.730 138.675  0.00  0.00    +0.000 A 
ATOM      6  C   UNL     1     111.979 129.100 138.369  0.00  0.00    +0.000 A 
ATOM      7  C   UNL     1     112.324 129.327 139.083  0.00  0.00    +0.000 A 
ATOM      8  C   UNL     1     113.035 129.810 140.558  0.00  0.00    +0.000 A 
ATOM      9  C   UNL     1     112.630 128.757 139.594  0.00  0.00    +0.000 A 
ATOM     10  C   UNL     1     112.992 128.980 140.340  0.00  0.00    +0.000 A 
ATOM     11  C   UNL     1     112.358 130.162 139.284  0.00  0.00    +0.000 A 
ATOM     12  C   UNL     1     112.716 130.406 140.027  0.00  0.00    +0.000 A 
ENDROOT
BRANCH   5  14
ATOM     13  O   UNL     1     112.091 124.536 137.861  0.00  0.00    +0.000 OA
ATOM     14  C   UNL     1     112.208 126.932 138.472  0.00  0.00    +0.000 A 
ATOM     15  C   UNL     1     112.851 126.567 138.106  0.00  0.00    +0.000 A 
ATOM     16  C   UNL     1     111.525 126.498 138.633  0.00  0.00    +0.000 A 
ATOM     17  C   UNL     1     112.813 125.770 137.903  0.00  0.00    +0.000 A 
ATOM     18  C   UNL     1     111.486 125.699 138.430  0.00  0.00    +0.000 A 
ATOM     19  C   UNL     1     112.130 125.335 138.065  0.00  0.00    +0.000 A 
BRANCH  17  20
ATOM     20  O   UNL     1     113.456 125.404 137.538  0.00  0.00    +0.000 OA
ATOM     21  C   UNL     1     114.197 125.416 137.900  0.00  0.00    +0.000 C 
ENDBRANCH  17  20
ENDBRANCH   5  14
BRANCH   4  22
ATOM     22  O   UNL     1     111.596 128.075 137.451  0.00  0.00    +0.000 OA
BRANCH  22  29
ATOM     23  O   UNL     1     112.675 128.488 136.610  0.00  0.00    +0.000 OA
ATOM     24  O   UNL     1     111.054 129.192 134.877  0.00  0.00    +0.000 OA
ATOM     25  O   UNL     1     112.673 129.370 134.613  0.00  0.00    +0.000 OA
ATOM     26  C   UNL     1     111.324 128.634 136.164  0.00  0.00    +0.000 C 
ATOM     27  C   UNL     1     111.594 128.957 135.454  0.00  0.00    +0.000 C 
ATOM     28  C   UNL     1     112.403 129.046 135.322  0.00  0.00    +0.000 C 
ATOM     29  C   UNL     1     111.864 128.399 136.741  0.00  0.00    +0.000 C 
ATOM     30  C   UNL     1     112.943 128.811 135.900  0.00  0.00    +0.000 C 
BRANCH  30  32
ATOM     31  O   UNL     1     114.243 128.237 135.748  0.00  0.00    +0.000 OA
ATOM     32  C   UNL     1     113.753 128.900 135.768  0.00  0.00    +0.000 C 
ENDBRANCH  30  32
BRANCH  26  33
ATOM     33  O   UNL     1     110.515 128.545 136.296  0.00  0.00    +0.000 OA
BRANCH  33  38
ATOM     34  O   UNL     1     110.509 127.372 135.478  0.00  0.00    +0.000 OA
ATOM     35  O   UNL     1     108.919 128.311 136.642  0.00  0.00    +0.000 OA
ATOM     36  O   UNL     1     108.115 127.022 135.998  0.00  0.00    +0.000 OA
ATOM     37  O   UNL     1     108.908 125.967 135.007  0.00  0.00    +0.000 OA
ATOM     38  C   UNL     1     110.113 127.900 135.973  0.00  0.00    +0.000 C 
ATOM     39  C   UNL     1     109.315 127.783 136.147  0.00  0.00    +0.000 C 
ATOM     40  C   UNL     1     108.913 127.138 135.825  0.00  0.00    +0.000 C 
ATOM     41  C   UNL     1     109.310 126.611 135.329  0.00  0.00    +0.000 C 
ATOM     42  C   UNL     1     110.107 126.728 135.156  0.00  0.00    +0.000 C 
BRANCH  42  44
ATOM     43  O   UNL     1     111.008 125.633 134.981  0.00  0.00    +0.000 OA
ATOM     44  C   UNL     1     110.504 126.201 134.660  0.00  0.00    +0.000 C 
ENDBRANCH  42  44
ENDBRANCH  33  38
ENDBRANCH  26  33
ENDBRANCH  22  29
ENDBRANCH   4  22
BRANCH   8  45
ATOM     45  O   UNL     1     113.380 130.034 141.273  0.00  0.00    +0.000 OA
BRANCH  45  54
ATOM     46  O   UNL     1     112.367 129.678 142.217  0.00  0.00    +0.000 OA
ATOM     47  O   UNL     1     112.553 131.916 143.259  0.00  0.00    +0.000 OA
ATOM     48  O   UNL     1     111.479 130.815 143.855  0.00  0.00    +0.000 OA
ATOM     49  O   UNL     1     113.503 131.525 141.968  0.00  0.00    +0.000 OA
ATOM     50  C   UNL     1     112.491 131.170 142.911  0.00  0.00    +0.000 C 
ATOM     51  C   UNL     1     111.954 130.619 143.210  0.00  0.00    +0.000 C 
ATOM     52  C   UNL     1     112.966 130.975 142.266  0.00  0.00    +0.000 C 
ATOM     53  C   UNL     1     111.892 129.873 142.863  0.00  0.00    +0.000 C 
ATOM     54  C   UNL     1     112.904 130.229 141.919  0.00  0.00    +0.000 C 
BRANCH  53  56
ATOM     55  O   UNL     1     111.611 128.563 143.360  0.00  0.00    +0.000 OA
ATOM     56  C   UNL     1     111.355 129.323 143.161  0.00  0.00    +0.000 C 
ENDBRANCH  53  56
ENDBRANCH  45  54
ENDBRANCH   8  45
TORSDOF 11
ENDMDL
MODEL 2
REMARK VINA RESULT:      -9.9      1.800      2.946
REMARK  Name = 44259344
REMARK  11 active torsions:
REMARK  status: ('A' for Active; 'I' for Inactive)
REMARK    1  A    between atoms: O_1  and  C_23
REMARK    2  A    between atoms: O_1  and  C_26
REMARK    3  A    between atoms: O_4  and  C_28
REMARK    4  A    between atoms: O_4  and  C_40
REMARK    5  A    between atoms: O_13  and  C_39
REMARK    6  A    between atoms: O_13  and  C_45
REMARK    7  A    between atoms: O_21  and  C_53
REMARK    8  A    between atoms: C_29  and  C_33
REMARK    9  A    between atoms: C_32  and  C_34
REMARK   10  A    between atoms: C_38  and  C_41
REMARK   11  A    between atoms: C_42  and  C_49
REMARK                            x       y       z     vdW  Elec       q    Type
REMARK                         _______ _______ _______ _____ _____    ______ ____
ROOT
ATOM      1  O   UNL     1     111.277 130.151 139.358  0.00  0.00    +0.000 OA
ATOM      2  O   UNL     1     109.006 129.407 138.711  0.00  0.00    +0.000 OA
ATOM      3  O   UNL     1     108.441 130.007 139.895  0.00  0.00    +0.000 OA
ATOM      4  C   UNL     1     110.408 129.477 138.445  0.00  0.00    +0.000 A 
ATOM      5  C   UNL     1     111.166 129.725 138.660  0.00  0.00    +0.000 A 
ATOM      6  C   UNL     1     109.763 129.655 138.926  0.00  0.00    +0.000 A 
ATOM      7  C   UNL     1     109.875 130.081 139.624  0.00  0.00    +0.000 A 
ATOM      8  C   UNL     1     110.092 130.961 141.071  0.00  0.00    +0.000 A 
ATOM      9  C   UNL     1     110.631 130.329 139.840  0.00  0.00    +0.000 A 
ATOM     10  C   UNL     1     110.760 130.773 140.565  0.00  0.00    +0.000 A 
ATOM     11  C   UNL     1     109.194 130.259 140.118  0.00  0.00    +0.000 A 
ATOM     12  C   UNL     1     109.303 130.703 140.847  0.00  0.00    +0.000 A 
ENDROOT
BRANCH   5  14
ATOM     13  O   UNL     1     113.748 129.015 136.732  0.00  0.00    +0.000 OA
ATOM     14  C   UNL     1     111.811 129.548 138.178  0.00  0.00    +0.000 A 
ATOM     15  C   UNL     1     112.096 130.110 137.646  0.00  0.00    +0.000 A 
ATOM     16  C   UNL     1     112.171 128.808 138.228  0.00  0.00    +0.000 A 
ATOM     17  C   UNL     1     112.741 129.933 137.164  0.00  0.00    +0.000 A 
ATOM     18  C   UNL     1     112.818 128.630 137.746  0.00  0.00    +0.000 A 
ATOM     19  C   UNL     1     113.102 129.193 137.214  0.00  0.00    +0.000 A 
BRANCH  17  20
ATOM     20  O   UNL     1     113.026 130.495 136.631  0.00  0.00    +0.000 OA
ATOM     21  C   UNL     1     113.106 131.282 136.867  0.00  0.00    +0.000 C 
ENDBRANCH  17  20
ENDBRANCH   5  14
BRANCH   4  22
ATOM     22  O   UNL     1     110.297 129.052 137.747  0.00  0.00    +0.000 OA
BRANCH  22  29
ATOM     23  O   UNL     1     109.714 130.120 136.997  0.00  0.00    +0.000 OA
ATOM     24  O   UNL     1     108.216 128.508 135.865  0.00  0.00    +0.000 OA
ATOM     25  O   UNL     1     108.133 130.113 135.493  0.00  0.00    +0.000 OA
ATOM     26  C   UNL     1     109.256 128.779 136.806  0.00  0.00    +0.000 C 
ATOM     27  C   UNL     1     108.715 129.045 136.243  0.00  0.00    +0.000 C 
ATOM     28  C   UNL     1     108.674 129.847 136.057  0.00  0.00    +0.000 C 
ATOM     29  C   UNL     1     109.756 129.317 137.183  0.00  0.00    +0.000 C 
ATOM     30  C   UNL     1     109.173 130.385 136.434  0.00  0.00    +0.000 C 
BRANCH  30  32
ATOM     31  O   UNL     1     109.774 131.561 135.890  0.00  0.00    +0.000 OA
ATOM     32  C   UNL     1     109.132 131.188 136.248  0.00  0.00    +0.000 C 
ENDBRANCH  30  32
BRANCH  26  33
ATOM     33  O   UNL     1     109.298 127.977 136.992  0.00  0.00    +0.000 OA
BRANCH  33  38
ATOM     34  O   UNL     1     110.052 127.738 135.802  0.00  0.00    +0.000 OA
ATOM     35  O   UNL     1     109.464 126.391 137.415  0.00  0.00    +0.000 OA
ATOM     36  O   UNL     1     110.301 125.360 136.436  0.00  0.00    +0.000 OA
ATOM     37  O   UNL     1     110.972 125.915 135.035  0.00  0.00    +0.000 OA
ATOM     38  C   UNL     1     109.717 127.462 136.503  0.00  0.00    +0.000 C 
ATOM     39  C   UNL     1     109.800 126.668 136.714  0.00  0.00    +0.000 C 
ATOM     40  C   UNL     1     110.218 126.152 136.225  0.00  0.00    +0.000 C 
ATOM     41  C   UNL     1     110.554 126.430 135.524  0.00  0.00    +0.000 C 
ATOM     42  C   UNL     1     110.471 127.223 135.313  0.00  0.00    +0.000 C 
BRANCH  42  44
ATOM     43  O   UNL     1     111.482 127.973 134.637  0.00  0.00    +0.000 OA
ATOM     44  C   UNL     1     110.807 127.501 134.612  0.00  0.00    +0.000 C 
ENDBRANCH  42  44
ENDBRANCH  33  38
ENDBRANCH  26  33
ENDBRANCH  22  29
ENDBRANCH   4  22
BRANCH   8  45
ATOM     45  O   UNL     1     110.206 131.386 141.768  0.00  0.00    +0.000 OA
BRANCH  45  54
ATOM     46  O   UNL     1     110.438 130.288 142.654  0.00  0.00    +0.000 OA
ATOM     47  O   UNL     1     112.253 131.561 143.755  0.00  0.00    +0.000 OA
ATOM     48  O   UNL     1     111.880 130.040 144.273  0.00  0.00    +0.000 OA
ATOM     49  O   UNL     1     111.416 132.234 142.502  0.00  0.00    +0.000 OA
ATOM     50  C   UNL     1     111.648 131.137 143.388  0.00  0.00    +0.000 C 
ATOM     51  C   UNL     1     111.462 130.376 143.647  0.00  0.00    +0.000 C 
ATOM     52  C   UNL     1     111.230 131.473 142.762  0.00  0.00    +0.000 C 
ATOM     53  C   UNL     1     110.857 129.952 143.280  0.00  0.00    +0.000 C 
ATOM     54  C   UNL     1     110.625 131.049 142.395  0.00  0.00    +0.000 C 
BRANCH  53  56
ATOM     55  O   UNL     1     109.884 128.987 143.688  0.00  0.00    +0.000 OA
ATOM     56  C   UNL     1     110.670 129.191 143.540  0.00  0.00    +0.000 C 
ENDBRANCH  53  56
ENDBRANCH  45  54
ENDBRANCH   8  45
TORSDOF 11
ENDMDL
MODEL 3
REMARK VINA RESULT:      -9.8      1.273      2.686
REMARK  Name = 44259344
REMARK  11 active torsions:
REMARK  status: ('A' for Active; 'I' for Inactive)
REMARK    1  A    between atoms: O_1  and  C_23
REMARK    2  A    between atoms: O_1  and  C_26
REMARK    3  A    between atoms: O_4  and  C_28
REMARK    4  A    between atoms: O_4  and  C_40
REMARK    5  A    between atoms: O_13  and  C_39
REMARK    6  A    between atoms: O_13  and  C_45
REMARK    7  A    between atoms: O_21  and  C_53
REMARK    8  A    between atoms: C_29  and  C_33
REMARK    9  A    between atoms: C_32  and  C_34
REMARK   10  A    between atoms: C_38  and  C_41
REMARK   11  A    between atoms: C_42  and  C_49
REMARK                            x       y       z     vdW  Elec       q    Type
REMARK                         _______ _______ _______ _____ _____    ______ ____
ROOT
ATOM      1  O   UNL     1     111.331 129.738 139.344  0.00  0.00    +0.000 OA
ATOM      2  O   UNL     1     113.272 128.247 138.975  0.00  0.00    +0.000 OA
ATOM      3  O   UNL     1     113.952 128.799 140.121  0.00  0.00    +0.000 OA
ATOM      4  C   UNL     1     111.977 128.710 138.590  0.00  0.00    +0.000 A 
ATOM      5  C   UNL     1     111.329 129.207 138.713  0.00  0.00    +0.000 A 
ATOM      6  C   UNL     1     112.625 128.744 139.098  0.00  0.00    +0.000 A 
ATOM      7  C   UNL     1     112.627 129.274 139.729  0.00  0.00    +0.000 A 
ATOM      8  C   UNL     1     112.644 130.368 141.040  0.00  0.00    +0.000 A 
ATOM      9  C   UNL     1     111.981 129.772 139.853  0.00  0.00    +0.000 A 
ATOM     10  C   UNL     1     111.971 130.329 140.507  0.00  0.00    +0.000 A 
ATOM     11  C   UNL     1     113.309 129.300 140.252  0.00  0.00    +0.000 A 
ATOM     12  C   UNL     1     113.318 129.851 140.912  0.00  0.00    +0.000 A 
ENDROOT
BRANCH   5  14
ATOM     13  O   UNL     1     108.733 129.072 136.680  0.00  0.00    +0.000 OA
ATOM     14  C   UNL     1     110.681 129.174 138.205  0.00  0.00    +0.000 A 
ATOM     15  C   UNL     1     110.596 129.734 137.606  0.00  0.00    +0.000 A 
ATOM     16  C   UNL     1     110.116 128.579 138.296  0.00  0.00    +0.000 A 
ATOM     17  C   UNL     1     109.947 129.701 137.098  0.00  0.00    +0.000 A 
ATOM     18  C   UNL     1     109.467 128.545 137.787  0.00  0.00    +0.000 A 
ATOM     19  C   UNL     1     109.383 129.106 137.189  0.00  0.00    +0.000 A 
BRANCH  17  20
ATOM     20  O   UNL     1     109.862 130.262 136.499  0.00  0.00    +0.000 OA
ATOM     21  C   UNL     1     109.998 131.060 136.659  0.00  0.00    +0.000 C 
ENDBRANCH  17  20
ENDBRANCH   5  14
BRANCH   4  22
ATOM     22  O   UNL     1     111.974 128.179 137.958  0.00  0.00    +0.000 OA
BRANCH  22  29
ATOM     23  O   UNL     1     112.867 128.920 137.123  0.00  0.00    +0.000 OA
ATOM     24  O   UNL     1     113.846 126.804 136.294  0.00  0.00    +0.000 OA
ATOM     25  O   UNL     1     114.412 128.250 135.735  0.00  0.00    +0.000 OA
ATOM     26  C   UNL     1     112.910 127.491 137.126  0.00  0.00    +0.000 C 
ATOM     27  C   UNL     1     113.520 127.509 136.570  0.00  0.00    +0.000 C 
ATOM     28  C   UNL     1     113.802 128.231 136.291  0.00  0.00    +0.000 C 
ATOM     29  C   UNL     1     112.584 128.196 137.403  0.00  0.00    +0.000 C 
ATOM     30  C   UNL     1     113.476 128.937 136.567  0.00  0.00    +0.000 C 
BRANCH  30  32
ATOM     31  O   UNL     1     113.246 130.185 135.910  0.00  0.00    +0.000 OA
ATOM     32  C   UNL     1     113.759 129.660 136.288  0.00  0.00    +0.000 C 
ENDBRANCH  30  32
BRANCH  26  33
ATOM     33  O   UNL     1     112.628 126.769 137.406  0.00  0.00    +0.000 OA
BRANCH  33  38
ATOM     34  O   UNL     1     111.853 126.604 136.216  0.00  0.00    +0.000 OA
ATOM     35  O   UNL     1     112.230 125.238 137.876  0.00  0.00    +0.000 OA
ATOM     36  O   UNL     1     111.257 124.308 136.921  0.00  0.00    +0.000 OA
ATOM     37  O   UNL     1     110.681 124.910 135.497  0.00  0.00    +0.000 OA
ATOM     38  C   UNL     1     112.141 126.304 136.928  0.00  0.00    +0.000 C 
ATOM     39  C   UNL     1     111.942 125.538 137.163  0.00  0.00    +0.000 C 
ATOM     40  C   UNL     1     111.455 125.073 136.686  0.00  0.00    +0.000 C 
ATOM     41  C   UNL     1     111.168 125.374 135.974  0.00  0.00    +0.000 C 
ATOM     42  C   UNL     1     111.366 126.139 135.739  0.00  0.00    +0.000 C 
BRANCH  42  44
ATOM     43  O   UNL     1     110.458 126.983 135.028  0.00  0.00    +0.000 OA
ATOM     44  C   UNL     1     111.079 126.441 135.026  0.00  0.00    +0.000 C 
ENDBRANCH  42  44
ENDBRANCH  33  38
ENDBRANCH  26  33
ENDBRANCH  22  29
ENDBRANCH   4  22
BRANCH   8  45
ATOM     45  O   UNL     1     112.643 130.900 141.670  0.00  0.00    +0.000 OA
BRANCH  45  54
ATOM     46  O   UNL     1     112.181 130.015 142.694  0.00  0.00    +0.000 OA
ATOM     47  O   UNL     1     110.731 131.810 143.590  0.00  0.00    +0.000 OA
ATOM     48  O   UNL     1     110.753 130.328 144.315  0.00  0.00    +0.000 OA
ATOM     49  O   UNL     1     111.677 132.096 142.268  0.00  0.00    +0.000 OA
ATOM     50  C   UNL     1     111.215 131.212 143.291  0.00  0.00    +0.000 C 
ATOM     51  C   UNL     1     111.225 130.471 143.654  0.00  0.00    +0.000 C 
ATOM     52  C   UNL     1     111.687 131.355 142.631  0.00  0.00    +0.000 C 
ATOM     53  C   UNL     1     111.709 129.873 143.355  0.00  0.00    +0.000 C 
ATOM     54  C   UNL     1     112.170 130.757 142.332  0.00  0.00    +0.000 C 
BRANCH  53  56
ATOM     55  O   UNL     1     111.427 128.472 143.316  0.00  0.00    +0.000 OA
ATOM     56  C   UNL     1     111.719 129.132 143.717  0.00  0.00    +0.000 C 
ENDBRANCH  53  56
ENDBRANCH  45  54
ENDBRANCH   8  45
TORSDOF 11
ENDMDL
MODEL 4
REMARK VINA RESULT:      -9.7      2.158      4.228
REMARK  Name = 44259344
REMARK  11 active torsions:
REMARK  status: ('A' for Active; 'I' for Inactive)
REMARK    1  A    between atoms: O_1  and  C_23
REMARK    2  A    between atoms: O_1  and  C_26
REMARK    3  A    between atoms: O_4  and  C_28
REMARK    4  A    between atoms: O_4  and  C_40
REMARK    5  A    between atoms: O_13  and  C_39
REMARK    6  A    between atoms: O_13  and  C_45
REMARK    7  A    between atoms: O_21  and  C_53
REMARK    8  A    between atoms: C_29  and  C_33
REMARK    9  A    between atoms: C_32  and  C_34
REMARK   10  A    between atoms: C_38  and  C_41
REMARK   11  A    between atoms: C_42  and  C_49
REMARK                            x       y       z     vdW  Elec       q    Type
REMARK                         _______ _______ _______ _____ _____    ______ ____
ROOT
ATOM      1  O   UNL     1     111.583 129.524 143.132  0.00  0.00    +0.000 OA
ATOM      2  O   UNL     1     111.916 131.301 141.441  0.00  0.00    +0.000 OA
ATOM      3  O   UNL     1     112.078 132.295 142.475  0.00  0.00    +0.000 OA
ATOM      4  C   UNL     1     111.671 129.931 141.765  0.00  0.00    +0.000 A 
ATOM      5  C   UNL     1     111.560 129.339 142.329  0.00  0.00    +0.000 A 
ATOM      6  C   UNL     1     111.805 130.709 142.005  0.00  0.00    +0.000 A 
ATOM      7  C   UNL     1     111.828 130.894 142.808  0.00  0.00    +0.000 A 
ATOM      8  C   UNL     1     111.878 131.291 144.468  0.00  0.00    +0.000 A 
ATOM      9  C   UNL     1     111.717 130.303 143.372  0.00  0.00    +0.000 A 
ATOM     10  C   UNL     1     111.739 130.483 144.212  0.00  0.00    +0.000 A 
ATOM     11  C   UNL     1     111.968 131.709 143.045  0.00  0.00    +0.000 A 
ATOM     12  C   UNL     1     111.994 131.909 143.881  0.00  0.00    +0.000 A 
ENDROOT
BRANCH   5  14
ATOM     13  O   UNL     1     111.025 126.226 141.370  0.00  0.00    +0.000 OA
ATOM     14  C   UNL     1     111.426 128.561 142.089  0.00  0.00    +0.000 A 
ATOM     15  C   UNL     1     110.665 128.317 141.886  0.00  0.00    +0.000 A 
ATOM     16  C   UNL     1     112.054 128.027 142.052  0.00  0.00    +0.000 A 
ATOM     17  C   UNL     1     110.531 127.539 141.647  0.00  0.00    +0.000 A 
ATOM     18  C   UNL     1     111.920 127.248 141.813  0.00  0.00    +0.000 A 
ATOM     19  C   UNL     1     111.158 127.005 141.610  0.00  0.00    +0.000 A 
BRANCH  17  20
ATOM     20  O   UNL     1     109.769 127.295 141.444  0.00  0.00    +0.000 OA
ATOM     21  C   UNL     1     109.115 127.721 141.710  0.00  0.00    +0.000 C 
ENDBRANCH  17  20
ENDBRANCH   5  14
BRANCH   4  22
ATOM     22  O   UNL     1     111.648 129.745 140.962  0.00  0.00    +0.000 OA
BRANCH  22  29
ATOM     23  O   UNL     1     113.055 129.862 140.742  0.00  0.00    +0.000 OA
ATOM     24  O   UNL     1     112.627 130.738 138.467  0.00  0.00    +0.000 OA
ATOM     25  O   UNL     1     114.177 130.562 139.005  0.00  0.00    +0.000 OA
ATOM     26  C   UNL     1     112.137 130.242 139.714  0.00  0.00    +0.000 C 
ATOM     27  C   UNL     1     112.769 130.446 139.225  0.00  0.00    +0.000 C 
ATOM     28  C   UNL     1     113.544 130.358 139.494  0.00  0.00    +0.000 C 
ATOM     29  C   UNL     1     112.279 129.950 140.472  0.00  0.00    +0.000 C 
ATOM     30  C   UNL     1     113.686 130.066 140.252  0.00  0.00    +0.000 C 
BRANCH  30  32
ATOM     31  O   UNL     1     114.741 129.233 140.737  0.00  0.00    +0.000 OA
ATOM     32  C   UNL     1     114.462 129.978 140.522  0.00  0.00    +0.000 C 
ENDBRANCH  30  32
BRANCH  26  33
ATOM     33  O   UNL     1     111.362 130.329 139.445  0.00  0.00    +0.000 OA
BRANCH  33  38
ATOM     34  O   UNL     1     111.490 129.132 138.675  0.00  0.00    +0.000 OA
ATOM     35  O   UNL     1     109.770 130.430 139.023  0.00  0.00    +0.000 OA
ATOM     36  O   UNL     1     109.103 129.283 138.042  0.00  0.00    +0.000 OA
ATOM     37  O   UNL     1     110.028 128.036 137.483  0.00  0.00    +0.000 OA
ATOM     38  C   UNL     1     111.029 129.756 138.955  0.00  0.00    +0.000 C 
ATOM     39  C   UNL     1     110.232 129.806 138.743  0.00  0.00    +0.000 C 
ATOM     40  C   UNL     1     109.898 129.233 138.253  0.00  0.00    +0.000 C 
ATOM     41  C   UNL     1     110.361 128.609 137.974  0.00  0.00    +0.000 C 
ATOM     42  C   UNL     1     111.157 128.559 138.185  0.00  0.00    +0.000 C 
BRANCH  42  44
ATOM     43  O   UNL     1     111.876 127.348 138.424  0.00  0.00    +0.000 OA
ATOM     44  C   UNL     1     111.620 127.935 137.906  0.00  0.00    +0.000 C 
ENDBRANCH  42  44
ENDBRANCH  33  38
ENDBRANCH  26  33
ENDBRANCH  22  29
ENDBRANCH   4  22
BRANCH   8  45
ATOM     45  O   UNL     1     111.901 131.474 145.272  0.00  0.00    +0.000 OA
BRANCH  45  54
ATOM     46  O   UNL     1     110.513 131.770 145.447  0.00  0.00    +0.000 OA
ATOM     47  O   UNL     1     111.103 133.655 146.938  0.00  0.00    +0.000 OA
ATOM     48  O   UNL     1     109.520 133.323 146.616  0.00  0.00    +0.000 OA
ATOM     49  O   UNL     1     112.293 132.731 146.266  0.00  0.00    +0.000 OA
ATOM     50  C   UNL     1     110.907 133.027 146.441  0.00  0.00    +0.000 C 
ATOM     51  C   UNL     1     110.115 132.861 146.280  0.00  0.00    +0.000 C 
ATOM     52  C   UNL     1     111.502 132.565 146.105  0.00  0.00    +0.000 C 
ATOM     53  C   UNL     1     109.918 132.232 145.783  0.00  0.00    +0.000 C 
ATOM     54  C   UNL     1     111.305 131.936 145.608  0.00  0.00    +0.000 C 
BRANCH  53  56
ATOM     55  O   UNL     1     108.852 131.288 145.660  0.00  0.00    +0.000 OA
ATOM     56  C   UNL     1     109.126 132.066 145.622  0.00  0.00    +0.000 C 
ENDBRANCH  53  56
ENDBRANCH  45  54
ENDBRANCH   8  45
TORSDOF 11
ENDMDL
MODEL 5
REMARK VINA RESULT:      -9.7      1.837      6.527
REMARK  Name = 44259344
REMARK  11 active torsions:
REMARK  status: ('A' for Active; 'I' for Inactive)
REMARK    1  A    between atoms: O_1  and  C_23
REMARK    2  A    between atoms: O_1  and  C_26
REMARK    3  A    between atoms: O_4  and  C_28
REMARK    4  A    between atoms: O_4  and  C_40
REMARK    5  A    between atoms: O_13  and  C_39
REMARK    6  A    between atoms: O_13  and  C_45
REMARK    7  A    between atoms: O_21  and  C_53
REMARK    8  A    between atoms: C_29  and  C_33
REMARK    9  A    between atoms: C_32  and  C_34
REMARK   10  A    between atoms: C_38  and  C_41
REMARK   11  A    between atoms: C_42  and  C_49
REMARK                            x       y       z     vdW  Elec       q    Type
REMARK                         _______ _______ _______ _____ _____    ______ ____
ROOT
ATOM      1  O   UNL     1     112.705 128.176 138.688  0.00  0.00    +0.000 OA
ATOM      2  O   UNL     1     110.423 128.247 139.643  0.00  0.00    +0.000 OA
ATOM      3  O   UNL     1     109.932 127.369 138.609  0.00  0.00    +0.000 OA
ATOM      4  C   UNL     1     111.794 128.647 139.682  0.00  0.00    +0.000 A 
ATOM      5  C   UNL     1     112.555 128.624 139.364  0.00  0.00    +0.000 A 
ATOM      6  C   UNL     1     111.184 128.224 139.325  0.00  0.00    +0.000 A 
ATOM      7  C   UNL     1     111.334 127.776 138.648  0.00  0.00    +0.000 A 
ATOM      8  C   UNL     1     111.632 126.847 137.247  0.00  0.00    +0.000 A 
ATOM      9  C   UNL     1     112.094 127.752 138.329  0.00  0.00    +0.000 A 
ATOM     10  C   UNL     1     112.264 127.290 137.625  0.00  0.00    +0.000 A 
ATOM     11  C   UNL     1     110.689 127.340 138.284  0.00  0.00    +0.000 A 
ATOM     12  C   UNL     1     110.839 126.871 137.579  0.00  0.00    +0.000 A 
ENDROOT
BRANCH   5  14
ATOM     13  O   UNL     1     114.998 130.318 140.797  0.00  0.00    +0.000 OA
ATOM     14  C   UNL     1     113.165 129.047 139.722  0.00  0.00    +0.000 A 
ATOM     15  C   UNL     1     113.419 129.762 139.397  0.00  0.00    +0.000 A 
ATOM     16  C   UNL     1     113.524 128.756 140.406  0.00  0.00    +0.000 A 
ATOM     17  C   UNL     1     114.029 130.185 139.755  0.00  0.00    +0.000 A 
ATOM     18  C   UNL     1     114.135 129.179 140.765  0.00  0.00    +0.000 A 
ATOM     19  C   UNL     1     114.387 129.894 140.439  0.00  0.00    +0.000 A 
BRANCH  17  20
ATOM     20  O   UNL     1     114.282 130.900 139.430  0.00  0.00    +0.000 OA
ATOM     21  C   UNL     1     114.333 130.985 138.611  0.00  0.00    +0.000 C 
ENDBRANCH  17  20
ENDBRANCH   5  14
BRANCH   4  22
ATOM     22  O   UNL     1     111.644 129.094 140.359  0.00  0.00    +0.000 OA
BRANCH  22  29
ATOM     23  O   UNL     1     110.972 130.166 139.695  0.00  0.00    +0.000 OA
ATOM     24  O   UNL     1     109.452 130.413 141.633  0.00  0.00    +0.000 OA
ATOM     25  O   UNL     1     109.286 131.403 140.323  0.00  0.00    +0.000 OA
ATOM     26  C   UNL     1     110.548 129.753 140.997  0.00  0.00    +0.000 C 
ATOM     27  C   UNL     1     109.958 130.331 140.987  0.00  0.00    +0.000 C 
ATOM     28  C   UNL     1     109.875 130.825 140.332  0.00  0.00    +0.000 C 
ATOM     29  C   UNL     1     111.054 129.671 140.351  0.00  0.00    +0.000 C 
ATOM     30  C   UNL     1     110.382 130.743 139.686  0.00  0.00    +0.000 C 
BRANCH  30  32
ATOM     31  O   UNL     1     110.914 131.744 138.817  0.00  0.00    +0.000 OA
ATOM     32  C   UNL     1     110.299 131.238 139.031  0.00  0.00    +0.000 C 
ENDBRANCH  30  32
BRANCH  26  33
ATOM     33  O   UNL     1     110.631 129.259 141.651  0.00  0.00    +0.000 OA
BRANCH  33  38
ATOM     34  O   UNL     1     111.280 130.313 142.365  0.00  0.00    +0.000 OA
ATOM     35  O   UNL     1     110.788 128.273 142.965  0.00  0.00    +0.000 OA
ATOM     36  O   UNL     1     111.515 128.834 144.335  0.00  0.00    +0.000 OA
ATOM     37  O   UNL     1     112.085 130.382 144.392  0.00  0.00    +0.000 OA
ATOM     38  C   UNL     1     110.994 129.540 142.336  0.00  0.00    +0.000 C 
ATOM     39  C   UNL     1     111.073 129.046 142.994  0.00  0.00    +0.000 C 
ATOM     40  C   UNL     1     111.437 129.327 143.679  0.00  0.00    +0.000 C 
ATOM     41  C   UNL     1     111.722 130.101 143.707  0.00  0.00    +0.000 C 
ATOM     42  C   UNL     1     111.643 130.594 143.051  0.00  0.00    +0.000 C 
BRANCH  42  44
ATOM     43  O   UNL     1     112.541 131.600 142.579  0.00  0.00    +0.000 OA
ATOM     44  C   UNL     1     111.928 131.368 143.078  0.00  0.00    +0.000 C 
ENDBRANCH  42  44
ENDBRANCH  33  38
ENDBRANCH  26  33
ENDBRANCH  22  29
ENDBRANCH   4  22
BRANCH   8  45
ATOM     45  O   UNL     1     111.785 126.401 136.571  0.00  0.00    +0.000 OA
BRANCH  45  54
ATOM     46  O   UNL     1     112.786 125.490 137.033  0.00  0.00    +0.000 OA
ATOM     47  O   UNL     1     111.514 123.601 136.063  0.00  0.00    +0.000 OA
ATOM     48  O   UNL     1     112.938 123.320 136.847  0.00  0.00    +0.000 OA
ATOM     49  O   UNL     1     110.938 125.141 135.925  0.00  0.00    +0.000 OA
ATOM     50  C   UNL     1     111.938 124.231 136.386  0.00  0.00    +0.000 C 
ATOM     51  C   UNL     1     112.650 124.090 136.778  0.00  0.00    +0.000 C 
ATOM     52  C   UNL     1     111.650 125.001 136.317  0.00  0.00    +0.000 C 
ATOM     53  C   UNL     1     113.074 124.720 137.102  0.00  0.00    +0.000 C 
ATOM     54  C   UNL     1     112.074 125.630 136.640  0.00  0.00    +0.000 C 
BRANCH  53  56
ATOM     55  O   UNL     1     114.476 124.959 137.245  0.00  0.00    +0.000 OA
ATOM     56  C   UNL     1     113.786 124.580 137.494  0.00  0.00    +0.000 C 
ENDBRANCH  53  56
ENDBRANCH  45  54
ENDBRANCH   8  45
TORSDOF 11
ENDMDL
MODEL 6
REMARK VINA RESULT:      -9.7      2.450      5.290
REMARK  Name = 44259344
REMARK  11 active torsions:
REMARK  status: ('A' for Active; 'I' for Inactive)
REMARK    1  A    between atoms: O_1  and  C_23
REMARK    2  A    between atoms: O_1  and  C_26
REMARK    3  A    between atoms: O_4  and  C_28
REMARK    4  A    between atoms: O_4  and  C_40
REMARK    5  A    between atoms: O_13  and  C_39
REMARK    6  A    between atoms: O_13  and  C_45
REMARK    7  A    between atoms: O_21  and  C_53
REMARK    8  A    between atoms: C_29  and  C_33
REMARK    9  A    between atoms: C_32  and  C_34
REMARK   10  A    between atoms: C_38  and  C_41
REMARK   11  A    between atoms: C_42  and  C_49
REMARK                            x       y       z     vdW  Elec       q    Type
REMARK                         _______ _______ _______ _____ _____    ______ ____
ROOT
ATOM      1  O   UNL     1     111.902 130.509 142.657  0.00  0.00    +0.000 OA
ATOM      2  O   UNL     1     111.598 128.141 143.308  0.00  0.00    +0.000 OA
ATOM      3  O   UNL     1     111.495 128.507 144.700  0.00  0.00    +0.000 OA
ATOM      4  C   UNL     1     111.799 129.130 142.297  0.00  0.00    +0.000 A 
ATOM      5  C   UNL     1     111.901 129.920 142.079  0.00  0.00    +0.000 A 
ATOM      6  C   UNL     1     111.700 128.930 143.091  0.00  0.00    +0.000 A 
ATOM      7  C   UNL     1     111.701 129.520 143.668  0.00  0.00    +0.000 A 
ATOM      8  C   UNL     1     111.702 130.731 144.871  0.00  0.00    +0.000 A 
ATOM      9  C   UNL     1     111.802 130.309 143.451  0.00  0.00    +0.000 A 
ATOM     10  C   UNL     1     111.805 130.933 144.042  0.00  0.00    +0.000 A 
ATOM     11  C   UNL     1     111.596 129.298 144.492  0.00  0.00    +0.000 A 
ATOM     12  C   UNL     1     111.596 129.908 145.098  0.00  0.00    +0.000 A 
ENDROOT
BRANCH   5  14
ATOM     13  O   UNL     1     112.300 130.720 138.903  0.00  0.00    +0.000 OA
ATOM     14  C   UNL     1     112.001 130.120 141.286  0.00  0.00    +0.000 A 
ATOM     15  C   UNL     1     112.749 130.076 140.940  0.00  0.00    +0.000 A 
ATOM     16  C   UNL     1     111.353 130.363 140.837  0.00  0.00    +0.000 A 
ATOM     17  C   UNL     1     112.849 130.276 140.146  0.00  0.00    +0.000 A 
ATOM     18  C   UNL     1     111.452 130.563 140.043  0.00  0.00    +0.000 A 
ATOM     19  C   UNL     1     112.201 130.520 139.698  0.00  0.00    +0.000 A 
BRANCH  17  20
ATOM     20  O   UNL     1     113.597 130.233 139.800  0.00  0.00    +0.000 OA
ATOM     21  C   UNL     1     114.272 130.312 140.268  0.00  0.00    +0.000 C 
ENDBRANCH  17  20
ENDBRANCH   5  14
BRANCH   4  22
ATOM     22  O   UNL     1     111.798 128.541 141.720  0.00  0.00    +0.000 OA
BRANCH  22  29
ATOM     23  O   UNL     1     110.393 128.288 141.790  0.00  0.00    +0.000 OA
ATOM     24  O   UNL     1     110.796 125.904 141.259  0.00  0.00    +0.000 OA
ATOM     25  O   UNL     1     109.257 126.446 141.506  0.00  0.00    +0.000 OA
ATOM     26  C   UNL     1     111.298 127.222 141.490  0.00  0.00    +0.000 C 
ATOM     27  C   UNL     1     110.662 126.699 141.436  0.00  0.00    +0.000 C 
ATOM     28  C   UNL     1     109.893 126.969 141.560  0.00  0.00    +0.000 C 
ATOM     29  C   UNL     1     111.164 128.016 141.667  0.00  0.00    +0.000 C 
ATOM     30  C   UNL     1     109.759 127.764 141.737  0.00  0.00    +0.000 C 
BRANCH  30  32
ATOM     31  O   UNL     1     108.662 128.594 141.349  0.00  0.00    +0.000 OA
ATOM     32  C   UNL     1     108.989 128.035 141.860  0.00  0.00    +0.000 C 
ENDBRANCH  30  32
BRANCH  26  33
ATOM     33  O   UNL     1     112.067 126.952 141.366  0.00  0.00    +0.000 OA
BRANCH  33  38
ATOM     34  O   UNL     1     111.839 126.919 139.956  0.00  0.00    +0.000 OA
ATOM     35  O   UNL     1     113.670 126.652 141.114  0.00  0.00    +0.000 OA
ATOM     36  O   UNL     1     114.243 126.469 139.578  0.00  0.00    +0.000 OA
ATOM     37  O   UNL     1     113.213 126.587 138.293  0.00  0.00    +0.000 OA
ATOM     38  C   UNL     1     112.353 126.860 140.598  0.00  0.00    +0.000 C 
ATOM     39  C   UNL     1     113.155 126.710 140.472  0.00  0.00    +0.000 C 
ATOM     40  C   UNL     1     113.442 126.619 139.703  0.00  0.00    +0.000 C 
ATOM     41  C   UNL     1     112.927 126.678 139.062  0.00  0.00    +0.000 C 
ATOM     42  C   UNL     1     112.126 126.827 139.187  0.00  0.00    +0.000 C 
BRANCH  42  44
ATOM     43  O   UNL     1     111.313 127.621 138.321  0.00  0.00    +0.000 OA
ATOM     44  C   UNL     1     111.610 126.886 138.546  0.00  0.00    +0.000 C 
ENDBRANCH  42  44
ENDBRANCH  33  38
ENDBRANCH  26  33
ENDBRANCH  22  29
ENDBRANCH   4  22
BRANCH   8  45
ATOM     45  O   UNL     1     111.703 131.322 145.446  0.00  0.00    +0.000 OA
BRANCH  45  54
ATOM     46  O   UNL     1     110.312 131.645 145.382  0.00  0.00    +0.000 OA
ATOM     47  O   UNL     1     110.856 134.042 145.682  0.00  0.00    +0.000 OA
ATOM     48  O   UNL     1     109.284 133.566 145.518  0.00  0.00    +0.000 OA
ATOM     49  O   UNL     1     112.065 132.919 145.646  0.00  0.00    +0.000 OA
ATOM     50  C   UNL     1     110.675 133.243 145.582  0.00  0.00    +0.000 C 
ATOM     51  C   UNL     1     109.889 133.005 145.500  0.00  0.00    +0.000 C 
ATOM     52  C   UNL     1     111.279 132.682 145.564  0.00  0.00    +0.000 C 
ATOM     53  C   UNL     1     109.708 132.207 145.400  0.00  0.00    +0.000 C 
ATOM     54  C   UNL     1     111.098 131.883 145.464  0.00  0.00    +0.000 C 
BRANCH  53  56
ATOM     55  O   UNL     1     108.641 131.318 145.742  0.00  0.00    +0.000 OA
ATOM     56  C   UNL     1     108.922 131.969 145.318  0.00  0.00    +0.000 C 
ENDBRANCH  53  56
ENDBRANCH  45  54
ENDBRANCH   8  45
TORSDOF 11
ENDMDL
MODEL 7
REMARK VINA RESULT:      -9.6      2.820      4.943
REMARK  Name = 44259344
REMARK  11 active torsions:
REMARK  status: ('A' for Active; 'I' for Inactive)
REMARK    1  A    between atoms: O_1  and  C_23
REMARK    2  A    between atoms: O_1  and  C_26
REMARK    3  A    between atoms: O_4  and  C_28
REMARK    4  A    between atoms: O_4  and  C_40
REMARK    5  A    between atoms: O_13  and  C_39
REMARK    6  A    between atoms: O_13  and  C_45
REMARK    7  A    between atoms: O_21  and  C_53
REMARK    8  A    between atoms: C_29  and  C_33
REMARK    9  A    between atoms: C_32  and  C_34
REMARK   10  A    between atoms: C_38  and  C_41
REMARK   11  A    between atoms: C_42  and  C_49
REMARK                            x       y       z     vdW  Elec       q    Type
REMARK                         _______ _______ _______ _____ _____    ______ ____
ROOT
ATOM      1  O   UNL     1     110.309 130.194 143.011  0.00  0.00    +0.000 OA
ATOM      2  O   UNL     1     111.831 131.449 141.516  0.00  0.00    +0.000 OA
ATOM      3  O   UNL     1     112.576 131.949 142.646  0.00  0.00    +0.000 OA
ATOM      4  C   UNL     1     110.710 130.582 141.695  0.00  0.00    +0.000 A 
ATOM      5  C   UNL     1     110.202 130.163 142.193  0.00  0.00    +0.000 A 
ATOM      6  C   UNL     1     111.323 131.031 142.014  0.00  0.00    +0.000 A 
ATOM      7  C   UNL     1     111.430 131.062 142.831  0.00  0.00    +0.000 A 
ATOM      8  C   UNL     1     111.661 131.135 144.521  0.00  0.00    +0.000 A 
ATOM      9  C   UNL     1     110.923 130.644 143.330  0.00  0.00    +0.000 A 
ATOM     10  C   UNL     1     111.023 130.669 144.183  0.00  0.00    +0.000 A 
ATOM     11  C   UNL     1     112.073 131.534 143.151  0.00  0.00    +0.000 A 
ATOM     12  C   UNL     1     112.190 131.571 144.002  0.00  0.00    +0.000 A 
ENDROOT
BRANCH   5  14
ATOM     13  O   UNL     1     107.747 128.364 140.919  0.00  0.00    +0.000 OA
ATOM     14  C   UNL     1     109.589 129.714 141.875  0.00  0.00    +0.000 A 
ATOM     15  C   UNL     1     108.884 130.078 141.648  0.00  0.00    +0.000 A 
ATOM     16  C   UNL     1     109.679 128.899 141.783  0.00  0.00    +0.000 A 
ATOM     17  C   UNL     1     108.271 129.629 141.329  0.00  0.00    +0.000 A 
ATOM     18  C   UNL     1     109.065 128.448 141.464  0.00  0.00    +0.000 A 
ATOM     19  C   UNL     1     108.361 128.814 141.237  0.00  0.00    +0.000 A 
BRANCH  17  20
ATOM     20  O   UNL     1     107.566 129.994 141.102  0.00  0.00    +0.000 OA
ATOM     21  C   UNL     1     107.371 130.736 141.404  0.00  0.00    +0.000 C 
ENDBRANCH  17  20
ENDBRANCH   5  14
BRANCH   4  22
ATOM     22  O   UNL     1     110.603 130.550 140.878  0.00  0.00    +0.000 OA
BRANCH  22  29
ATOM     23  O   UNL     1     111.707 129.684 140.610  0.00  0.00    +0.000 OA
ATOM     24  O   UNL     1     112.127 130.877 138.482  0.00  0.00    +0.000 OA
ATOM     25  O   UNL     1     113.092 129.613 138.923  0.00  0.00    +0.000 OA
ATOM     26  C   UNL     1     111.365 130.714 139.680  0.00  0.00    +0.000 C 
ATOM     27  C   UNL     1     111.987 130.479 139.191  0.00  0.00    +0.000 C 
ATOM     28  C   UNL     1     112.469 129.848 139.412  0.00  0.00    +0.000 C 
ATOM     29  C   UNL     1     111.225 130.316 140.389  0.00  0.00    +0.000 C 
ATOM     30  C   UNL     1     112.329 129.450 140.121  0.00  0.00    +0.000 C 
BRANCH  30  32
ATOM     31  O   UNL     1     112.485 128.068 140.448  0.00  0.00    +0.000 OA
ATOM     32  C   UNL     1     112.812 128.817 140.342  0.00  0.00    +0.000 C 
ENDBRANCH  30  32
BRANCH  26  33
ATOM     33  O   UNL     1     110.883 131.346 139.460  0.00  0.00    +0.000 OA
BRANCH  33  38
ATOM     34  O   UNL     1     110.172 130.491 138.561  0.00  0.00    +0.000 OA
ATOM     35  O   UNL     1     109.890 132.599 139.052  0.00  0.00    +0.000 OA
ATOM     36  O   UNL     1     108.683 132.370 137.951  0.00  0.00    +0.000 OA
ATOM     37  O   UNL     1     108.469 130.889 137.256  0.00  0.00    +0.000 OA
ATOM     38  C   UNL     1     110.280 131.231 138.909  0.00  0.00    +0.000 C 
ATOM     39  C   UNL     1     109.782 131.858 138.705  0.00  0.00    +0.000 C 
ATOM     40  C   UNL     1     109.179 131.744 138.154  0.00  0.00    +0.000 C 
ATOM     41  C   UNL     1     109.073 131.003 137.807  0.00  0.00    +0.000 C 
ATOM     42  C   UNL     1     109.569 130.377 138.010  0.00  0.00    +0.000 C 
BRANCH  42  44
ATOM     43  O   UNL     1     109.141 129.017 138.102  0.00  0.00    +0.000 OA
ATOM     44  C   UNL     1     109.463 129.636 137.663  0.00  0.00    +0.000 C 
ENDBRANCH  42  44
ENDBRANCH  33  38
ENDBRANCH  26  33
ENDBRANCH  22  29
ENDBRANCH   4  22
BRANCH   8  45
ATOM     45  O   UNL     1     111.765 131.165 145.339  0.00  0.00    +0.000 OA
BRANCH  45  54
ATOM     46  O   UNL     1     110.797 132.188 145.582  0.00  0.00    +0.000 OA
ATOM     47  O   UNL     1     112.211 133.093 147.401  0.00  0.00    +0.000 OA
ATOM     48  O   UNL     1     110.772 133.814 147.039  0.00  0.00    +0.000 OA
ATOM     49  O   UNL     1     112.707 131.768 146.551  0.00  0.00    +0.000 OA
ATOM     50  C   UNL     1     111.739 132.791 146.795  0.00  0.00    +0.000 C 
ATOM     51  C   UNL     1     111.020 133.152 146.614  0.00  0.00    +0.000 C 
ATOM     52  C   UNL     1     111.987 132.129 146.370  0.00  0.00    +0.000 C 
ATOM     53  C   UNL     1     110.548 132.850 146.007  0.00  0.00    +0.000 C 
ATOM     54  C   UNL     1     111.516 131.827 145.764  0.00  0.00    +0.000 C 
BRANCH  53  56
ATOM     55  O   UNL     1     109.739 133.617 145.112  0.00  0.00    +0.000 OA
ATOM     56  C   UNL     1     109.829 133.211 145.826  0.00  0.00    +0.000 C 
ENDBRANCH  53  56
ENDBRANCH  45  54
ENDBRANCH   8  45
TORSDOF 11
ENDMDL
MODEL 8
REMARK VINA RESULT:      -9.6      6.757      9.738
REMARK  Name = 44259344
REMARK  11 active torsions:
REMARK  status: ('A' for Active; 'I' for Inactive)
REMARK    1  A    between atoms: O_1  and  C_23
REMARK    2  A    between atoms: O_1  and  C_26
REMARK    3  A    between atoms: O_4  and  C_28
REMARK    4  A    between atoms: O_4  and  C_40
REMARK    5  A    between atoms: O_13  and  C_39
REMARK    6  A    between atoms: O_13  and  C_45
REMARK    7  A    between atoms: O_21  and  C_53
REMARK    8  A    between atoms: C_29  and  C_33
REMARK    9  A    between atoms: C_32  and  C_34
REMARK   10  A    between atoms: C_38  and  C_41
REMARK   11  A    between atoms: C_42  and  C_49
REMARK                            x       y       z     vdW  Elec       q    Type
REMARK                         _______ _______ _______ _____ _____    ______ ____
ROOT
ATOM      1  O   UNL     1     105.051 127.396 145.136  0.00  0.00    +0.000 OA
ATOM      2  O   UNL     1     107.168 126.345 144.402  0.00  0.00    +0.000 OA
ATOM      3  O   UNL     1     106.964 125.237 145.303  0.00  0.00    +0.000 OA
ATOM      4  C   UNL     1     106.223 127.413 144.319  0.00  0.00    +0.000 A 
ATOM      5  C   UNL     1     105.517 127.764 144.563  0.00  0.00    +0.000 A 
ATOM      6  C   UNL     1     106.462 126.696 144.646  0.00  0.00    +0.000 A 
ATOM      7  C   UNL     1     105.996 126.328 145.219  0.00  0.00    +0.000 A 
ATOM      8  C   UNL     1     105.041 125.557 146.405  0.00  0.00    +0.000 A 
ATOM      9  C   UNL     1     105.290 126.677 145.464  0.00  0.00    +0.000 A 
ATOM     10  C   UNL     1     104.796 126.305 146.060  0.00  0.00    +0.000 A 
ATOM     11  C   UNL     1     106.257 125.580 145.553  0.00  0.00    +0.000 A 
ATOM     12  C   UNL     1     105.776 125.191 146.151  0.00  0.00    +0.000 A 
ENDROOT
BRANCH   5  14
ATOM     13  O   UNL     1     104.556 130.636 143.251  0.00  0.00    +0.000 OA
ATOM     14  C   UNL     1     105.277 128.481 144.236  0.00  0.00    +0.000 A 
ATOM     15  C   UNL     1     105.570 129.192 144.536  0.00  0.00    +0.000 A 
ATOM     16  C   UNL     1     104.743 128.489 143.607  0.00  0.00    +0.000 A 
ATOM     17  C   UNL     1     105.330 129.909 144.208  0.00  0.00    +0.000 A 
ATOM     18  C   UNL     1     104.503 129.208 143.278  0.00  0.00    +0.000 A 
ATOM     19  C   UNL     1     104.797 129.917 143.580  0.00  0.00    +0.000 A 
BRANCH  17  20
ATOM     20  O   UNL     1     105.624 130.619 144.509  0.00  0.00    +0.000 OA
ATOM     21  C   UNL     1     105.921 130.650 145.278  0.00  0.00    +0.000 C 
ENDBRANCH  17  20
ENDBRANCH   5  14
BRANCH   4  22
ATOM     22  O   UNL     1     106.689 127.781 143.746  0.00  0.00    +0.000 OA
BRANCH  22  29
ATOM     23  O   UNL     1     106.358 126.881 142.687  0.00  0.00    +0.000 OA
ATOM     24  O   UNL     1     108.644 127.120 141.770  0.00  0.00    +0.000 OA
ATOM     25  O   UNL     1     107.551 126.140 141.016  0.00  0.00    +0.000 OA
ATOM     26  C   UNL     1     107.667 127.451 142.758  0.00  0.00    +0.000 C 
ATOM     27  C   UNL     1     107.882 127.040 142.076  0.00  0.00    +0.000 C 
ATOM     28  C   UNL     1     107.336 126.551 141.699  0.00  0.00    +0.000 C 
ATOM     29  C   UNL     1     106.905 127.371 143.064  0.00  0.00    +0.000 C 
ATOM     30  C   UNL     1     106.574 126.472 142.004  0.00  0.00    +0.000 C 
BRANCH  30  32
ATOM     31  O   UNL     1     105.389 126.312 141.222  0.00  0.00    +0.000 OA
ATOM     32  C   UNL     1     106.027 125.982 141.627  0.00  0.00    +0.000 C 
ENDBRANCH  30  32
BRANCH  26  33
ATOM     33  O   UNL     1     108.213 127.940 143.135  0.00  0.00    +0.000 OA
BRANCH  33  38
ATOM     34  O   UNL     1     108.002 128.948 142.144  0.00  0.00    +0.000 OA
ATOM     35  O   UNL     1     109.161 128.983 143.994  0.00  0.00    +0.000 OA
ATOM     36  O   UNL     1     109.424 130.512 143.432  0.00  0.00    +0.000 OA
ATOM     37  O   UNL     1     108.739 130.998 142.011  0.00  0.00    +0.000 OA
ATOM     38  C   UNL     1     108.345 128.705 142.854  0.00  0.00    +0.000 C 
ATOM     39  C   UNL     1     108.819 129.227 143.284  0.00  0.00    +0.000 C 
ATOM     40  C   UNL     1     108.950 129.991 143.003  0.00  0.00    +0.000 C 
ATOM     41  C   UNL     1     108.607 130.233 142.292  0.00  0.00    +0.000 C 
ATOM     42  C   UNL     1     108.134 129.713 141.863  0.00  0.00    +0.000 C 
BRANCH  42  44
ATOM     43  O   UNL     1     106.971 129.994 141.083  0.00  0.00    +0.000 OA
ATOM     44  C   UNL     1     107.791 129.955 141.153  0.00  0.00    +0.000 C 
ENDBRANCH  42  44
ENDBRANCH  33  38
ENDBRANCH  26  33
ENDBRANCH  22  29
ENDBRANCH   4  22
BRANCH   8  45
ATOM     45  O   UNL     1     104.573 125.191 146.977  0.00  0.00    +0.000 OA
BRANCH  45  54
ATOM     46  O   UNL     1     104.104 124.085 146.201  0.00  0.00    +0.000 OA
ATOM     47  O   UNL     1     101.843 124.365 147.168  0.00  0.00    +0.000 OA
ATOM     48  O   UNL     1     102.128 123.167 146.070  0.00  0.00    +0.000 OA
ATOM     49  O   UNL     1     103.065 125.377 147.622  0.00  0.00    +0.000 OA
ATOM     50  C   UNL     1     102.597 124.272 146.846  0.00  0.00    +0.000 C 
ATOM     51  C   UNL     1     102.739 123.673 146.297  0.00  0.00    +0.000 C 
ATOM     52  C   UNL     1     103.208 124.778 147.073  0.00  0.00    +0.000 C 
ATOM     53  C   UNL     1     103.493 123.580 145.974  0.00  0.00    +0.000 C 
ATOM     54  C   UNL     1     103.962 124.684 146.750  0.00  0.00    +0.000 C 
BRANCH  53  56
ATOM     55  O   UNL     1     103.818 123.173 144.643  0.00  0.00    +0.000 OA
ATOM     56  C   UNL     1     103.636 122.981 145.425  0.00  0.00    +0.000 C 
ENDBRANCH  53  56
ENDBRANCH  45  54
ENDBRANCH   8  45
TORSDOF 11
ENDMDL
MODEL 9
REMARK VINA RESULT:      -9.6      2.494      3.732
REMARK  Name = 44259344
REMARK  11 active torsions:
REMARK  status: ('A' for Active; 'I' for Inactive)
REMARK    1  A    between atoms: O_1  and  C_23
REMARK    2  A    between atoms: O_1  and  C_26
REMARK    3  A    between atoms: O_4  and  C_28
REMARK    4  A    between atoms: O_4  and  C_40
REMARK    5  A    between atoms: O_13  and  C_39
REMARK    6  A    between atoms: O_13  and  C_45
REMARK    7  A    between atoms: O_21  and  C_53
REMARK    8  A    between atoms: C_29  and  C_33
REMARK    9  A    between atoms: C_32  and  C_34
REMARK   10  A    between atoms: C_38  and  C_41
REMARK   11  A    between atoms: C_42  and  C_49
REMARK                            x       y       z     vdW  Elec       q    Type
REMARK                         _______ _______ _______ _____ _____    ______ ____
ROOT
ATOM      1  O   UNL     1     111.349 128.641 140.429  0.00  0.00    +0.000 OA
ATOM      2  O   UNL     1     110.567 128.088 138.146  0.00  0.00    +0.000 OA
ATOM      3  O   UNL     1     109.378 128.884 138.329  0.00  0.00    +0.000 OA
ATOM      4  C   UNL     1     111.542 127.966 139.184  0.00  0.00    +0.000 A 
ATOM      5  C   UNL     1     111.803 128.151 139.945  0.00  0.00    +0.000 A 
ATOM      6  C   UNL     1     110.828 128.272 138.907  0.00  0.00    +0.000 A 
ATOM      7  C   UNL     1     110.374 128.762 139.391  0.00  0.00    +0.000 A 
ATOM      8  C   UNL     1     109.425 129.777 140.383  0.00  0.00    +0.000 A 
ATOM      9  C   UNL     1     110.634 128.947 140.152  0.00  0.00    +0.000 A 
ATOM     10  C   UNL     1     110.170 129.456 140.666  0.00  0.00    +0.000 A 
ATOM     11  C   UNL     1     109.631 129.074 139.091  0.00  0.00    +0.000 A 
ATOM     12  C   UNL     1     109.153 129.585 139.591  0.00  0.00    +0.000 A 
ENDROOT
BRANCH   5  14
ATOM     13  O   UNL     1     114.661 126.928 141.053  0.00  0.00    +0.000 OA
ATOM     14  C   UNL     1     112.517 127.845 140.221  0.00  0.00    +0.000 A 
ATOM     15  C   UNL     1     113.189 128.324 140.247  0.00  0.00    +0.000 A 
ATOM     16  C   UNL     1     112.560 127.061 140.473  0.00  0.00    +0.000 A 
ATOM     17  C   UNL     1     113.903 128.018 140.523  0.00  0.00    +0.000 A 
ATOM     18  C   UNL     1     113.275 126.755 140.751  0.00  0.00    +0.000 A 
ATOM     19  C   UNL     1     113.946 127.234 140.775  0.00  0.00    +0.000 A 
BRANCH  17  20
ATOM     20  O   UNL     1     114.575 128.497 140.549  0.00  0.00    +0.000 OA
ATOM     21  C   UNL     1     114.499 129.305 140.693  0.00  0.00    +0.000 C 
ENDBRANCH  17  20
ENDBRANCH   5  14
BRANCH   4  22
ATOM     22  O   UNL     1     111.996 127.476 138.700  0.00  0.00    +0.000 OA
BRANCH  22  29
ATOM     23  O   UNL     1     112.521 128.491 137.842  0.00  0.00    +0.000 OA
ATOM     24  O   UNL     1     112.281 126.975 135.901  0.00  0.00    +0.000 OA
ATOM     25  O   UNL     1     112.886 128.495 135.690  0.00  0.00    +0.000 OA
ATOM     26  C   UNL     1     112.138 127.225 137.300  0.00  0.00    +0.000 C 
ATOM     27  C   UNL     1     112.361 127.480 136.548  0.00  0.00    +0.000 C 
ATOM     28  C   UNL     1     112.663 128.240 136.442  0.00  0.00    +0.000 C 
ATOM     29  C   UNL     1     112.218 127.730 137.947  0.00  0.00    +0.000 C 
ATOM     30  C   UNL     1     112.743 128.745 137.089  0.00  0.00    +0.000 C 
BRANCH  30  32
ATOM     31  O   UNL     1     113.735 129.733 137.378  0.00  0.00    +0.000 OA
ATOM     32  C   UNL     1     113.046 129.506 136.984  0.00  0.00    +0.000 C 
ENDBRANCH  30  32
BRANCH  26  33
ATOM     33  O   UNL     1     111.835 126.465 137.406  0.00  0.00    +0.000 OA
BRANCH  33  38
ATOM     34  O   UNL     1     113.152 125.911 137.398  0.00  0.00    +0.000 OA
ATOM     35  O   UNL     1     111.199 124.957 137.199  0.00  0.00    +0.000 OA
ATOM     36  O   UNL     1     112.198 123.649 137.087  0.00  0.00    +0.000 OA
ATOM     37  O   UNL     1     113.834 123.849 137.183  0.00  0.00    +0.000 OA
ATOM     38  C   UNL     1     112.335 125.811 137.350  0.00  0.00    +0.000 C 
ATOM     39  C   UNL     1     112.017 125.056 137.246  0.00  0.00    +0.000 C 
ATOM     40  C   UNL     1     112.516 124.402 137.191  0.00  0.00    +0.000 C 
ATOM     41  C   UNL     1     113.334 124.503 137.238  0.00  0.00    +0.000 C 
ATOM     42  C   UNL     1     113.652 125.256 137.342  0.00  0.00    +0.000 C 
BRANCH  42  44
ATOM     43  O   UNL     1     114.829 125.475 138.122  0.00  0.00    +0.000 OA
ATOM     44  C   UNL     1     114.470 125.357 137.390  0.00  0.00    +0.000 C 
ENDBRANCH  42  44
ENDBRANCH  33  38
ENDBRANCH  26  33
ENDBRANCH  22  29
ENDBRANCH   4  22
BRANCH   8  45
ATOM     45  O   UNL     1     108.973 130.267 140.870  0.00  0.00    +0.000 OA
BRANCH  45  54
ATOM     46  O   UNL     1     108.348 129.264 141.674  0.00  0.00    +0.000 OA
ATOM     47  O   UNL     1     106.201 130.487 141.527  0.00  0.00    +0.000 OA
ATOM     48  O   UNL     1     106.291 129.077 142.381  0.00  0.00    +0.000 OA
ATOM     49  O   UNL     1     107.542 131.081 140.772  0.00  0.00    +0.000 OA
ATOM     50  C   UNL     1     106.916 130.079 141.576  0.00  0.00    +0.000 C 
ATOM     51  C   UNL     1     106.961 129.374 142.003  0.00  0.00    +0.000 C 
ATOM     52  C   UNL     1     107.587 130.376 141.199  0.00  0.00    +0.000 C 
ATOM     53  C   UNL     1     107.677 128.967 142.052  0.00  0.00    +0.000 C 
ATOM     54  C   UNL     1     108.303 129.969 141.248  0.00  0.00    +0.000 C 
BRANCH  53  56
ATOM     55  O   UNL     1     108.315 128.160 143.044  0.00  0.00    +0.000 OA
ATOM     56  C   UNL     1     107.722 128.262 142.479  0.00  0.00    +0.000 C 
ENDBRANCH  53  56
ENDBRANCH  45  54
ENDBRANCH   8  45
TORSDOF 11
ENDMDL
MODEL 10
REMARK VINA RESULT:      -9.6      3.031      5.014
REMARK  Name = 44259344
REMARK  11 active torsions:
REMARK  status: ('A' for Active; 'I' for Inactive)
REMARK    1  A    between atoms: O_1  and  C_23
REMARK    2  A    between atoms: O_1  and  C_26
REMARK    3  A    between atoms: O_4  and  C_28
REMARK    4  A    between atoms: O_4  and  C_40
REMARK    5  A    between atoms: O_13  and  C_39
REMARK    6  A    between atoms: O_13  and  C_45
REMARK    7  A    between atoms: O_21  and  C_53
REMARK    8  A    between atoms: C_29  and  C_33
REMARK    9  A    between atoms: C_32  and  C_34
REMARK   10  A    between atoms: C_38  and  C_41
REMARK   11  A    between atoms: C_42  and  C_49
REMARK                            x       y       z     vdW  Elec       q    Type
REMARK                         _______ _______ _______ _____ _____    ______ ____
ROOT
ATOM      1  O   UNL     1     109.890 125.678 139.182  0.00  0.00    +0.000 OA
ATOM      2  O   UNL     1     110.188 128.074 139.728  0.00  0.00    +0.000 OA
ATOM      3  O   UNL     1     109.325 127.950 140.877  0.00  0.00    +0.000 OA
ATOM      4  C   UNL     1     110.468 126.952 138.889  0.00  0.00    +0.000 A 
ATOM      5  C   UNL     1     110.369 126.153 138.707  0.00  0.00    +0.000 A 
ATOM      6  C   UNL     1     110.089 127.276 139.546  0.00  0.00    +0.000 A 
ATOM      7  C   UNL     1     109.610 126.801 140.021  0.00  0.00    +0.000 A 
ATOM      8  C   UNL     1     108.617 125.829 141.013  0.00  0.00    +0.000 A 
ATOM      9  C   UNL     1     109.510 126.002 139.840  0.00  0.00    +0.000 A 
ATOM     10  C   UNL     1     109.014 125.497 140.327  0.00  0.00    +0.000 A 
ATOM     11  C   UNL     1     109.220 127.150 140.703  0.00  0.00    +0.000 A 
ATOM     12  C   UNL     1     108.720 126.661 141.203  0.00  0.00    +0.000 A 
ENDROOT
BRANCH   5  14
ATOM     13  O   UNL     1     111.886 124.856 136.079  0.00  0.00    +0.000 OA
ATOM     14  C   UNL     1     110.748 125.829 138.050  0.00  0.00    +0.000 A 
ATOM     15  C   UNL     1     110.431 125.935 137.296  0.00  0.00    +0.000 A 
ATOM     16  C   UNL     1     111.445 125.398 138.147  0.00  0.00    +0.000 A 
ATOM     17  C   UNL     1     110.810 125.611 136.639  0.00  0.00    +0.000 A 
ATOM     18  C   UNL     1     111.825 125.074 137.490  0.00  0.00    +0.000 A 
ATOM     19  C   UNL     1     111.507 125.181 136.737  0.00  0.00    +0.000 A 
BRANCH  17  20
ATOM     20  O   UNL     1     110.492 125.717 135.885  0.00  0.00    +0.000 OA
ATOM     21  C   UNL     1     109.740 126.043 135.797  0.00  0.00    +0.000 C 
ENDBRANCH  17  20
ENDBRANCH   5  14
BRANCH   4  22
ATOM     22  O   UNL     1     110.946 127.426 138.414  0.00  0.00    +0.000 OA
BRANCH  22  29
ATOM     23  O   UNL     1     112.037 127.501 139.334  0.00  0.00    +0.000 OA
ATOM     24  O   UNL     1     112.514 129.810 138.580  0.00  0.00    +0.000 OA
ATOM     25  O   UNL     1     113.445 129.116 139.752  0.00  0.00    +0.000 OA
ATOM     26  C   UNL     1     111.730 128.619 138.496  0.00  0.00    +0.000 C 
ATOM     27  C   UNL     1     112.355 129.040 138.832  0.00  0.00    +0.000 C 
ATOM     28  C   UNL     1     112.820 128.694 139.417  0.00  0.00    +0.000 C 
ATOM     29  C   UNL     1     111.571 127.849 138.748  0.00  0.00    +0.000 C 
ATOM     30  C   UNL     1     112.661 127.924 139.668  0.00  0.00    +0.000 C 
BRANCH  30  32
ATOM     31  O   UNL     1     113.556 126.892 140.088  0.00  0.00    +0.000 OA
ATOM     32  C   UNL     1     113.127 127.577 140.255  0.00  0.00    +0.000 C 
ENDBRANCH  30  32
BRANCH  26  33
ATOM     33  O   UNL     1     111.265 128.965 137.911  0.00  0.00    +0.000 OA
BRANCH  33  38
ATOM     34  O   UNL     1     112.296 128.729 136.950  0.00  0.00    +0.000 OA
ATOM     35  O   UNL     1     110.320 129.630 136.732  0.00  0.00    +0.000 OA
ATOM     36  O   UNL     1     110.880 129.725 135.183  0.00  0.00    +0.000 OA
ATOM     37  O   UNL     1     112.384 129.156 134.812  0.00  0.00    +0.000 OA
ATOM     38  C   UNL     1     111.544 129.013 137.136  0.00  0.00    +0.000 C 
ATOM     39  C   UNL     1     111.072 129.345 136.546  0.00  0.00    +0.000 C 
ATOM     40  C   UNL     1     111.352 129.393 135.772  0.00  0.00    +0.000 C 
ATOM     41  C   UNL     1     112.104 129.108 135.587  0.00  0.00    +0.000 C 
ATOM     42  C   UNL     1     112.576 128.776 136.176  0.00  0.00    +0.000 C 
BRANCH  42  44
ATOM     43  O   UNL     1     113.493 127.687 136.061  0.00  0.00    +0.000 OA
ATOM     44  C   UNL     1     113.328 128.491 135.991  0.00  0.00    +0.000 C 
ENDBRANCH  42  44
ENDBRANCH  33  38
ENDBRANCH  26  33
ENDBRANCH  22  29
ENDBRANCH   4  22
BRANCH   8  45
ATOM     45  O   UNL     1     108.139 125.352 141.486  0.00  0.00    +0.000 OA
BRANCH  45  54
ATOM     46  O   UNL     1     106.825 125.710 141.049  0.00  0.00    +0.000 OA
ATOM     47  O   UNL     1     106.257 123.313 140.798  0.00  0.00    +0.000 OA
ATOM     48  O   UNL     1     105.134 124.469 140.445  0.00  0.00    +0.000 OA
ATOM     49  O   UNL     1     107.759 123.755 141.319  0.00  0.00    +0.000 OA
ATOM     50  C   UNL     1     106.447 124.112 140.882  0.00  0.00    +0.000 C 
ATOM     51  C   UNL     1     105.885 124.690 140.705  0.00  0.00    +0.000 C 
ATOM     52  C   UNL     1     107.198 124.333 141.142  0.00  0.00    +0.000 C 
ATOM     53  C   UNL     1     106.074 125.489 140.789  0.00  0.00    +0.000 C 
ATOM     54  C   UNL     1     107.387 125.132 141.226  0.00  0.00    +0.000 C 
BRANCH  53  56
ATOM     55  O   UNL     1     105.367 126.678 141.147  0.00  0.00    +0.000 OA
ATOM     56  C   UNL     1     105.512 126.066 140.612  0.00  0.00    +0.000 C 
ENDBRANCH  53  56
ENDBRANCH  45  54
ENDBRANCH   8  45
TORSDOF 11
ENDMDL
