MODEL 1
REMARK VINA RESULT:      -9.8      0.000      0.000
REMARK  Name = 11968966
REMARK  4 active torsions:
REMARK  status: ('A' for Active; 'I' for Inactive)
REMARK    1  A    between atoms: O_2  and  C_18
REMARK    2  A    between atoms: O_2  and  C_20
REMARK    3  A    between atoms: C_17  and  C_19
REMARK    4  A    between atoms: C_21  and  C_25
REMARK                            x       y       z     vdW  Elec       q    Type
REMARK                         _______ _______ _______ _____ _____    ______ ____
ROOT
ATOM      1  O   UNL     1     105.488 124.483 147.807  0.00  0.00    +0.000 OA
ATOM      2  O   UNL     1     106.923 125.465 146.044  0.00  0.00    +0.000 OA
ATOM      3  O   UNL     1     108.075 125.408 146.911  0.00  0.00    +0.000 OA
ATOM      4  O   UNL     1     108.748 125.009 148.409  0.00  0.00    +0.000 OA
ATOM      5  O   UNL     1     107.769 124.339 149.612  0.00  0.00    +0.000 OA
ATOM      6  C   UNL     1     105.643 125.007 146.486  0.00  0.00    +0.000 A 
ATOM      7  C   UNL     1     105.164 124.680 147.073  0.00  0.00    +0.000 A 
ATOM      8  C   UNL     1     106.444 125.137 146.631  0.00  0.00    +0.000 A 
ATOM      9  C   UNL     1     106.768 124.940 147.365  0.00  0.00    +0.000 A 
ATOM     10  C   UNL     1     106.290 124.614 147.952  0.00  0.00    +0.000 A 
ATOM     11  C   UNL     1     107.604 125.081 147.504  0.00  0.00    +0.000 A 
ATOM     12  C   UNL     1     106.614 124.404 148.720  0.00  0.00    +0.000 A 
ATOM     13  C   UNL     1     107.947 124.878 148.266  0.00  0.00    +0.000 A 
ATOM     14  C   UNL     1     107.449 124.537 148.878  0.00  0.00    +0.000 A 
ENDROOT
BRANCH   7  17
ATOM     15  O   UNL     1     103.092 123.191 145.787  0.00  0.00    +0.000 OA
ATOM     16  O   UNL     1     101.958 124.160 146.492  0.00  0.00    +0.000 OA
ATOM     17  C   UNL     1     104.363 124.550 146.928  0.00  0.00    +0.000 A 
ATOM     18  C   UNL     1     104.128 123.936 146.430  0.00  0.00    +0.000 A 
ATOM     19  C   UNL     1     103.796 125.035 147.280  0.00  0.00    +0.000 A 
ATOM     20  C   UNL     1     103.327 123.806 146.285  0.00  0.00    +0.000 A 
ATOM     21  C   UNL     1     102.994 124.905 147.135  0.00  0.00    +0.000 A 
ATOM     22  C   UNL     1     102.760 124.290 146.637  0.00  0.00    +0.000 A 
ENDBRANCH   7  17
BRANCH   6  23
ATOM     23  O   UNL     1     105.320 125.204 145.753  0.00  0.00    +0.000 OA
BRANCH  23  32
ATOM     24  O   UNL     1     105.335 126.613 145.990  0.00  0.00    +0.000 OA
ATOM     25  O   UNL     1     105.665 127.018 143.571  0.00  0.00    +0.000 OA
ATOM     26  O   UNL     1     105.570 128.291 144.615  0.00  0.00    +0.000 OA
ATOM     27  O   UNL     1     105.540 125.474 144.140  0.00  0.00    +0.000 OA
ATOM     28  C   UNL     1     105.555 126.883 144.378  0.00  0.00    +0.000 C 
ATOM     29  C   UNL     1     105.507 127.520 144.900  0.00  0.00    +0.000 C 
ATOM     30  C   UNL     1     105.492 126.110 144.662  0.00  0.00    +0.000 C 
ATOM     31  C   UNL     1     105.397 127.385 145.705  0.00  0.00    +0.000 C 
ATOM     32  C   UNL     1     105.382 125.976 145.468  0.00  0.00    +0.000 C 
BRANCH  31  34
ATOM     33  O   UNL     1     104.743 128.051 146.788  0.00  0.00    +0.000 OA
ATOM     34  C   UNL     1     105.350 128.022 146.228  0.00  0.00    +0.000 C 
ENDBRANCH  31  34
ENDBRANCH  23  32
ENDBRANCH   6  23
TORSDOF 4
ENDMDL
MODEL 2
REMARK VINA RESULT:      -9.5      0.840      3.415
REMARK  Name = 11968966
REMARK  4 active torsions:
REMARK  status: ('A' for Active; 'I' for Inactive)
REMARK    1  A    between atoms: O_2  and  C_18
REMARK    2  A    between atoms: O_2  and  C_20
REMARK    3  A    between atoms: C_17  and  C_19
REMARK    4  A    between atoms: C_21  and  C_25
REMARK                            x       y       z     vdW  Elec       q    Type
REMARK                         _______ _______ _______ _____ _____    ______ ____
ROOT
ATOM      1  O   UNL     1     106.669 125.713 146.840  0.00  0.00    +0.000 OA
ATOM      2  O   UNL     1     104.848 124.759 148.220  0.00  0.00    +0.000 OA
ATOM      3  O   UNL     1     105.804 124.204 149.148  0.00  0.00    +0.000 OA
ATOM      4  O   UNL     1     107.412 123.971 149.612  0.00  0.00    +0.000 OA
ATOM      5  O   UNL     1     108.655 124.622 148.670  0.00  0.00    +0.000 OA
ATOM      6  C   UNL     1     105.275 125.505 147.078  0.00  0.00    +0.000 A 
ATOM      7  C   UNL     1     105.882 125.824 146.618  0.00  0.00    +0.000 A 
ATOM      8  C   UNL     1     105.455 125.077 147.759  0.00  0.00    +0.000 A 
ATOM      9  C   UNL     1     106.243 124.967 147.981  0.00  0.00    +0.000 A 
ATOM     10  C   UNL     1     106.849 125.284 147.522  0.00  0.00    +0.000 A 
ATOM     11  C   UNL     1     106.417 124.518 148.694  0.00  0.00    +0.000 A 
ATOM     12  C   UNL     1     107.672 125.177 147.742  0.00  0.00    +0.000 A 
ATOM     13  C   UNL     1     107.235 124.400 148.930  0.00  0.00    +0.000 A 
ATOM     14  C   UNL     1     107.867 124.731 148.451  0.00  0.00    +0.000 A 
ENDROOT
BRANCH   7  17
ATOM     15  O   UNL     1     105.733 125.995 143.769  0.00  0.00    +0.000 OA
ATOM     16  O   UNL     1     105.162 127.538 143.891  0.00  0.00    +0.000 OA
ATOM     17  C   UNL     1     105.702 126.252 145.937  0.00  0.00    +0.000 A 
ATOM     18  C   UNL     1     105.807 125.909 145.193  0.00  0.00    +0.000 A 
ATOM     19  C   UNL     1     105.416 127.023 145.998  0.00  0.00    +0.000 A 
ATOM     20  C   UNL     1     105.627 126.337 144.512  0.00  0.00    +0.000 A 
ATOM     21  C   UNL     1     105.236 127.452 145.316  0.00  0.00    +0.000 A 
ATOM     22  C   UNL     1     105.342 127.109 144.574  0.00  0.00    +0.000 A 
ENDBRANCH   7  17
BRANCH   6  23
ATOM     23  O   UNL     1     104.488 125.616 146.856  0.00  0.00    +0.000 OA
BRANCH  23  32
ATOM     24  O   UNL     1     104.286 124.298 146.343  0.00  0.00    +0.000 OA
ATOM     25  O   UNL     1     101.951 124.337 147.164  0.00  0.00    +0.000 OA
ATOM     26  O   UNL     1     102.527 123.007 146.377  0.00  0.00    +0.000 OA
ATOM     27  O   UNL     1     102.932 125.642 147.404  0.00  0.00    +0.000 OA
ATOM     28  C   UNL     1     102.729 124.324 146.890  0.00  0.00    +0.000 C 
ATOM     29  C   UNL     1     103.017 123.659 146.497  0.00  0.00    +0.000 C 
ATOM     30  C   UNL     1     103.220 124.977 147.010  0.00  0.00    +0.000 C 
ATOM     31  C   UNL     1     103.795 123.646 146.223  0.00  0.00    +0.000 C 
ATOM     32  C   UNL     1     103.997 124.964 146.737  0.00  0.00    +0.000 C 
BRANCH  31  34
ATOM     33  O   UNL     1     104.376 123.051 145.061  0.00  0.00    +0.000 OA
ATOM     34  C   UNL     1     104.083 122.981 145.830  0.00  0.00    +0.000 C 
ENDBRANCH  31  34
ENDBRANCH  23  32
ENDBRANCH   6  23
TORSDOF 4
ENDMDL
MODEL 3
REMARK VINA RESULT:      -9.5     11.574     12.869
REMARK  Name = 11968966
REMARK  4 active torsions:
REMARK  status: ('A' for Active; 'I' for Inactive)
REMARK    1  A    between atoms: O_2  and  C_18
REMARK    2  A    between atoms: O_2  and  C_20
REMARK    3  A    between atoms: C_17  and  C_19
REMARK    4  A    between atoms: C_21  and  C_25
REMARK                            x       y       z     vdW  Elec       q    Type
REMARK                         _______ _______ _______ _____ _____    ______ ____
ROOT
ATOM      1  O   UNL     1     111.922 125.691 136.105  0.00  0.00    +0.000 OA
ATOM      2  O   UNL     1     111.301 127.879 137.083  0.00  0.00    +0.000 OA
ATOM      3  O   UNL     1     110.054 127.881 136.359  0.00  0.00    +0.000 OA
ATOM      4  O   UNL     1     108.999 127.120 135.280  0.00  0.00    +0.000 OA
ATOM      5  O   UNL     1     109.423 125.627 134.612  0.00  0.00    +0.000 OA
ATOM      6  C   UNL     1     112.226 126.797 136.959  0.00  0.00    +0.000 A 
ATOM      7  C   UNL     1     112.434 126.068 136.633  0.00  0.00    +0.000 A 
ATOM      8  C   UNL     1     111.509 127.150 136.758  0.00  0.00    +0.000 A 
ATOM      9  C   UNL     1     110.997 126.773 136.230  0.00  0.00    +0.000 A 
ATOM     10  C   UNL     1     111.204 126.045 135.904  0.00  0.00    +0.000 A 
ATOM     11  C   UNL     1     110.252 127.151 136.028  0.00  0.00    +0.000 A 
ATOM     12  C   UNL     1     110.681 125.643 135.354  0.00  0.00    +0.000 A 
ATOM     13  C   UNL     1     109.716 126.764 135.479  0.00  0.00    +0.000 A 
ATOM     14  C   UNL     1     109.932 126.005 135.140  0.00  0.00    +0.000 A 
ENDROOT
BRANCH   7  17
ATOM     15  O   UNL     1     115.119 125.358 135.958  0.00  0.00    +0.000 OA
ATOM     16  O   UNL     1     115.305 124.655 137.439  0.00  0.00    +0.000 OA
ATOM     17  C   UNL     1     113.151 125.715 136.834  0.00  0.00    +0.000 A 
ATOM     18  C   UNL     1     113.776 125.713 136.296  0.00  0.00    +0.000 A 
ATOM     19  C   UNL     1     113.244 125.363 137.575  0.00  0.00    +0.000 A 
ATOM     20  C   UNL     1     114.494 125.360 136.497  0.00  0.00    +0.000 A 
ATOM     21  C   UNL     1     113.963 125.010 137.777  0.00  0.00    +0.000 A 
ATOM     22  C   UNL     1     114.587 125.008 137.237  0.00  0.00    +0.000 A 
ENDBRANCH   7  17
BRANCH   6  23
ATOM     23  O   UNL     1     112.737 127.173 137.486  0.00  0.00    +0.000 OA
BRANCH  23  32
ATOM     24  O   UNL     1     113.194 128.155 136.554  0.00  0.00    +0.000 OA
ATOM     25  O   UNL     1     113.431 129.792 138.396  0.00  0.00    +0.000 OA
ATOM     26  O   UNL     1     113.809 130.228 136.851  0.00  0.00    +0.000 OA
ATOM     27  O   UNL     1     112.895 128.264 138.714  0.00  0.00    +0.000 OA
ATOM     28  C   UNL     1     113.352 129.246 137.782  0.00  0.00    +0.000 C 
ATOM     29  C   UNL     1     113.541 129.464 137.009  0.00  0.00    +0.000 C 
ATOM     30  C   UNL     1     113.084 128.482 137.941  0.00  0.00    +0.000 C 
ATOM     31  C   UNL     1     113.462 128.919 136.396  0.00  0.00    +0.000 C 
ATOM     32  C   UNL     1     113.005 127.937 137.328  0.00  0.00    +0.000 C 
BRANCH  31  34
ATOM     33  O   UNL     1     114.260 128.749 135.223  0.00  0.00    +0.000 OA
ATOM     34  C   UNL     1     113.651 129.137 135.623  0.00  0.00    +0.000 C 
ENDBRANCH  31  34
ENDBRANCH  23  32
ENDBRANCH   6  23
TORSDOF 4
ENDMDL
MODEL 4
REMARK VINA RESULT:      -9.5     10.991     12.635
REMARK  Name = 11968966
REMARK  4 active torsions:
REMARK  status: ('A' for Active; 'I' for Inactive)
REMARK    1  A    between atoms: O_2  and  C_18
REMARK    2  A    between atoms: O_2  and  C_20
REMARK    3  A    between atoms: C_17  and  C_19
REMARK    4  A    between atoms: C_21  and  C_25
REMARK                            x       y       z     vdW  Elec       q    Type
REMARK                         _______ _______ _______ _____ _____    ______ ____
ROOT
ATOM      1  O   UNL     1     111.775 129.516 135.802  0.00  0.00    +0.000 OA
ATOM      2  O   UNL     1     112.322 130.769 137.866  0.00  0.00    +0.000 OA
ATOM      3  O   UNL     1     113.709 130.860 137.478  0.00  0.00    +0.000 OA
ATOM      4  O   UNL     1     114.930 130.516 136.362  0.00  0.00    +0.000 OA
ATOM      5  O   UNL     1     114.557 129.661 134.953  0.00  0.00    +0.000 OA
ATOM      6  C   UNL     1     111.365 130.105 137.039  0.00  0.00    +0.000 A 
ATOM      7  C   UNL     1     111.182 129.687 136.351  0.00  0.00    +0.000 A 
ATOM      8  C   UNL     1     112.139 130.351 137.178  0.00  0.00    +0.000 A 
ATOM      9  C   UNL     1     112.732 130.180 136.629  0.00  0.00    +0.000 A 
ATOM     10  C   UNL     1     112.550 129.763 135.942  0.00  0.00    +0.000 A 
ATOM     11  C   UNL     1     113.535 130.443 136.787  0.00  0.00    +0.000 A 
ATOM     12  C   UNL     1     113.157 129.579 135.363  0.00  0.00    +0.000 A 
ATOM     13  C   UNL     1     114.156 130.268 136.219  0.00  0.00    +0.000 A 
ATOM     14  C   UNL     1     113.967 129.833 135.503  0.00  0.00    +0.000 A 
ENDROOT
BRANCH   7  17
ATOM     15  O   UNL     1     108.698 129.991 134.970  0.00  0.00    +0.000 OA
ATOM     16  O   UNL     1     108.083 128.699 135.792  0.00  0.00    +0.000 OA
ATOM     17  C   UNL     1     110.408 129.440 136.211  0.00  0.00    +0.000 A 
ATOM     18  C   UNL     1     109.940 129.839 135.661  0.00  0.00    +0.000 A 
ATOM     19  C   UNL     1     110.101 128.794 136.622  0.00  0.00    +0.000 A 
ATOM     20  C   UNL     1     109.166 129.592 135.521  0.00  0.00    +0.000 A 
ATOM     21  C   UNL     1     109.325 128.547 136.482  0.00  0.00    +0.000 A 
ATOM     22  C   UNL     1     108.859 128.946 135.932  0.00  0.00    +0.000 A 
ENDBRANCH   7  17
BRANCH   6  23
ATOM     23  O   UNL     1     110.773 130.275 137.587  0.00  0.00    +0.000 OA
BRANCH  23  32
ATOM     24  O   UNL     1     110.667 131.655 137.232  0.00  0.00    +0.000 OA
ATOM     25  O   UNL     1     110.064 132.210 139.567  0.00  0.00    +0.000 OA
ATOM     26  O   UNL     1     110.159 133.404 138.434  0.00  0.00    +0.000 OA
ATOM     27  O   UNL     1     110.371 130.645 139.144  0.00  0.00    +0.000 OA
ATOM     28  C   UNL     1     110.265 132.025 138.789  0.00  0.00    +0.000 C 
ATOM     29  C   UNL     1     110.313 132.622 138.222  0.00  0.00    +0.000 C 
ATOM     30  C   UNL     1     110.419 131.242 138.577  0.00  0.00    +0.000 C 
ATOM     31  C   UNL     1     110.513 132.437 137.444  0.00  0.00    +0.000 C 
ATOM     32  C   UNL     1     110.619 131.057 137.799  0.00  0.00    +0.000 C 
BRANCH  31  34
ATOM     33  O   UNL     1     110.044 133.034 136.233  0.00  0.00    +0.000 OA
ATOM     34  C   UNL     1     110.561 133.034 136.877  0.00  0.00    +0.000 C 
ENDBRANCH  31  34
ENDBRANCH  23  32
ENDBRANCH   6  23
TORSDOF 4
ENDMDL
MODEL 5
REMARK VINA RESULT:      -9.5      9.653     11.745
REMARK  Name = 11968966
REMARK  4 active torsions:
REMARK  status: ('A' for Active; 'I' for Inactive)
REMARK    1  A    between atoms: O_2  and  C_18
REMARK    2  A    between atoms: O_2  and  C_20
REMARK    3  A    between atoms: C_17  and  C_19
REMARK    4  A    between atoms: C_21  and  C_25
REMARK                            x       y       z     vdW  Elec       q    Type
REMARK                         _______ _______ _______ _____ _____    ______ ____
ROOT
ATOM      1  O   UNL     1     112.890 126.056 138.600  0.00  0.00    +0.000 OA
ATOM      2  O   UNL     1     110.585 125.670 137.783  0.00  0.00    +0.000 OA
ATOM      3  O   UNL     1     110.035 126.126 139.036  0.00  0.00    +0.000 OA
ATOM      4  O   UNL     1     110.278 126.726 140.598  0.00  0.00    +0.000 OA
ATOM      5  O   UNL     1     111.851 126.989 141.155  0.00  0.00    +0.000 OA
ATOM      6  C   UNL     1     111.997 125.635 137.566  0.00  0.00    +0.000 A 
ATOM      7  C   UNL     1     112.766 125.763 137.837  0.00  0.00    +0.000 A 
ATOM      8  C   UNL     1     111.354 125.798 138.055  0.00  0.00    +0.000 A 
ATOM      9  C   UNL     1     111.479 126.091 138.817  0.00  0.00    +0.000 A 
ATOM     10  C   UNL     1     112.246 126.219 139.089  0.00  0.00    +0.000 A 
ATOM     11  C   UNL     1     110.800 126.258 139.317  0.00  0.00    +0.000 A 
ATOM     12  C   UNL     1     112.390 126.524 139.879  0.00  0.00    +0.000 A 
ATOM     13  C   UNL     1     110.923 126.563 140.111  0.00  0.00    +0.000 A 
ATOM     14  C   UNL     1     111.723 126.697 140.394  0.00  0.00    +0.000 A 
ENDROOT
BRANCH   7  17
ATOM     15  O   UNL     1     114.854 126.667 136.108  0.00  0.00    +0.000 OA
ATOM     16  O   UNL     1     115.341 125.107 135.881  0.00  0.00    +0.000 OA
ATOM     17  C   UNL     1     113.409 125.599 137.349  0.00  0.00    +0.000 A 
ATOM     18  C   UNL     1     113.810 126.215 136.973  0.00  0.00    +0.000 A 
ATOM     19  C   UNL     1     113.653 124.819 137.235  0.00  0.00    +0.000 A 
ATOM     20  C   UNL     1     114.453 126.051 136.484  0.00  0.00    +0.000 A 
ATOM     21  C   UNL     1     114.297 124.655 136.746  0.00  0.00    +0.000 A 
ATOM     22  C   UNL     1     114.697 125.271 136.370  0.00  0.00    +0.000 A 
ENDBRANCH   7  17
BRANCH   6  23
ATOM     23  O   UNL     1     111.873 125.342 136.805  0.00  0.00    +0.000 OA
BRANCH  23  32
ATOM     24  O   UNL     1     111.456 126.598 136.264  0.00  0.00    +0.000 OA
ATOM     25  O   UNL     1     109.995 125.419 134.652  0.00  0.00    +0.000 OA
ATOM     26  O   UNL     1     110.065 127.066 134.649  0.00  0.00    +0.000 OA
ATOM     27  O   UNL     1     110.899 124.556 135.730  0.00  0.00    +0.000 OA
ATOM     28  C   UNL     1     110.482 125.812 135.189  0.00  0.00    +0.000 C 
ATOM     29  C   UNL     1     110.517 126.636 135.188  0.00  0.00    +0.000 C 
ATOM     30  C   UNL     1     110.934 125.380 135.729  0.00  0.00    +0.000 C 
ATOM     31  C   UNL     1     111.004 127.028 135.725  0.00  0.00    +0.000 C 
ATOM     32  C   UNL     1     111.421 125.773 136.266  0.00  0.00    +0.000 C 
BRANCH  31  34
ATOM     33  O   UNL     1     111.751 128.234 135.553  0.00  0.00    +0.000 OA
ATOM     34  C   UNL     1     111.039 127.852 135.725  0.00  0.00    +0.000 C 
ENDBRANCH  31  34
ENDBRANCH  23  32
ENDBRANCH   6  23
TORSDOF 4
ENDMDL
MODEL 6
REMARK VINA RESULT:      -9.5      9.873     12.121
REMARK  Name = 11968966
REMARK  4 active torsions:
REMARK  status: ('A' for Active; 'I' for Inactive)
REMARK    1  A    between atoms: O_2  and  C_18
REMARK    2  A    between atoms: O_2  and  C_20
REMARK    3  A    between atoms: C_17  and  C_19
REMARK    4  A    between atoms: C_21  and  C_25
REMARK                            x       y       z     vdW  Elec       q    Type
REMARK                         _______ _______ _______ _____ _____    ______ ____
ROOT
ATOM      1  O   UNL     1     113.529 127.338 136.663  0.00  0.00    +0.000 OA
ATOM      2  O   UNL     1     112.096 128.234 138.472  0.00  0.00    +0.000 OA
ATOM      3  O   UNL     1     112.303 129.584 138.007  0.00  0.00    +0.000 OA
ATOM      4  O   UNL     1     113.015 130.647 136.903  0.00  0.00    +0.000 OA
ATOM      5  O   UNL     1     113.993 130.036 135.668  0.00  0.00    +0.000 OA
ATOM      6  C   UNL     1     112.701 127.123 137.808  0.00  0.00    +0.000 A 
ATOM      7  C   UNL     1     113.178 126.823 137.206  0.00  0.00    +0.000 A 
ATOM      8  C   UNL     1     112.573 127.935 137.869  0.00  0.00    +0.000 A 
ATOM      9  C   UNL     1     112.923 128.450 137.327  0.00  0.00    +0.000 A 
ATOM     10  C   UNL     1     113.400 128.151 136.724  0.00  0.00    +0.000 A 
ATOM     11  C   UNL     1     112.782 129.294 137.401  0.00  0.00    +0.000 A 
ATOM     12  C   UNL     1     113.771 128.676 136.154  0.00  0.00    +0.000 A 
ATOM     13  C   UNL     1     113.144 129.834 136.839  0.00  0.00    +0.000 A 
ATOM     14  C   UNL     1     113.642 129.524 136.211  0.00  0.00    +0.000 A 
ENDROOT
BRANCH   7  17
ATOM     15  O   UNL     1     114.890 124.556 137.521  0.00  0.00    +0.000 OA
ATOM     16  O   UNL     1     113.689 123.572 136.961  0.00  0.00    +0.000 OA
ATOM     17  C   UNL     1     113.306 126.011 137.144  0.00  0.00    +0.000 A 
ATOM     18  C   UNL     1     114.034 125.690 137.363  0.00  0.00    +0.000 A 
ATOM     19  C   UNL     1     112.706 125.519 136.864  0.00  0.00    +0.000 A 
ATOM     20  C   UNL     1     114.162 124.878 137.302  0.00  0.00    +0.000 A 
ATOM     21  C   UNL     1     112.834 124.706 136.803  0.00  0.00    +0.000 A 
ATOM     22  C   UNL     1     113.562 124.386 137.022  0.00  0.00    +0.000 A 
ENDBRANCH   7  17
BRANCH   6  23
ATOM     23  O   UNL     1     112.351 126.608 138.350  0.00  0.00    +0.000 OA
BRANCH  23  32
ATOM     24  O   UNL     1     113.245 126.949 139.412  0.00  0.00    +0.000 OA
ATOM     25  O   UNL     1     111.477 126.433 141.066  0.00  0.00    +0.000 OA
ATOM     26  O   UNL     1     112.959 126.946 141.575  0.00  0.00    +0.000 OA
ATOM     27  O   UNL     1     111.173 126.264 139.453  0.00  0.00    +0.000 OA
ATOM     28  C   UNL     1     112.066 126.605 140.514  0.00  0.00    +0.000 C 
ATOM     29  C   UNL     1     112.808 126.862 140.769  0.00  0.00    +0.000 C 
ATOM     30  C   UNL     1     111.914 126.521 139.707  0.00  0.00    +0.000 C 
ATOM     31  C   UNL     1     113.396 127.034 140.218  0.00  0.00    +0.000 C 
ATOM     32  C   UNL     1     112.503 126.693 139.157  0.00  0.00    +0.000 C 
BRANCH  31  34
ATOM     33  O   UNL     1     114.799 126.808 140.368  0.00  0.00    +0.000 OA
ATOM     34  C   UNL     1     114.137 127.291 140.473  0.00  0.00    +0.000 C 
ENDBRANCH  31  34
ENDBRANCH  23  32
ENDBRANCH   6  23
TORSDOF 4
ENDMDL
MODEL 7
REMARK VINA RESULT:      -9.5      1.082      3.734
REMARK  Name = 11968966
REMARK  4 active torsions:
REMARK  status: ('A' for Active; 'I' for Inactive)
REMARK    1  A    between atoms: O_2  and  C_18
REMARK    2  A    between atoms: O_2  and  C_20
REMARK    3  A    between atoms: C_17  and  C_19
REMARK    4  A    between atoms: C_21  and  C_25
REMARK                            x       y       z     vdW  Elec       q    Type
REMARK                         _______ _______ _______ _____ _____    ______ ____
ROOT
ATOM      1  O   UNL     1     103.943 124.494 148.300  0.00  0.00    +0.000 OA
ATOM      2  O   UNL     1     104.022 124.320 145.832  0.00  0.00    +0.000 OA
ATOM      3  O   UNL     1     102.597 124.103 145.773  0.00  0.00    +0.000 OA
ATOM      4  O   UNL     1     101.117 123.944 146.575  0.00  0.00    +0.000 OA
ATOM      5  O   UNL     1     101.063 124.063 148.259  0.00  0.00    +0.000 OA
ATOM      6  C   UNL     1     104.689 124.513 147.080  0.00  0.00    +0.000 A 
ATOM      7  C   UNL     1     104.664 124.571 147.903  0.00  0.00    +0.000 A 
ATOM      8  C   UNL     1     103.996 124.378 146.654  0.00  0.00    +0.000 A 
ATOM      9  C   UNL     1     103.276 124.301 147.051  0.00  0.00    +0.000 A 
ATOM     10  C   UNL     1     103.250 124.359 147.873  0.00  0.00    +0.000 A 
ATOM     11  C   UNL     1     102.561 124.160 146.596  0.00  0.00    +0.000 A 
ATOM     12  C   UNL     1     102.508 124.281 148.298  0.00  0.00    +0.000 A 
ATOM     13  C   UNL     1     101.809 124.079 147.003  0.00  0.00    +0.000 A 
ATOM     14  C   UNL     1     101.781 124.139 147.860  0.00  0.00    +0.000 A 
ENDROOT
BRANCH   7  17
ATOM     15  O   UNL     1     106.261 126.268 149.557  0.00  0.00    +0.000 OA
ATOM     16  O   UNL     1     107.437 125.112 149.609  0.00  0.00    +0.000 OA
ATOM     17  C   UNL     1     105.356 124.707 148.329  0.00  0.00    +0.000 A 
ATOM     18  C   UNL     1     105.462 125.420 148.730  0.00  0.00    +0.000 A 
ATOM     19  C   UNL     1     105.944 124.128 148.355  0.00  0.00    +0.000 A 
ATOM     20  C   UNL     1     106.155 125.555 149.156  0.00  0.00    +0.000 A 
ATOM     21  C   UNL     1     106.638 124.263 148.781  0.00  0.00    +0.000 A 
ATOM     22  C   UNL     1     106.743 124.977 149.182  0.00  0.00    +0.000 A 
ENDBRANCH   7  17
BRANCH   6  23
ATOM     23  O   UNL     1     105.408 124.590 146.684  0.00  0.00    +0.000 OA
BRANCH  23  32
ATOM     24  O   UNL     1     105.184 125.934 146.254  0.00  0.00    +0.000 OA
ATOM     25  O   UNL     1     106.459 125.484 144.181  0.00  0.00    +0.000 OA
ATOM     26  O   UNL     1     105.810 126.977 144.442  0.00  0.00    +0.000 OA
ATOM     27  O   UNL     1     106.258 124.290 145.302  0.00  0.00    +0.000 OA
ATOM     28  C   UNL     1     106.034 125.634 144.872  0.00  0.00    +0.000 C 
ATOM     29  C   UNL     1     105.710 126.381 145.003  0.00  0.00    +0.000 C 
ATOM     30  C   UNL     1     105.934 125.037 145.433  0.00  0.00    +0.000 C 
ATOM     31  C   UNL     1     105.285 126.531 145.693  0.00  0.00    +0.000 C 
ATOM     32  C   UNL     1     105.509 125.187 146.123  0.00  0.00    +0.000 C 
BRANCH  31  34
ATOM     33  O   UNL     1     105.316 127.793 146.362  0.00  0.00    +0.000 OA
ATOM     34  C   UNL     1     104.960 127.278 145.824  0.00  0.00    +0.000 C 
ENDBRANCH  31  34
ENDBRANCH  23  32
ENDBRANCH   6  23
TORSDOF 4
ENDMDL
MODEL 8
REMARK VINA RESULT:      -9.4      1.443      4.201
REMARK  Name = 11968966
REMARK  4 active torsions:
REMARK  status: ('A' for Active; 'I' for Inactive)
REMARK    1  A    between atoms: O_2  and  C_18
REMARK    2  A    between atoms: O_2  and  C_20
REMARK    3  A    between atoms: C_17  and  C_19
REMARK    4  A    between atoms: C_21  and  C_25
REMARK                            x       y       z     vdW  Elec       q    Type
REMARK                         _______ _______ _______ _____ _____    ______ ____
ROOT
ATOM      1  O   UNL     1     103.739 125.780 147.359  0.00  0.00    +0.000 OA
ATOM      2  O   UNL     1     105.687 124.494 146.534  0.00  0.00    +0.000 OA
ATOM      3  O   UNL     1     104.833 123.403 146.133  0.00  0.00    +0.000 OA
ATOM      4  O   UNL     1     103.284 122.739 146.013  0.00  0.00    +0.000 OA
ATOM      5  O   UNL     1     101.954 123.616 146.576  0.00  0.00    +0.000 OA
ATOM      6  C   UNL     1     105.148 125.670 147.140  0.00  0.00    +0.000 A 
ATOM      7  C   UNL     1     104.499 126.099 147.416  0.00  0.00    +0.000 A 
ATOM      8  C   UNL     1     105.038 124.923 146.809  0.00  0.00    +0.000 A 
ATOM      9  C   UNL     1     104.279 124.604 146.753  0.00  0.00    +0.000 A 
ATOM     10  C   UNL     1     103.630 125.032 147.028  0.00  0.00    +0.000 A 
ATOM     11  C   UNL     1     104.178 123.824 146.406  0.00  0.00    +0.000 A 
ATOM     12  C   UNL     1     102.835 124.711 146.975  0.00  0.00    +0.000 A 
ATOM     13  C   UNL     1     103.390 123.487 146.344  0.00  0.00    +0.000 A 
ATOM     14  C   UNL     1     102.714 123.933 146.631  0.00  0.00    +0.000 A 
ENDROOT
BRANCH   7  17
ATOM     15  O   UNL     1     105.057 128.885 147.109  0.00  0.00    +0.000 OA
ATOM     16  O   UNL     1     104.936 129.089 148.742  0.00  0.00    +0.000 OA
ATOM     17  C   UNL     1     104.608 126.846 147.747  0.00  0.00    +0.000 A 
ATOM     18  C   UNL     1     104.778 127.492 147.263  0.00  0.00    +0.000 A 
ATOM     19  C   UNL     1     104.547 126.948 148.563  0.00  0.00    +0.000 A 
ATOM     20  C   UNL     1     104.887 128.239 147.594  0.00  0.00    +0.000 A 
ATOM     21  C   UNL     1     104.657 127.696 148.895  0.00  0.00    +0.000 A 
ATOM     22  C   UNL     1     104.827 128.341 148.410  0.00  0.00    +0.000 A 
ENDBRANCH   7  17
BRANCH   6  23
ATOM     23  O   UNL     1     105.906 125.989 147.197  0.00  0.00    +0.000 OA
BRANCH  23  32
ATOM     24  O   UNL     1     106.285 125.228 148.345  0.00  0.00    +0.000 OA
ATOM     25  O   UNL     1     108.626 125.183 147.544  0.00  0.00    +0.000 OA
ATOM     26  O   UNL     1     108.224 124.437 148.958  0.00  0.00    +0.000 OA
ATOM     27  O   UNL     1     107.467 125.959 146.662  0.00  0.00    +0.000 OA
ATOM     28  C   UNL     1     107.845 125.198 147.811  0.00  0.00    +0.000 C 
ATOM     29  C   UNL     1     107.644 124.825 148.518  0.00  0.00    +0.000 C 
ATOM     30  C   UNL     1     107.265 125.586 147.370  0.00  0.00    +0.000 C 
ATOM     31  C   UNL     1     106.864 124.840 148.785  0.00  0.00    +0.000 C 
ATOM     32  C   UNL     1     106.486 125.601 147.637  0.00  0.00    +0.000 C 
BRANCH  31  34
ATOM     33  O   UNL     1     106.239 123.758 149.479  0.00  0.00    +0.000 OA
ATOM     34  C   UNL     1     106.663 124.467 149.492  0.00  0.00    +0.000 C 
ENDBRANCH  31  34
ENDBRANCH  23  32
ENDBRANCH   6  23
TORSDOF 4
ENDMDL
MODEL 9
REMARK VINA RESULT:      -9.4     10.904     12.191
REMARK  Name = 11968966
REMARK  4 active torsions:
REMARK  status: ('A' for Active; 'I' for Inactive)
REMARK    1  A    between atoms: O_2  and  C_18
REMARK    2  A    between atoms: O_2  and  C_20
REMARK    3  A    between atoms: C_17  and  C_19
REMARK    4  A    between atoms: C_21  and  C_25
REMARK                            x       y       z     vdW  Elec       q    Type
REMARK                         _______ _______ _______ _____ _____    ______ ____
ROOT
ATOM      1  O   UNL     1     110.987 125.893 136.288  0.00  0.00    +0.000 OA
ATOM      2  O   UNL     1     113.302 126.771 136.264  0.00  0.00    +0.000 OA
ATOM      3  O   UNL     1     113.828 125.472 136.606  0.00  0.00    +0.000 OA
ATOM      4  O   UNL     1     113.557 123.843 136.963  0.00  0.00    +0.000 OA
ATOM      5  O   UNL     1     111.978 123.243 136.979  0.00  0.00    +0.000 OA
ATOM      6  C   UNL     1     111.897 126.981 136.107  0.00  0.00    +0.000 A 
ATOM      7  C   UNL     1     111.125 126.689 136.114  0.00  0.00    +0.000 A 
ATOM      8  C   UNL     1     112.530 126.479 136.272  0.00  0.00    +0.000 A 
ATOM      9  C   UNL     1     112.392 125.684 136.446  0.00  0.00    +0.000 A 
ATOM     10  C   UNL     1     111.621 125.392 136.454  0.00  0.00    +0.000 A 
ATOM     11  C   UNL     1     113.060 125.171 136.617  0.00  0.00    +0.000 A 
ATOM     12  C   UNL     1     111.463 124.566 136.633  0.00  0.00    +0.000 A 
ATOM     13  C   UNL     1     112.922 124.343 136.798  0.00  0.00    +0.000 A 
ATOM     14  C   UNL     1     112.119 124.038 136.806  0.00  0.00    +0.000 A 
ENDROOT
BRANCH   7  17
ATOM     15  O   UNL     1     108.874 128.210 137.002  0.00  0.00    +0.000 OA
ATOM     16  O   UNL     1     108.592 128.697 135.451  0.00  0.00    +0.000 OA
ATOM     17  C   UNL     1     110.492 127.191 135.949  0.00  0.00    +0.000 A 
ATOM     18  C   UNL     1     110.000 127.449 136.558  0.00  0.00    +0.000 A 
ATOM     19  C   UNL     1     110.351 127.434 135.174  0.00  0.00    +0.000 A 
ATOM     20  C   UNL     1     109.367 127.951 136.393  0.00  0.00    +0.000 A 
ATOM     21  C   UNL     1     109.717 127.937 135.007  0.00  0.00    +0.000 A 
ATOM     22  C   UNL     1     109.225 128.195 135.617  0.00  0.00    +0.000 A 
ENDBRANCH   7  17
BRANCH   6  23
ATOM     23  O   UNL     1     112.035 127.776 135.933  0.00  0.00    +0.000 OA
BRANCH  23  32
ATOM     24  O   UNL     1     112.318 128.145 137.284  0.00  0.00    +0.000 OA
ATOM     25  O   UNL     1     113.869 129.898 136.480  0.00  0.00    +0.000 OA
ATOM     26  O   UNL     1     113.635 129.683 138.098  0.00  0.00    +0.000 OA
ATOM     27  O   UNL     1     113.069 128.944 135.397  0.00  0.00    +0.000 OA
ATOM     28  C   UNL     1     113.352 129.314 136.748  0.00  0.00    +0.000 C 
ATOM     29  C   UNL     1     113.235 129.206 137.557  0.00  0.00    +0.000 C 
ATOM     30  C   UNL     1     112.952 128.837 136.206  0.00  0.00    +0.000 C 
ATOM     31  C   UNL     1     112.718 128.623 137.825  0.00  0.00    +0.000 C 
ATOM     32  C   UNL     1     112.435 128.253 136.474  0.00  0.00    +0.000 C 
BRANCH  31  34
ATOM     33  O   UNL     1     111.849 128.619 138.959  0.00  0.00    +0.000 OA
ATOM     34  C   UNL     1     112.601 128.515 138.634  0.00  0.00    +0.000 C 
ENDBRANCH  31  34
ENDBRANCH  23  32
ENDBRANCH   6  23
TORSDOF 4
ENDMDL
MODEL 10
REMARK VINA RESULT:      -9.3     10.790     11.726
REMARK  Name = 11968966
REMARK  4 active torsions:
REMARK  status: ('A' for Active; 'I' for Inactive)
REMARK    1  A    between atoms: O_2  and  C_18
REMARK    2  A    between atoms: O_2  and  C_20
REMARK    3  A    between atoms: C_17  and  C_19
REMARK    4  A    between atoms: C_21  and  C_25
REMARK                            x       y       z     vdW  Elec       q    Type
REMARK                         _______ _______ _______ _____ _____    ______ ____
ROOT
ATOM      1  O   UNL     1     113.320 126.093 138.930  0.00  0.00    +0.000 OA
ATOM      2  O   UNL     1     112.382 128.332 138.446  0.00  0.00    +0.000 OA
ATOM      3  O   UNL     1     113.080 128.900 139.574  0.00  0.00    +0.000 OA
ATOM      4  O   UNL     1     114.118 128.698 140.892  0.00  0.00    +0.000 OA
ATOM      5  O   UNL     1     114.758 127.169 141.223  0.00  0.00    +0.000 OA
ATOM      6  C   UNL     1     112.500 126.945 138.127  0.00  0.00    +0.000 A 
ATOM      7  C   UNL     1     112.812 126.198 138.288  0.00  0.00    +0.000 A 
ATOM      8  C   UNL     1     112.694 127.586 138.607  0.00  0.00    +0.000 A 
ATOM      9  C   UNL     1     113.202 127.481 139.250  0.00  0.00    +0.000 A 
ATOM     10  C   UNL     1     113.514 126.735 139.411  0.00  0.00    +0.000 A 
ATOM     11  C   UNL     1     113.398 128.157 139.743  0.00  0.00    +0.000 A 
ATOM     12  C   UNL     1     114.044 126.613 140.076  0.00  0.00    +0.000 A 
ATOM     13  C   UNL     1     113.925 128.054 140.413  0.00  0.00    +0.000 A 
ATOM     14  C   UNL     1     114.251 127.277 140.581  0.00  0.00    +0.000 A 
ENDROOT
BRANCH   7  17
ATOM     15  O   UNL     1     113.539 124.297 136.281  0.00  0.00    +0.000 OA
ATOM     16  O   UNL     1     112.032 123.631 136.366  0.00  0.00    +0.000 OA
ATOM     17  C   UNL     1     112.617 125.557 137.807  0.00  0.00    +0.000 A 
ATOM     18  C   UNL     1     113.176 125.247 137.284  0.00  0.00    +0.000 A 
ATOM     19  C   UNL     1     111.864 125.224 137.850  0.00  0.00    +0.000 A 
ATOM     20  C   UNL     1     112.981 124.606 136.804  0.00  0.00    +0.000 A 
ATOM     21  C   UNL     1     111.669 124.581 137.369  0.00  0.00    +0.000 A 
ATOM     22  C   UNL     1     112.228 124.273 136.846  0.00  0.00    +0.000 A 
ENDBRANCH   7  17
BRANCH   6  23
ATOM     23  O   UNL     1     111.992 127.049 137.484  0.00  0.00    +0.000 OA
BRANCH  23  32
ATOM     24  O   UNL     1     112.968 127.722 136.685  0.00  0.00    +0.000 OA
ATOM     25  O   UNL     1     111.167 128.981 135.547  0.00  0.00    +0.000 OA
ATOM     26  O   UNL     1     112.742 129.233 135.128  0.00  0.00    +0.000 OA
ATOM     27  O   UNL     1     110.792 127.889 136.725  0.00  0.00    +0.000 OA
ATOM     28  C   UNL     1     111.767 128.561 135.926  0.00  0.00    +0.000 C 
ATOM     29  C   UNL     1     112.555 128.687 135.717  0.00  0.00    +0.000 C 
ATOM     30  C   UNL     1     111.580 128.014 136.516  0.00  0.00    +0.000 C 
ATOM     31  C   UNL     1     113.155 128.268 136.096  0.00  0.00    +0.000 C 
ATOM     32  C   UNL     1     112.179 127.595 136.895  0.00  0.00    +0.000 C 
BRANCH  31  34
ATOM     33  O   UNL     1     114.415 127.757 135.658  0.00  0.00    +0.000 OA
ATOM     34  C   UNL     1     113.943 128.394 135.887  0.00  0.00    +0.000 C 
ENDBRANCH  31  34
ENDBRANCH  23  32
ENDBRANCH   6  23
TORSDOF 4
ENDMDL
