MODEL 1
REMARK VINA RESULT:      -8.1      0.000      0.000
REMARK  Name = 155493
REMARK  4 active torsions:
REMARK  status: ('A' for Active; 'I' for Inactive)
REMARK    1  A    between atoms: O_2  and  C_11
REMARK    2  A    between atoms: O_3  and  C_14
REMARK    3  A    between atoms: O_4  and  C_15
REMARK    4  A    between atoms: C_13  and  C_18
REMARK                            x       y       z     vdW  Elec       q    Type
REMARK                         _______ _______ _______ _____ _____    ______ ____
ROOT
ATOM      1  O   UNL     1     104.667 124.271 147.135  0.00  0.00    +0.000 OA
ATOM      2  O   UNL     1     106.931 125.457 145.776  0.00  0.00    +0.000 OA
ATOM      3  O   UNL     1     105.784 125.049 145.001  0.00  0.00    +0.000 OA
ATOM      4  C   UNL     1     105.815 124.871 146.449  0.00  0.00    +0.000 A 
ATOM      5  C   UNL     1     105.452 124.618 147.147  0.00  0.00    +0.000 A 
ATOM      6  C   UNL     1     105.846 124.698 147.868  0.00  0.00    +0.000 A 
ATOM      7  C   UNL     1     106.569 125.204 146.474  0.00  0.00    +0.000 A 
ATOM      8  C   UNL     1     104.252 124.185 146.387  0.00  0.00    +0.000 A 
ATOM      9  C   UNL     1     106.600 125.030 147.892  0.00  0.00    +0.000 A 
ATOM     10  C   UNL     1     106.962 125.284 147.194  0.00  0.00    +0.000 A 
ATOM     11  C   UNL     1     105.416 124.794 145.693  0.00  0.00    +0.000 A 
ATOM     12  C   UNL     1     104.629 124.448 145.660  0.00  0.00    +0.000 A 
ENDROOT
BRANCH   8  15
ATOM     13  O   UNL     1     101.434 124.417 146.797  0.00  0.00    +0.000 OA
ATOM     14  O   UNL     1     101.234 122.855 146.303  0.00  0.00    +0.000 OA
ATOM     15  C   UNL     1     103.498 123.852 146.366  0.00  0.00    +0.000 A 
ATOM     16  C   UNL     1     102.843 124.300 146.592  0.00  0.00    +0.000 A 
ATOM     17  C   UNL     1     103.398 123.071 146.119  0.00  0.00    +0.000 A 
ATOM     18  C   UNL     1     102.089 123.968 146.571  0.00  0.00    +0.000 A 
ATOM     19  C   UNL     1     102.642 122.739 146.098  0.00  0.00    +0.000 A 
ATOM     20  C   UNL     1     101.988 123.187 146.324  0.00  0.00    +0.000 A 
ENDBRANCH   8  15
BRANCH   6  21
ATOM     21  O   UNL     1     105.484 124.446 148.565  0.00  0.00    +0.000 OA
ATOM     22  C   UNL     1     105.147 124.996 149.077  0.00  0.00    +0.000 C 
ENDBRANCH   6  21
BRANCH   9  23
ATOM     23  O   UNL     1     106.994 125.110 148.613  0.00  0.00    +0.000 OA
ATOM     24  C   UNL     1     107.509 124.520 148.870  0.00  0.00    +0.000 C 
ENDBRANCH   9  23
BRANCH  10  25
ATOM     25  O   UNL     1     107.717 125.616 147.218  0.00  0.00    +0.000 OA
ATOM     26  C   UNL     1     107.814 126.429 147.121  0.00  0.00    +0.000 C 
ENDBRANCH  10  25
TORSDOF 4
ENDMDL
MODEL 2
REMARK VINA RESULT:      -7.8      1.368      4.814
REMARK  Name = 155493
REMARK  4 active torsions:
REMARK  status: ('A' for Active; 'I' for Inactive)
REMARK    1  A    between atoms: O_2  and  C_11
REMARK    2  A    between atoms: O_3  and  C_14
REMARK    3  A    between atoms: O_4  and  C_15
REMARK    4  A    between atoms: C_13  and  C_18
REMARK                            x       y       z     vdW  Elec       q    Type
REMARK                         _______ _______ _______ _____ _____    ______ ____
ROOT
ATOM      1  O   UNL     1     103.913 124.568 146.258  0.00  0.00    +0.000 OA
ATOM      2  O   UNL     1     101.892 124.361 148.320  0.00  0.00    +0.000 OA
ATOM      3  O   UNL     1     103.008 125.255 148.521  0.00  0.00    +0.000 OA
ATOM      4  C   UNL     1     102.889 124.462 147.301  0.00  0.00    +0.000 A 
ATOM      5  C   UNL     1     103.182 124.236 146.562  0.00  0.00    +0.000 A 
ATOM      6  C   UNL     1     102.771 123.684 146.107  0.00  0.00    +0.000 A 
ATOM      7  C   UNL     1     102.185 124.135 147.582  0.00  0.00    +0.000 A 
ATOM      8  C   UNL     1     104.346 125.143 146.728  0.00  0.00    +0.000 A 
ATOM      9  C   UNL     1     102.068 123.358 146.388  0.00  0.00    +0.000 A 
ATOM     10  C   UNL     1     101.775 123.584 147.127  0.00  0.00    +0.000 A 
ATOM     11  C   UNL     1     103.307 125.035 147.784  0.00  0.00    +0.000 A 
ATOM     12  C   UNL     1     104.041 125.378 147.497  0.00  0.00    +0.000 A 
ENDROOT
BRANCH   8  15
ATOM     13  O   UNL     1     107.193 125.063 146.500  0.00  0.00    +0.000 OA
ATOM     14  O   UNL     1     107.159 126.440 145.592  0.00  0.00    +0.000 OA
ATOM     15  C   UNL     1     105.049 125.468 146.444  0.00  0.00    +0.000 A 
ATOM     16  C   UNL     1     105.770 125.104 146.613  0.00  0.00    +0.000 A 
ATOM     17  C   UNL     1     105.032 126.157 145.990  0.00  0.00    +0.000 A 
ATOM     18  C   UNL     1     106.472 125.427 146.330  0.00  0.00    +0.000 A 
ATOM     19  C   UNL     1     105.736 126.481 145.706  0.00  0.00    +0.000 A 
ATOM     20  C   UNL     1     106.456 126.117 145.875  0.00  0.00    +0.000 A 
ENDBRANCH   8  15
BRANCH   6  21
ATOM     21  O   UNL     1     103.063 123.459 145.369  0.00  0.00    +0.000 OA
ATOM     22  C   UNL     1     103.482 122.753 145.290  0.00  0.00    +0.000 C 
ENDBRANCH   6  21
BRANCH   9  23
ATOM     23  O   UNL     1     101.656 122.807 145.933  0.00  0.00    +0.000 OA
ATOM     24  C   UNL     1     101.050 123.054 145.432  0.00  0.00    +0.000 C 
ENDBRANCH   9  23
BRANCH  10  25
ATOM     25  O   UNL     1     101.071 123.258 147.408  0.00  0.00    +0.000 OA
ATOM     26  C   UNL     1     101.082 122.746 148.054  0.00  0.00    +0.000 C 
ENDBRANCH  10  25
TORSDOF 4
ENDMDL
MODEL 3
REMARK VINA RESULT:      -7.7      1.199      4.618
REMARK  Name = 155493
REMARK  4 active torsions:
REMARK  status: ('A' for Active; 'I' for Inactive)
REMARK    1  A    between atoms: O_2  and  C_11
REMARK    2  A    between atoms: O_3  and  C_14
REMARK    3  A    between atoms: O_4  and  C_15
REMARK    4  A    between atoms: C_13  and  C_18
REMARK                            x       y       z     vdW  Elec       q    Type
REMARK                         _______ _______ _______ _____ _____    ______ ____
ROOT
ATOM      1  O   UNL     1     103.632 124.267 147.261  0.00  0.00    +0.000 OA
ATOM      2  O   UNL     1     102.533 122.839 144.996  0.00  0.00    +0.000 OA
ATOM      3  O   UNL     1     103.913 123.260 144.955  0.00  0.00    +0.000 OA
ATOM      4  C   UNL     1     103.073 123.544 146.115  0.00  0.00    +0.000 A 
ATOM      5  C   UNL     1     102.979 123.872 146.867  0.00  0.00    +0.000 A 
ATOM      6  C   UNL     1     102.250 123.821 147.250  0.00  0.00    +0.000 A 
ATOM      7  C   UNL     1     102.438 123.166 145.747  0.00  0.00    +0.000 A 
ATOM      8  C   UNL     1     104.394 124.323 146.867  0.00  0.00    +0.000 A 
ATOM      9  C   UNL     1     101.615 123.444 146.882  0.00  0.00    +0.000 A 
ATOM     10  C   UNL     1     101.710 123.116 146.130  0.00  0.00    +0.000 A 
ATOM     11  C   UNL     1     103.827 123.590 145.706  0.00  0.00    +0.000 A 
ATOM     12  C   UNL     1     104.492 123.981 146.084  0.00  0.00    +0.000 A 
ENDROOT
BRANCH   8  15
ATOM     13  O   UNL     1     106.556 124.272 148.734  0.00  0.00    +0.000 OA
ATOM     14  O   UNL     1     106.925 125.833 148.350  0.00  0.00    +0.000 OA
ATOM     15  C   UNL     1     105.027 124.701 147.238  0.00  0.00    +0.000 A 
ATOM     16  C   UNL     1     105.475 124.298 147.801  0.00  0.00    +0.000 A 
ATOM     17  C   UNL     1     105.211 125.481 147.045  0.00  0.00    +0.000 A 
ATOM     18  C   UNL     1     106.108 124.675 148.171  0.00  0.00    +0.000 A 
ATOM     19  C   UNL     1     105.844 125.859 147.416  0.00  0.00    +0.000 A 
ATOM     20  C   UNL     1     106.292 125.456 147.979  0.00  0.00    +0.000 A 
ENDBRANCH   8  15
BRANCH   6  21
ATOM     21  O   UNL     1     102.155 124.149 148.001  0.00  0.00    +0.000 OA
ATOM     22  C   UNL     1     101.794 124.884 148.087  0.00  0.00    +0.000 C 
ENDBRANCH   6  21
BRANCH   9  23
ATOM     23  O   UNL     1     100.886 123.394 147.265  0.00  0.00    +0.000 OA
ATOM     24  C   UNL     1     100.710 122.739 147.733  0.00  0.00    +0.000 C 
ENDBRANCH   9  23
BRANCH  10  25
ATOM     25  O   UNL     1     101.075 122.739 145.762  0.00  0.00    +0.000 OA
ATOM     26  C   UNL     1     100.734 123.068 145.087  0.00  0.00    +0.000 C 
ENDBRANCH  10  25
TORSDOF 4
ENDMDL
MODEL 4
REMARK VINA RESULT:      -7.7      2.313      4.367
REMARK  Name = 155493
REMARK  4 active torsions:
REMARK  status: ('A' for Active; 'I' for Inactive)
REMARK    1  A    between atoms: O_2  and  C_11
REMARK    2  A    between atoms: O_3  and  C_14
REMARK    3  A    between atoms: O_4  and  C_15
REMARK    4  A    between atoms: C_13  and  C_18
REMARK                            x       y       z     vdW  Elec       q    Type
REMARK                         _______ _______ _______ _____ _____    ______ ____
ROOT
ATOM      1  O   UNL     1     106.608 125.500 146.272  0.00  0.00    +0.000 OA
ATOM      2  O   UNL     1     106.392 128.084 144.986  0.00  0.00    +0.000 OA
ATOM      3  O   UNL     1     106.885 128.016 146.340  0.00  0.00    +0.000 OA
ATOM      4  C   UNL     1     106.498 126.808 145.619  0.00  0.00    +0.000 A 
ATOM      5  C   UNL     1     106.406 125.987 145.594  0.00  0.00    +0.000 A 
ATOM      6  C   UNL     1     106.117 125.626 144.911  0.00  0.00    +0.000 A 
ATOM      7  C   UNL     1     106.300 127.265 144.961  0.00  0.00    +0.000 A 
ATOM      8  C   UNL     1     106.909 125.872 146.986  0.00  0.00    +0.000 A 
ATOM      9  C   UNL     1     105.920 126.083 144.253  0.00  0.00    +0.000 A 
ATOM     10  C   UNL     1     106.011 126.903 144.278  0.00  0.00    +0.000 A 
ATOM     11  C   UNL     1     106.797 127.196 146.324  0.00  0.00    +0.000 A 
ATOM     12  C   UNL     1     107.005 126.726 147.012  0.00  0.00    +0.000 A 
ENDROOT
BRANCH   8  15
ATOM     13  O   UNL     1     106.131 124.504 149.371  0.00  0.00    +0.000 OA
ATOM     14  O   UNL     1     107.694 124.033 149.611  0.00  0.00    +0.000 OA
ATOM     15  C   UNL     1     107.106 125.412 147.642  0.00  0.00    +0.000 A 
ATOM     16  C   UNL     1     106.521 125.187 148.179  0.00  0.00    +0.000 A 
ATOM     17  C   UNL     1     107.887 125.177 147.762  0.00  0.00    +0.000 A 
ATOM     18  C   UNL     1     106.716 124.728 148.835  0.00  0.00    +0.000 A 
ATOM     19  C   UNL     1     108.083 124.716 148.419  0.00  0.00    +0.000 A 
ATOM     20  C   UNL     1     107.499 124.492 148.955  0.00  0.00    +0.000 A 
ENDBRANCH   8  15
BRANCH   6  21
ATOM     21  O   UNL     1     106.026 124.806 144.886  0.00  0.00    +0.000 OA
ATOM     22  C   UNL     1     105.279 124.472 144.985  0.00  0.00    +0.000 C 
ENDBRANCH   6  21
BRANCH   9  23
ATOM     23  O   UNL     1     105.631 125.721 143.570  0.00  0.00    +0.000 OA
ATOM     24  C   UNL     1     106.147 125.518 142.961  0.00  0.00    +0.000 C 
ENDBRANCH   9  23
BRANCH  10  25
ATOM     25  O   UNL     1     105.814 127.360 143.620  0.00  0.00    +0.000 OA
ATOM     26  C   UNL     1     105.173 127.878 143.654  0.00  0.00    +0.000 C 
ENDBRANCH  10  25
TORSDOF 4
ENDMDL
MODEL 5
REMARK VINA RESULT:      -7.7     11.890     13.039
REMARK  Name = 155493
REMARK  4 active torsions:
REMARK  status: ('A' for Active; 'I' for Inactive)
REMARK    1  A    between atoms: O_2  and  C_11
REMARK    2  A    between atoms: O_3  and  C_14
REMARK    3  A    between atoms: O_4  and  C_15
REMARK    4  A    between atoms: C_13  and  C_18
REMARK                            x       y       z     vdW  Elec       q    Type
REMARK                         _______ _______ _______ _____ _____    ______ ____
ROOT
ATOM      1  O   UNL     1     110.422 127.998 135.937  0.00  0.00    +0.000 OA
ATOM      2  O   UNL     1     108.061 129.664 135.765  0.00  0.00    +0.000 OA
ATOM      3  O   UNL     1     107.908 128.229 135.739  0.00  0.00    +0.000 OA
ATOM      4  C   UNL     1     109.228 128.844 135.850  0.00  0.00    +0.000 A 
ATOM      5  C   UNL     1     110.048 128.771 135.914  0.00  0.00    +0.000 A 
ATOM      6  C   UNL     1     110.519 129.447 135.958  0.00  0.00    +0.000 A 
ATOM      7  C   UNL     1     108.881 129.592 135.829  0.00  0.00    +0.000 A 
ATOM      8  C   UNL     1     109.936 127.290 135.892  0.00  0.00    +0.000 A 
ATOM      9  C   UNL     1     110.172 130.195 135.938  0.00  0.00    +0.000 A 
ATOM     10  C   UNL     1     109.352 130.267 135.873  0.00  0.00    +0.000 A 
ATOM     11  C   UNL     1     108.727 128.148 135.804  0.00  0.00    +0.000 A 
ATOM     12  C   UNL     1     109.082 127.366 135.825  0.00  0.00    +0.000 A 
ENDROOT
BRANCH   8  15
ATOM     13  O   UNL     1     111.076 125.133 137.378  0.00  0.00    +0.000 OA
ATOM     14  O   UNL     1     111.338 124.305 135.976  0.00  0.00    +0.000 OA
ATOM     15  C   UNL     1     110.287 126.544 135.912  0.00  0.00    +0.000 A 
ATOM     16  C   UNL     1     110.506 126.211 136.635  0.00  0.00    +0.000 A 
ATOM     17  C   UNL     1     110.418 126.130 135.211  0.00  0.00    +0.000 A 
ATOM     18  C   UNL     1     110.856 125.465 136.656  0.00  0.00    +0.000 A 
ATOM     19  C   UNL     1     110.768 125.383 135.232  0.00  0.00    +0.000 A 
ATOM     20  C   UNL     1     110.987 125.051 135.954  0.00  0.00    +0.000 A 
ENDBRANCH   8  15
BRANCH   6  21
ATOM     21  O   UNL     1     111.338 129.375 136.023  0.00  0.00    +0.000 OA
ATOM     22  C   UNL     1     111.815 129.476 135.357  0.00  0.00    +0.000 C 
ENDBRANCH   6  21
BRANCH   9  23
ATOM     23  O   UNL     1     110.643 130.871 135.981  0.00  0.00    +0.000 OA
ATOM     24  C   UNL     1     110.803 131.216 136.713  0.00  0.00    +0.000 C 
ENDBRANCH   9  23
BRANCH  10  25
ATOM     25  O   UNL     1     109.004 131.015 135.853  0.00  0.00    +0.000 OA
ATOM     26  C   UNL     1     108.714 131.316 135.143  0.00  0.00    +0.000 C 
ENDBRANCH  10  25
TORSDOF 4
ENDMDL
MODEL 6
REMARK VINA RESULT:      -7.7      0.762      2.053
REMARK  Name = 155493
REMARK  4 active torsions:
REMARK  status: ('A' for Active; 'I' for Inactive)
REMARK    1  A    between atoms: O_2  and  C_11
REMARK    2  A    between atoms: O_3  and  C_14
REMARK    3  A    between atoms: O_4  and  C_15
REMARK    4  A    between atoms: C_13  and  C_18
REMARK                            x       y       z     vdW  Elec       q    Type
REMARK                         _______ _______ _______ _____ _____    ______ ____
ROOT
ATOM      1  O   UNL     1     104.320 124.487 146.138  0.00  0.00    +0.000 OA
ATOM      2  O   UNL     1     106.290 125.244 148.119  0.00  0.00    +0.000 OA
ATOM      3  O   UNL     1     105.071 124.604 148.553  0.00  0.00    +0.000 OA
ATOM      4  C   UNL     1     105.319 124.871 147.140  0.00  0.00    +0.000 A 
ATOM      5  C   UNL     1     105.076 124.834 146.351  0.00  0.00    +0.000 A 
ATOM      6  C   UNL     1     105.563 125.134 145.756  0.00  0.00    +0.000 A 
ATOM      7  C   UNL     1     106.047 125.207 147.331  0.00  0.00    +0.000 A 
ATOM      8  C   UNL     1     103.808 124.174 146.754  0.00  0.00    +0.000 A 
ATOM      9  C   UNL     1     106.291 125.469 145.948  0.00  0.00    +0.000 A 
ATOM     10  C   UNL     1     106.534 125.506 146.737  0.00  0.00    +0.000 A 
ATOM     11  C   UNL     1     104.821 124.563 147.768  0.00  0.00    +0.000 A 
ATOM     12  C   UNL     1     104.061 124.212 147.575  0.00  0.00    +0.000 A 
ENDROOT
BRANCH   8  15
ATOM     13  O   UNL     1     100.962 124.362 146.592  0.00  0.00    +0.000 OA
ATOM     14  O   UNL     1     100.896 122.834 145.974  0.00  0.00    +0.000 OA
ATOM     15  C   UNL     1     103.080 123.838 146.559  0.00  0.00    +0.000 A 
ATOM     16  C   UNL     1     102.385 124.267 146.673  0.00  0.00    +0.000 A 
ATOM     17  C   UNL     1     103.048 123.074 146.249  0.00  0.00    +0.000 A 
ATOM     18  C   UNL     1     101.657 123.933 146.478  0.00  0.00    +0.000 A 
ATOM     19  C   UNL     1     102.319 122.739 146.055  0.00  0.00    +0.000 A 
ATOM     20  C   UNL     1     101.624 123.168 146.168  0.00  0.00    +0.000 A 
ENDBRANCH   8  15
BRANCH   6  21
ATOM     21  O   UNL     1     105.321 125.097 144.968  0.00  0.00    +0.000 OA
ATOM     22  C   UNL     1     105.571 124.475 144.489  0.00  0.00    +0.000 C 
ENDBRANCH   6  21
BRANCH   9  23
ATOM     23  O   UNL     1     106.778 125.769 145.353  0.00  0.00    +0.000 OA
ATOM     24  C   UNL     1     106.657 126.532 145.065  0.00  0.00    +0.000 C 
ENDBRANCH   9  23
BRANCH  10  25
ATOM     25  O   UNL     1     107.262 125.842 146.928  0.00  0.00    +0.000 OA
ATOM     26  C   UNL     1     107.830 125.397 147.327  0.00  0.00    +0.000 C 
ENDBRANCH  10  25
TORSDOF 4
ENDMDL
MODEL 7
REMARK VINA RESULT:      -7.6     13.025     13.666
REMARK  Name = 155493
REMARK  4 active torsions:
REMARK  status: ('A' for Active; 'I' for Inactive)
REMARK    1  A    between atoms: O_2  and  C_11
REMARK    2  A    between atoms: O_3  and  C_14
REMARK    3  A    between atoms: O_4  and  C_15
REMARK    4  A    between atoms: C_13  and  C_18
REMARK                            x       y       z     vdW  Elec       q    Type
REMARK                         _______ _______ _______ _____ _____    ______ ____
ROOT
ATOM      1  O   UNL     1     110.066 130.886 136.068  0.00  0.00    +0.000 OA
ATOM      2  O   UNL     1     112.072 131.651 138.009  0.00  0.00    +0.000 OA
ATOM      3  O   UNL     1     110.951 132.530 137.779  0.00  0.00    +0.000 OA
ATOM      4  C   UNL     1     111.083 131.272 137.051  0.00  0.00    +0.000 A 
ATOM      5  C   UNL     1     110.796 130.734 136.493  0.00  0.00    +0.000 A 
ATOM      6  C   UNL     1     111.214 130.039 136.339  0.00  0.00    +0.000 A 
ATOM      7  C   UNL     1     111.786 131.113 137.452  0.00  0.00    +0.000 A 
ATOM      8  C   UNL     1     109.627 131.609 136.225  0.00  0.00    +0.000 A 
ATOM      9  C   UNL     1     111.916 129.881 136.740  0.00  0.00    +0.000 A 
ATOM     10  C   UNL     1     112.203 130.419 137.298  0.00  0.00    +0.000 A 
ATOM     11  C   UNL     1     110.658 131.998 137.221  0.00  0.00    +0.000 A 
ATOM     12  C   UNL     1     109.925 132.169 136.806  0.00  0.00    +0.000 A 
ENDROOT
BRANCH   8  15
ATOM     13  O   UNL     1     106.793 131.321 135.991  0.00  0.00    +0.000 OA
ATOM     14  O   UNL     1     106.815 132.228 134.613  0.00  0.00    +0.000 OA
ATOM     15  C   UNL     1     108.924 131.764 135.822  0.00  0.00    +0.000 A 
ATOM     16  C   UNL     1     108.210 131.465 136.108  0.00  0.00    +0.000 A 
ATOM     17  C   UNL     1     108.935 132.218 135.133  0.00  0.00    +0.000 A 
ATOM     18  C   UNL     1     107.507 131.620 135.705  0.00  0.00    +0.000 A 
ATOM     19  C   UNL     1     108.231 132.372 134.730  0.00  0.00    +0.000 A 
ATOM     20  C   UNL     1     107.518 132.074 135.015  0.00  0.00    +0.000 A 
ENDBRANCH   8  15
BRANCH   6  21
ATOM     21  O   UNL     1     110.928 129.502 135.782  0.00  0.00    +0.000 OA
ATOM     22  C   UNL     1     111.262 129.471 135.029  0.00  0.00    +0.000 C 
ENDBRANCH   6  21
BRANCH   9  23
ATOM     23  O   UNL     1     112.334 129.187 136.585  0.00  0.00    +0.000 OA
ATOM     24  C   UNL     1     112.207 128.517 137.049  0.00  0.00    +0.000 C 
ENDBRANCH   9  23
BRANCH  10  25
ATOM     25  O   UNL     1     112.906 130.261 137.699  0.00  0.00    +0.000 OA
ATOM     26  C   UNL     1     113.590 130.682 137.515  0.00  0.00    +0.000 C 
ENDBRANCH  10  25
TORSDOF 4
ENDMDL
MODEL 8
REMARK VINA RESULT:      -7.6      9.318     10.385
REMARK  Name = 155493
REMARK  4 active torsions:
REMARK  status: ('A' for Active; 'I' for Inactive)
REMARK    1  A    between atoms: O_2  and  C_11
REMARK    2  A    between atoms: O_3  and  C_14
REMARK    3  A    between atoms: O_4  and  C_15
REMARK    4  A    between atoms: C_13  and  C_18
REMARK                            x       y       z     vdW  Elec       q    Type
REMARK                         _______ _______ _______ _____ _____    ______ ____
ROOT
ATOM      1  O   UNL     1     102.652 132.030 141.104  0.00  0.00    +0.000 OA
ATOM      2  O   UNL     1     100.794 133.601 142.672  0.00  0.00    +0.000 OA
ATOM      3  O   UNL     1     100.711 132.161 142.724  0.00  0.00    +0.000 OA
ATOM      4  C   UNL     1     101.712 132.827 141.897  0.00  0.00    +0.000 A 
ATOM      5  C   UNL     1     102.345 132.787 141.368  0.00  0.00    +0.000 A 
ATOM      6  C   UNL     1     102.691 133.481 141.088  0.00  0.00    +0.000 A 
ATOM      7  C   UNL     1     101.426 133.561 142.144  0.00  0.00    +0.000 A 
ATOM      8  C   UNL     1     102.294 131.303 141.393  0.00  0.00    +0.000 A 
ATOM      9  C   UNL     1     102.406 134.214 141.334  0.00  0.00    +0.000 A 
ATOM     10  C   UNL     1     101.773 134.254 141.863  0.00  0.00    +0.000 A 
ATOM     11  C   UNL     1     101.343 132.112 142.196  0.00  0.00    +0.000 A 
ATOM     12  C   UNL     1     101.635 131.345 141.943  0.00  0.00    +0.000 A 
ENDROOT
BRANCH   8  15
ATOM     13  O   UNL     1     102.318 129.171 139.491  0.00  0.00    +0.000 OA
ATOM     14  O   UNL     1     103.444 128.375 140.397  0.00  0.00    +0.000 OA
ATOM     15  C   UNL     1     102.582 130.571 141.144  0.00  0.00    +0.000 A 
ATOM     16  C   UNL     1     102.307 130.236 140.442  0.00  0.00    +0.000 A 
ATOM     17  C   UNL     1     103.145 130.173 141.598  0.00  0.00    +0.000 A 
ATOM     18  C   UNL     1     102.594 129.505 140.193  0.00  0.00    +0.000 A 
ATOM     19  C   UNL     1     103.433 129.441 141.348  0.00  0.00    +0.000 A 
ATOM     20  C   UNL     1     103.158 129.107 140.647  0.00  0.00    +0.000 A 
ENDBRANCH   8  15
BRANCH   6  21
ATOM     21  O   UNL     1     103.324 133.442 140.559  0.00  0.00    +0.000 OA
ATOM     22  C   UNL     1     104.094 133.558 140.830  0.00  0.00    +0.000 C 
ENDBRANCH   6  21
BRANCH   9  23
ATOM     23  O   UNL     1     102.753 134.909 141.054  0.00  0.00    +0.000 OA
ATOM     24  C   UNL     1     102.437 135.291 140.395  0.00  0.00    +0.000 C 
ENDBRANCH   9  23
BRANCH  10  25
ATOM     25  O   UNL     1     101.487 134.988 142.110  0.00  0.00    +0.000 OA
ATOM     26  C   UNL     1     101.634 135.251 142.877  0.00  0.00    +0.000 C 
ENDBRANCH  10  25
TORSDOF 4
ENDMDL
MODEL 9
REMARK VINA RESULT:      -7.6     12.331     13.060
REMARK  Name = 155493
REMARK  4 active torsions:
REMARK  status: ('A' for Active; 'I' for Inactive)
REMARK    1  A    between atoms: O_2  and  C_11
REMARK    2  A    between atoms: O_3  and  C_14
REMARK    3  A    between atoms: O_4  and  C_15
REMARK    4  A    between atoms: C_13  and  C_18
REMARK                            x       y       z     vdW  Elec       q    Type
REMARK                         _______ _______ _______ _____ _____    ______ ____
ROOT
ATOM      1  O   UNL     1     111.064 127.471 135.963  0.00  0.00    +0.000 OA
ATOM      2  O   UNL     1     111.122 124.599 135.606  0.00  0.00    +0.000 OA
ATOM      3  O   UNL     1     110.085 125.364 134.957  0.00  0.00    +0.000 OA
ATOM      4  C   UNL     1     111.095 126.017 135.784  0.00  0.00    +0.000 A 
ATOM      5  C   UNL     1     111.417 126.702 136.113  0.00  0.00    +0.000 A 
ATOM      6  C   UNL     1     112.086 126.653 136.594  0.00  0.00    +0.000 A 
ATOM      7  C   UNL     1     111.443 125.284 135.935  0.00  0.00    +0.000 A 
ATOM      8  C   UNL     1     110.367 127.528 135.463  0.00  0.00    +0.000 A 
ATOM      9  C   UNL     1     112.433 125.921 136.745  0.00  0.00    +0.000 A 
ATOM     10  C   UNL     1     112.112 125.236 136.415  0.00  0.00    +0.000 A 
ATOM     11  C   UNL     1     110.400 126.054 135.282  0.00  0.00    +0.000 A 
ATOM     12  C   UNL     1     110.032 126.814 135.120  0.00  0.00    +0.000 A 
ENDROOT
BRANCH   8  15
ATOM     13  O   UNL     1     108.308 129.442 135.971  0.00  0.00    +0.000 OA
ATOM     14  O   UNL     1     108.984 130.463 134.866  0.00  0.00    +0.000 OA
ATOM     15  C   UNL     1     110.022 128.262 135.314  0.00  0.00    +0.000 A 
ATOM     16  C   UNL     1     109.338 128.485 135.717  0.00  0.00    +0.000 A 
ATOM     17  C   UNL     1     110.360 128.772 134.761  0.00  0.00    +0.000 A 
ATOM     18  C   UNL     1     108.992 129.218 135.568  0.00  0.00    +0.000 A 
ATOM     19  C   UNL     1     110.014 129.506 134.612  0.00  0.00    +0.000 A 
ATOM     20  C   UNL     1     109.331 129.730 135.015  0.00  0.00    +0.000 A 
ENDBRANCH   8  15
BRANCH   6  21
ATOM     21  O   UNL     1     112.407 127.338 136.923  0.00  0.00    +0.000 OA
ATOM     22  C   UNL     1     112.257 127.526 137.712  0.00  0.00    +0.000 C 
ENDBRANCH   6  21
BRANCH   9  23
ATOM     23  O   UNL     1     113.102 125.873 137.226  0.00  0.00    +0.000 OA
ATOM     24  C   UNL     1     113.855 125.882 136.889  0.00  0.00    +0.000 C 
ENDBRANCH   9  23
BRANCH  10  25
ATOM     25  O   UNL     1     112.460 124.503 136.567  0.00  0.00    +0.000 OA
ATOM     26  C   UNL     1     112.068 123.949 137.035  0.00  0.00    +0.000 C 
ENDBRANCH  10  25
TORSDOF 4
ENDMDL
MODEL 10
REMARK VINA RESULT:      -7.5     12.511     13.551
REMARK  Name = 155493
REMARK  4 active torsions:
REMARK  status: ('A' for Active; 'I' for Inactive)
REMARK    1  A    between atoms: O_2  and  C_11
REMARK    2  A    between atoms: O_3  and  C_14
REMARK    3  A    between atoms: O_4  and  C_15
REMARK    4  A    between atoms: C_13  and  C_18
REMARK                            x       y       z     vdW  Elec       q    Type
REMARK                         _______ _______ _______ _____ _____    ______ ____
ROOT
ATOM      1  O   UNL     1     112.239 126.724 136.396  0.00  0.00    +0.000 OA
ATOM      2  O   UNL     1     109.621 126.315 135.231  0.00  0.00    +0.000 OA
ATOM      3  O   UNL     1     110.446 125.166 135.519  0.00  0.00    +0.000 OA
ATOM      4  C   UNL     1     110.913 126.519 135.806  0.00  0.00    +0.000 A 
ATOM      5  C   UNL     1     111.496 127.029 136.092  0.00  0.00    +0.000 A 
ATOM      6  C   UNL     1     111.369 127.844 136.087  0.00  0.00    +0.000 A 
ATOM      7  C   UNL     1     110.204 126.825 135.516  0.00  0.00    +0.000 A 
ATOM      8  C   UNL     1     112.377 125.875 136.403  0.00  0.00    +0.000 A 
ATOM      9  C   UNL     1     110.660 128.150 135.797  0.00  0.00    +0.000 A 
ATOM     10  C   UNL     1     110.077 127.639 135.512  0.00  0.00    +0.000 A 
ATOM     11  C   UNL     1     111.034 125.669 135.806  0.00  0.00    +0.000 A 
ATOM     12  C   UNL     1     111.770 125.344 136.106  0.00  0.00    +0.000 A 
ENDROOT
BRANCH   8  15
ATOM     13  O   UNL     1     115.135 125.235 136.018  0.00  0.00    +0.000 OA
ATOM     14  O   UNL     1     115.219 124.665 137.563  0.00  0.00    +0.000 OA
ATOM     15  C   UNL     1     113.088 125.572 136.694  0.00  0.00    +0.000 A 
ATOM     16  C   UNL     1     113.757 125.555 136.211  0.00  0.00    +0.000 A 
ATOM     17  C   UNL     1     113.129 125.287 137.467  0.00  0.00    +0.000 A 
ATOM     18  C   UNL     1     114.466 125.252 136.501  0.00  0.00    +0.000 A 
ATOM     19  C   UNL     1     113.841 124.984 137.757  0.00  0.00    +0.000 A 
ATOM     20  C   UNL     1     114.509 124.967 137.274  0.00  0.00    +0.000 A 
ENDBRANCH   8  15
BRANCH   6  21
ATOM     21  O   UNL     1     111.951 128.354 136.372  0.00  0.00    +0.000 OA
ATOM     22  C   UNL     1     111.883 128.677 137.128  0.00  0.00    +0.000 C 
ENDBRANCH   6  21
BRANCH   9  23
ATOM     23  O   UNL     1     110.532 128.965 135.792  0.00  0.00    +0.000 OA
ATOM     24  C   UNL     1     110.728 129.410 135.127  0.00  0.00    +0.000 C 
ENDBRANCH   9  23
BRANCH  10  25
ATOM     25  O   UNL     1     109.367 127.945 135.222  0.00  0.00    +0.000 OA
ATOM     26  C   UNL     1     108.683 127.908 135.681  0.00  0.00    +0.000 C 
ENDBRANCH  10  25
TORSDOF 4
ENDMDL
