MODEL 1
REMARK VINA RESULT:      -8.6      0.000      0.000
REMARK  Name = 15549723
REMARK  4 active torsions:
REMARK  status: ('A' for Active; 'I' for Inactive)
REMARK    1  A    between atoms: O_2  and  C_14
REMARK    2  A    between atoms: O_5  and  C_16
REMARK    3  A    between atoms: O_7  and  C_22
REMARK    4  A    between atoms: C_8  and  C_13
REMARK                            x       y       z     vdW  Elec       q    Type
REMARK                         _______ _______ _______ _____ _____    ______ ____
ROOT
ATOM      1  O   UNL     1     104.979 124.341 147.255  0.00  0.00    +0.000 OA
ATOM      2  O   UNL     1     106.161 125.237 145.203  0.00  0.00    +0.000 OA
ATOM      3  O   UNL     1     107.303 125.553 146.028  0.00  0.00    +0.000 OA
ATOM      4  O   UNL     1     108.064 125.585 147.492  0.00  0.00    +0.000 OA
ATOM      5  C   UNL     1     104.577 124.321 146.495  0.00  0.00    +0.000 C 
ATOM      6  C   UNL     1     104.976 124.624 145.798  0.00  0.00    +0.000 C 
ATOM      7  C   UNL     1     106.157 124.954 146.636  0.00  0.00    +0.000 A 
ATOM      8  C   UNL     1     105.774 124.663 147.306  0.00  0.00    +0.000 A 
ATOM      9  C   UNL     1     105.771 124.943 145.868  0.00  0.00    +0.000 C 
ATOM     10  C   UNL     1     106.154 124.679 148.039  0.00  0.00    +0.000 A 
ATOM     11  C   UNL     1     106.920 125.261 146.698  0.00  0.00    +0.000 A 
ATOM     12  C   UNL     1     106.917 124.986 148.100  0.00  0.00    +0.000 A 
ATOM     13  C   UNL     1     107.300 125.277 147.430  0.00  0.00    +0.000 A 
ENDROOT
BRANCH   5  14
ATOM     14  C   UNL     1     103.814 124.013 146.437  0.00  0.00    +0.000 A 
ATOM     15  C   UNL     1     103.168 124.463 146.682  0.00  0.00    +0.000 A 
ATOM     16  C   UNL     1     103.697 123.256 146.132  0.00  0.00    +0.000 A 
ATOM     17  C   UNL     1     102.405 124.155 146.623  0.00  0.00    +0.000 A 
ATOM     18  C   UNL     1     102.935 122.947 146.073  0.00  0.00    +0.000 A 
ATOM     19  C   UNL     1     102.288 123.397 146.319  0.00  0.00    +0.000 A 
BRANCH  19  20
ATOM     20  O   UNL     1     101.526 123.089 146.260  0.00  0.00    +0.000 OA
ATOM     21  C   UNL     1     101.048 123.292 145.618  0.00  0.00    +0.000 C 
ENDBRANCH  19  20
ENDBRANCH   5  14
BRANCH  10  22
ATOM     22  O   UNL     1     105.771 124.388 148.709  0.00  0.00    +0.000 OA
ATOM     23  C   UNL     1     105.472 124.910 149.272  0.00  0.00    +0.000 C 
ENDBRANCH  10  22
BRANCH  12  24
ATOM     24  O   UNL     1     107.298 125.002 148.832  0.00  0.00    +0.000 OA
ATOM     25  C   UNL     1     107.955 124.522 148.965  0.00  0.00    +0.000 C 
ENDBRANCH  12  24
TORSDOF 4
ENDMDL
MODEL 2
REMARK VINA RESULT:      -7.8     11.811     12.970
REMARK  Name = 15549723
REMARK  4 active torsions:
REMARK  status: ('A' for Active; 'I' for Inactive)
REMARK    1  A    between atoms: O_2  and  C_14
REMARK    2  A    between atoms: O_5  and  C_16
REMARK    3  A    between atoms: O_7  and  C_22
REMARK    4  A    between atoms: C_8  and  C_13
REMARK                            x       y       z     vdW  Elec       q    Type
REMARK                         _______ _______ _______ _____ _____    ______ ____
ROOT
ATOM      1  O   UNL     1     110.549 127.323 135.987  0.00  0.00    +0.000 OA
ATOM      2  O   UNL     1     108.021 127.192 136.049  0.00  0.00    +0.000 OA
ATOM      3  O   UNL     1     107.964 128.600 135.741  0.00  0.00    +0.000 OA
ATOM      4  O   UNL     1     108.703 130.040 135.415  0.00  0.00    +0.000 OA
ATOM      5  C   UNL     1     110.170 126.570 136.157  0.00  0.00    +0.000 C 
ATOM      6  C   UNL     1     109.313 126.523 136.179  0.00  0.00    +0.000 C 
ATOM      7  C   UNL     1     109.242 127.972 135.862  0.00  0.00    +0.000 A 
ATOM      8  C   UNL     1     110.065 128.017 135.841  0.00  0.00    +0.000 A 
ATOM      9  C   UNL     1     108.845 127.229 136.030  0.00  0.00    +0.000 C 
ATOM     10  C   UNL     1     110.435 128.737 135.678  0.00  0.00    +0.000 A 
ATOM     11  C   UNL     1     108.788 128.646 135.720  0.00  0.00    +0.000 A 
ATOM     12  C   UNL     1     109.980 129.411 135.536  0.00  0.00    +0.000 A 
ATOM     13  C   UNL     1     109.156 129.365 135.557  0.00  0.00    +0.000 A 
ENDROOT
BRANCH   5  14
ATOM     14  C   UNL     1     110.627 125.898 136.299  0.00  0.00    +0.000 A 
ATOM     15  C   UNL     1     110.888 125.729 137.063  0.00  0.00    +0.000 A 
ATOM     16  C   UNL     1     110.824 125.394 135.676  0.00  0.00    +0.000 A 
ATOM     17  C   UNL     1     111.344 125.057 137.205  0.00  0.00    +0.000 A 
ATOM     18  C   UNL     1     111.280 124.722 135.816  0.00  0.00    +0.000 A 
ATOM     19  C   UNL     1     111.541 124.553 136.582  0.00  0.00    +0.000 A 
BRANCH  19  20
ATOM     20  O   UNL     1     111.997 123.881 136.723  0.00  0.00    +0.000 OA
ATOM     21  C   UNL     1     112.820 123.939 136.748  0.00  0.00    +0.000 C 
ENDBRANCH  19  20
ENDBRANCH   5  14
BRANCH  10  22
ATOM     22  O   UNL     1     111.258 128.783 135.657  0.00  0.00    +0.000 OA
ATOM     23  C   UNL     1     111.650 128.829 134.933  0.00  0.00    +0.000 C 
ENDBRANCH  10  22
BRANCH  12  24
ATOM     24  O   UNL     1     110.350 130.131 135.373  0.00  0.00    +0.000 OA
ATOM     25  C   UNL     1     110.299 130.752 135.913  0.00  0.00    +0.000 C 
ENDBRANCH  12  24
TORSDOF 4
ENDMDL
MODEL 3
REMARK VINA RESULT:      -7.8      7.578      8.629
REMARK  Name = 15549723
REMARK  4 active torsions:
REMARK  status: ('A' for Active; 'I' for Inactive)
REMARK    1  A    between atoms: O_2  and  C_14
REMARK    2  A    between atoms: O_5  and  C_16
REMARK    3  A    between atoms: O_7  and  C_22
REMARK    4  A    between atoms: C_8  and  C_13
REMARK                            x       y       z     vdW  Elec       q    Type
REMARK                         _______ _______ _______ _____ _____    ______ ____
ROOT
ATOM      1  O   UNL     1     103.029 130.484 141.959  0.00  0.00    +0.000 OA
ATOM      2  O   UNL     1     102.426 129.146 139.895  0.00  0.00    +0.000 OA
ATOM      3  O   UNL     1     103.463 128.201 140.234  0.00  0.00    +0.000 OA
ATOM      4  O   UNL     1     104.681 127.684 141.219  0.00  0.00    +0.000 OA
ATOM      5  C   UNL     1     102.393 130.759 141.449  0.00  0.00    +0.000 C 
ATOM      6  C   UNL     1     102.186 130.307 140.749  0.00  0.00    +0.000 C 
ATOM      7  C   UNL     1     103.250 129.328 141.087  0.00  0.00    +0.000 A 
ATOM      8  C   UNL     1     103.449 129.762 141.760  0.00  0.00    +0.000 A 
ATOM      9  C   UNL     1     102.618 129.586 140.566  0.00  0.00    +0.000 C 
ATOM     10  C   UNL     1     104.059 129.503 142.253  0.00  0.00    +0.000 A 
ATOM     11  C   UNL     1     103.661 128.635 140.907  0.00  0.00    +0.000 A 
ATOM     12  C   UNL     1     104.469 128.811 142.072  0.00  0.00    +0.000 A 
ATOM     13  C   UNL     1     104.270 128.377 141.399  0.00  0.00    +0.000 A 
ENDROOT
BRANCH   5  14
ATOM     14  C   UNL     1     101.984 131.452 141.632  0.00  0.00    +0.000 A 
ATOM     15  C   UNL     1     101.244 131.412 141.993  0.00  0.00    +0.000 A 
ATOM     16  C   UNL     1     102.316 132.186 141.454  0.00  0.00    +0.000 A 
ATOM     17  C   UNL     1     100.835 132.104 142.176  0.00  0.00    +0.000 A 
ATOM     18  C   UNL     1     101.908 132.879 141.636  0.00  0.00    +0.000 A 
ATOM     19  C   UNL     1     101.167 132.838 141.997  0.00  0.00    +0.000 A 
BRANCH  19  20
ATOM     20  O   UNL     1     100.759 133.531 142.180  0.00  0.00    +0.000 OA
ATOM     21  C   UNL     1     100.731 134.149 141.634  0.00  0.00    +0.000 C 
ENDBRANCH  19  20
ENDBRANCH   5  14
BRANCH  10  22
ATOM     22  O   UNL     1     104.257 129.937 142.926  0.00  0.00    +0.000 OA
ATOM     23  C   UNL     1     104.032 129.667 143.672  0.00  0.00    +0.000 C 
ENDBRANCH  10  22
BRANCH  12  24
ATOM     24  O   UNL     1     105.079 128.552 142.565  0.00  0.00    +0.000 OA
ATOM     25  C   UNL     1     105.856 128.547 142.290  0.00  0.00    +0.000 C 
ENDBRANCH  12  24
TORSDOF 4
ENDMDL
MODEL 4
REMARK VINA RESULT:      -7.8      1.046      2.372
REMARK  Name = 15549723
REMARK  4 active torsions:
REMARK  status: ('A' for Active; 'I' for Inactive)
REMARK    1  A    between atoms: O_2  and  C_14
REMARK    2  A    between atoms: O_5  and  C_16
REMARK    3  A    between atoms: O_7  and  C_22
REMARK    4  A    between atoms: C_8  and  C_13
REMARK                            x       y       z     vdW  Elec       q    Type
REMARK                         _______ _______ _______ _____ _____    ______ ____
ROOT
ATOM      1  O   UNL     1     104.447 124.607 145.869  0.00  0.00    +0.000 OA
ATOM      2  O   UNL     1     105.481 124.632 148.180  0.00  0.00    +0.000 OA
ATOM      3  O   UNL     1     106.599 125.373 147.646  0.00  0.00    +0.000 OA
ATOM      4  O   UNL     1     107.383 126.100 146.389  0.00  0.00    +0.000 OA
ATOM      5  C   UNL     1     104.034 124.226 146.519  0.00  0.00    +0.000 C 
ATOM      6  C   UNL     1     104.382 124.233 147.304  0.00  0.00    +0.000 C 
ATOM      7  C   UNL     1     105.538 124.995 146.767  0.00  0.00    +0.000 A 
ATOM      8  C   UNL     1     105.203 124.989 146.012  0.00  0.00    +0.000 A 
ATOM      9  C   UNL     1     105.140 124.620 147.429  0.00  0.00    +0.000 C 
ATOM     10  C   UNL     1     105.595 125.353 145.383  0.00  0.00    +0.000 A 
ATOM     11  C   UNL     1     106.264 125.366 146.892  0.00  0.00    +0.000 A 
ATOM     12  C   UNL     1     106.321 125.723 145.510  0.00  0.00    +0.000 A 
ATOM     13  C   UNL     1     106.656 125.729 146.264  0.00  0.00    +0.000 A 
ENDROOT
BRANCH   5  14
ATOM     14  C   UNL     1     103.308 123.857 146.391  0.00  0.00    +0.000 A 
ATOM     15  C   UNL     1     103.280 123.110 146.042  0.00  0.00    +0.000 A 
ATOM     16  C   UNL     1     102.608 124.234 146.611  0.00  0.00    +0.000 A 
ATOM     17  C   UNL     1     102.554 122.740 145.913  0.00  0.00    +0.000 A 
ATOM     18  C   UNL     1     101.881 123.866 146.483  0.00  0.00    +0.000 A 
ATOM     19  C   UNL     1     101.854 123.118 146.134  0.00  0.00    +0.000 A 
BRANCH  19  20
ATOM     20  O   UNL     1     101.128 122.749 146.006  0.00  0.00    +0.000 OA
ATOM     21  C   UNL     1     100.731 122.859 145.291  0.00  0.00    +0.000 C 
ENDBRANCH  19  20
ENDBRANCH   5  14
BRANCH  10  22
ATOM     22  O   UNL     1     105.261 125.346 144.629  0.00  0.00    +0.000 OA
ATOM     23  C   UNL     1     105.571 124.855 144.045  0.00  0.00    +0.000 C 
ENDBRANCH  10  22
BRANCH  12  24
ATOM     24  O   UNL     1     106.714 126.087 144.881  0.00  0.00    +0.000 OA
ATOM     25  C   UNL     1     106.732 126.910 144.828  0.00  0.00    +0.000 C 
ENDBRANCH  12  24
TORSDOF 4
ENDMDL
MODEL 5
REMARK VINA RESULT:      -7.7     10.995     12.735
REMARK  Name = 15549723
REMARK  4 active torsions:
REMARK  status: ('A' for Active; 'I' for Inactive)
REMARK    1  A    between atoms: O_2  and  C_14
REMARK    2  A    between atoms: O_5  and  C_16
REMARK    3  A    between atoms: O_7  and  C_22
REMARK    4  A    between atoms: C_8  and  C_13
REMARK                            x       y       z     vdW  Elec       q    Type
REMARK                         _______ _______ _______ _____ _____    ______ ____
ROOT
ATOM      1  O   UNL     1     111.007 126.365 136.710  0.00  0.00    +0.000 OA
ATOM      2  O   UNL     1     109.612 125.533 134.768  0.00  0.00    +0.000 OA
ATOM      3  O   UNL     1     108.681 126.610 135.006  0.00  0.00    +0.000 OA
ATOM      4  O   UNL     1     108.197 127.941 135.853  0.00  0.00    +0.000 OA
ATOM      5  C   UNL     1     111.265 125.671 136.273  0.00  0.00    +0.000 C 
ATOM      6  C   UNL     1     110.794 125.386 135.614  0.00  0.00    +0.000 C 
ATOM      7  C   UNL     1     109.829 126.491 135.849  0.00  0.00    +0.000 A 
ATOM      8  C   UNL     1     110.282 126.764 136.482  0.00  0.00    +0.000 A 
ATOM      9  C   UNL     1     110.070 125.799 135.400  0.00  0.00    +0.000 C 
ATOM     10  C   UNL     1     110.039 127.430 136.906  0.00  0.00    +0.000 A 
ATOM     11  C   UNL     1     109.134 126.884 135.639  0.00  0.00    +0.000 A 
ATOM     12  C   UNL     1     109.345 127.822 136.695  0.00  0.00    +0.000 A 
ATOM     13  C   UNL     1     108.892 127.548 136.062  0.00  0.00    +0.000 A 
ENDROOT
BRANCH   5  14
ATOM     14  C   UNL     1     111.960 125.281 136.485  0.00  0.00    +0.000 A 
ATOM     15  C   UNL     1     111.924 124.557 136.878  0.00  0.00    +0.000 A 
ATOM     16  C   UNL     1     112.692 125.615 136.304  0.00  0.00    +0.000 A 
ATOM     17  C   UNL     1     112.619 124.167 137.090  0.00  0.00    +0.000 A 
ATOM     18  C   UNL     1     113.388 125.226 136.516  0.00  0.00    +0.000 A 
ATOM     19  C   UNL     1     113.352 124.501 136.909  0.00  0.00    +0.000 A 
BRANCH  19  20
ATOM     20  O   UNL     1     114.046 124.112 137.121  0.00  0.00    +0.000 OA
ATOM     21  C   UNL     1     114.708 124.546 137.353  0.00  0.00    +0.000 C 
ENDBRANCH  19  20
ENDBRANCH   5  14
BRANCH  10  22
ATOM     22  O   UNL     1     110.492 127.704 137.539  0.00  0.00    +0.000 OA
ATOM     23  C   UNL     1     110.250 127.556 138.313  0.00  0.00    +0.000 C 
ENDBRANCH  10  22
BRANCH  12  24
ATOM     24  O   UNL     1     109.102 128.488 137.119  0.00  0.00    +0.000 OA
ATOM     25  C   UNL     1     109.140 129.234 136.770  0.00  0.00    +0.000 C 
ENDBRANCH  12  24
TORSDOF 4
ENDMDL
MODEL 6
REMARK VINA RESULT:      -7.5     10.532     12.374
REMARK  Name = 15549723
REMARK  4 active torsions:
REMARK  status: ('A' for Active; 'I' for Inactive)
REMARK    1  A    between atoms: O_2  and  C_14
REMARK    2  A    between atoms: O_5  and  C_16
REMARK    3  A    between atoms: O_7  and  C_22
REMARK    4  A    between atoms: C_8  and  C_13
REMARK                            x       y       z     vdW  Elec       q    Type
REMARK                         _______ _______ _______ _____ _____    ______ ____
ROOT
ATOM      1  O   UNL     1     112.685 126.306 138.556  0.00  0.00    +0.000 OA
ATOM      2  O   UNL     1     114.781 125.119 137.777  0.00  0.00    +0.000 OA
ATOM      3  O   UNL     1     113.977 124.355 136.854  0.00  0.00    +0.000 OA
ATOM      4  O   UNL     1     112.519 123.971 136.182  0.00  0.00    +0.000 OA
ATOM      5  C   UNL     1     113.441 126.511 138.910  0.00  0.00    +0.000 C 
ATOM      6  C   UNL     1     114.154 126.109 138.648  0.00  0.00    +0.000 C 
ATOM      7  C   UNL     1     113.337 125.318 137.693  0.00  0.00    +0.000 A 
ATOM      8  C   UNL     1     112.652 125.703 137.945  0.00  0.00    +0.000 A 
ATOM      9  C   UNL     1     114.101 125.509 138.035  0.00  0.00    +0.000 C 
ATOM     10  C   UNL     1     111.923 125.511 137.609  0.00  0.00    +0.000 A 
ATOM     11  C   UNL     1     113.292 124.740 137.106  0.00  0.00    +0.000 A 
ATOM     12  C   UNL     1     111.879 124.934 137.022  0.00  0.00    +0.000 A 
ATOM     13  C   UNL     1     112.564 124.548 136.770  0.00  0.00    +0.000 A 
ENDROOT
BRANCH   5  14
ATOM     14  C   UNL     1     113.482 127.088 139.498  0.00  0.00    +0.000 A 
ATOM     15  C   UNL     1     113.552 126.868 140.289  0.00  0.00    +0.000 A 
ATOM     16  C   UNL     1     113.454 127.887 139.293  0.00  0.00    +0.000 A 
ATOM     17  C   UNL     1     113.593 127.446 140.877  0.00  0.00    +0.000 A 
ATOM     18  C   UNL     1     113.495 128.466 139.880  0.00  0.00    +0.000 A 
ATOM     19  C   UNL     1     113.565 128.245 140.672  0.00  0.00    +0.000 A 
BRANCH  19  20
ATOM     20  O   UNL     1     113.606 128.822 141.259  0.00  0.00    +0.000 OA
ATOM     21  C   UNL     1     112.929 129.245 141.470  0.00  0.00    +0.000 C 
ENDBRANCH  19  20
ENDBRANCH   5  14
BRANCH  10  22
ATOM     22  O   UNL     1     111.238 125.896 137.861  0.00  0.00    +0.000 OA
ATOM     23  C   UNL     1     110.722 125.521 138.383  0.00  0.00    +0.000 C 
ENDBRANCH  10  22
BRANCH  12  24
ATOM     24  O   UNL     1     111.150 124.742 136.686  0.00  0.00    +0.000 OA
ATOM     25  C   UNL     1     110.986 124.957 135.907  0.00  0.00    +0.000 C 
ENDBRANCH  12  24
TORSDOF 4
ENDMDL
MODEL 7
REMARK VINA RESULT:      -7.5      2.206      4.519
REMARK  Name = 15549723
REMARK  4 active torsions:
REMARK  status: ('A' for Active; 'I' for Inactive)
REMARK    1  A    between atoms: O_2  and  C_14
REMARK    2  A    between atoms: O_5  and  C_16
REMARK    3  A    between atoms: O_7  and  C_22
REMARK    4  A    between atoms: C_8  and  C_13
REMARK                            x       y       z     vdW  Elec       q    Type
REMARK                         _______ _______ _______ _____ _____    ______ ____
ROOT
ATOM      1  O   UNL     1     106.497 125.377 145.896  0.00  0.00    +0.000 OA
ATOM      2  O   UNL     1     106.588 127.883 145.540  0.00  0.00    +0.000 OA
ATOM      3  O   UNL     1     106.099 127.685 144.197  0.00  0.00    +0.000 OA
ATOM      4  O   UNL     1     105.585 126.702 142.975  0.00  0.00    +0.000 OA
ATOM      5  C   UNL     1     106.766 125.885 146.536  0.00  0.00    +0.000 C 
ATOM      6  C   UNL     1     106.797 126.735 146.418  0.00  0.00    +0.000 C 
ATOM      7  C   UNL     1     106.295 126.545 145.034  0.00  0.00    +0.000 A 
ATOM      8  C   UNL     1     106.264 125.728 145.147  0.00  0.00    +0.000 A 
ATOM      9  C   UNL     1     106.560 127.067 145.662  0.00  0.00    +0.000 C 
ATOM     10  C   UNL     1     106.007 125.236 144.536  0.00  0.00    +0.000 A 
ATOM     11  C   UNL     1     106.068 126.869 144.310  0.00  0.00    +0.000 A 
ATOM     12  C   UNL     1     105.781 125.561 143.813  0.00  0.00    +0.000 A 
ATOM     13  C   UNL     1     105.812 126.378 143.700  0.00  0.00    +0.000 A 
ENDROOT
BRANCH   5  14
ATOM     14  C   UNL     1     106.991 125.557 147.259  0.00  0.00    +0.000 A 
ATOM     15  C   UNL     1     107.771 125.318 147.379  0.00  0.00    +0.000 A 
ATOM     16  C   UNL     1     106.436 125.468 147.863  0.00  0.00    +0.000 A 
ATOM     17  C   UNL     1     107.997 124.991 148.101  0.00  0.00    +0.000 A 
ATOM     18  C   UNL     1     106.661 125.141 148.586  0.00  0.00    +0.000 A 
ATOM     19  C   UNL     1     107.442 124.902 148.705  0.00  0.00    +0.000 A 
BRANCH  19  20
ATOM     20  O   UNL     1     107.667 124.575 149.427  0.00  0.00    +0.000 OA
ATOM     21  C   UNL     1     107.456 123.799 149.612  0.00  0.00    +0.000 C 
ENDBRANCH  19  20
ENDBRANCH   5  14
BRANCH  10  22
ATOM     22  O   UNL     1     105.977 124.419 144.649  0.00  0.00    +0.000 OA
ATOM     23  C   UNL     1     105.252 124.048 144.779  0.00  0.00    +0.000 C 
ENDBRANCH  10  22
BRANCH  12  24
ATOM     24  O   UNL     1     105.524 125.069 143.202  0.00  0.00    +0.000 OA
ATOM     25  C   UNL     1     105.964 125.012 142.506  0.00  0.00    +0.000 C 
ENDBRANCH  12  24
TORSDOF 4
ENDMDL
MODEL 8
REMARK VINA RESULT:      -7.4      1.285      4.597
REMARK  Name = 15549723
REMARK  4 active torsions:
REMARK  status: ('A' for Active; 'I' for Inactive)
REMARK    1  A    between atoms: O_2  and  C_14
REMARK    2  A    between atoms: O_5  and  C_16
REMARK    3  A    between atoms: O_7  and  C_22
REMARK    4  A    between atoms: C_8  and  C_13
REMARK                            x       y       z     vdW  Elec       q    Type
REMARK                         _______ _______ _______ _____ _____    ______ ____
ROOT
ATOM      1  O   UNL     1     103.915 124.672 147.519  0.00  0.00    +0.000 OA
ATOM      2  O   UNL     1     103.545 123.469 145.322  0.00  0.00    +0.000 OA
ATOM      3  O   UNL     1     102.141 123.369 145.640  0.00  0.00    +0.000 OA
ATOM      4  O   UNL     1     100.864 123.649 146.647  0.00  0.00    +0.000 OA
ATOM      5  C   UNL     1     104.585 124.529 146.999  0.00  0.00    +0.000 C 
ATOM      6  C   UNL     1     104.462 124.121 146.253  0.00  0.00    +0.000 C 
ATOM      7  C   UNL     1     103.015 124.013 146.569  0.00  0.00    +0.000 A 
ATOM      8  C   UNL     1     103.133 124.404 147.286  0.00  0.00    +0.000 A 
ATOM      9  C   UNL     1     103.671 123.861 146.036  0.00  0.00    +0.000 C 
ATOM     10  C   UNL     1     102.494 124.544 147.790  0.00  0.00    +0.000 A 
ATOM     11  C   UNL     1     102.259 123.761 146.357  0.00  0.00    +0.000 A 
ATOM     12  C   UNL     1     101.738 124.292 147.576  0.00  0.00    +0.000 A 
ATOM     13  C   UNL     1     101.621 123.900 146.860  0.00  0.00    +0.000 A 
ENDROOT
BRANCH   5  14
ATOM     14  C   UNL     1     105.340 124.782 147.214  0.00  0.00    +0.000 A 
ATOM     15  C   UNL     1     105.745 124.400 147.822  0.00  0.00    +0.000 A 
ATOM     16  C   UNL     1     105.690 125.418 146.821  0.00  0.00    +0.000 A 
ATOM     17  C   UNL     1     106.501 124.654 148.037  0.00  0.00    +0.000 A 
ATOM     18  C   UNL     1     106.444 125.671 147.035  0.00  0.00    +0.000 A 
ATOM     19  C   UNL     1     106.850 125.289 147.644  0.00  0.00    +0.000 A 
BRANCH  19  20
ATOM     20  O   UNL     1     107.605 125.542 147.859  0.00  0.00    +0.000 OA
ATOM     21  C   UNL     1     108.176 124.991 148.084  0.00  0.00    +0.000 C 
ENDBRANCH  19  20
ENDBRANCH   5  14
BRANCH  10  22
ATOM     22  O   UNL     1     102.612 124.936 148.506  0.00  0.00    +0.000 OA
ATOM     23  C   UNL     1     102.398 125.728 148.583  0.00  0.00    +0.000 C 
ENDBRANCH  10  22
BRANCH  12  24
ATOM     24  O   UNL     1     101.099 124.432 148.080  0.00  0.00    +0.000 OA
ATOM     25  C   UNL     1     100.719 123.799 148.448  0.00  0.00    +0.000 C 
ENDBRANCH  12  24
TORSDOF 4
ENDMDL
MODEL 9
REMARK VINA RESULT:      -7.4     12.609     13.236
REMARK  Name = 15549723
REMARK  4 active torsions:
REMARK  status: ('A' for Active; 'I' for Inactive)
REMARK    1  A    between atoms: O_2  and  C_14
REMARK    2  A    between atoms: O_5  and  C_16
REMARK    3  A    between atoms: O_7  and  C_22
REMARK    4  A    between atoms: C_8  and  C_13
REMARK                            x       y       z     vdW  Elec       q    Type
REMARK                         _______ _______ _______ _____ _____    ______ ____
ROOT
ATOM      1  O   UNL     1     112.026 126.932 136.261  0.00  0.00    +0.000 OA
ATOM      2  O   UNL     1     110.662 124.955 135.459  0.00  0.00    +0.000 OA
ATOM      3  O   UNL     1     111.588 124.075 136.130  0.00  0.00    +0.000 OA
ATOM      4  O   UNL     1     112.936 123.823 137.048  0.00  0.00    +0.000 OA
ATOM      5  C   UNL     1     111.325 127.070 135.783  0.00  0.00    +0.000 C 
ATOM      6  C   UNL     1     110.860 126.401 135.509  0.00  0.00    +0.000 C 
ATOM      7  C   UNL     1     111.806 125.485 136.196  0.00  0.00    +0.000 A 
ATOM      8  C   UNL     1     112.252 126.127 136.458  0.00  0.00    +0.000 A 
ATOM      9  C   UNL     1     111.103 125.603 135.717  0.00  0.00    +0.000 C 
ATOM     10  C   UNL     1     112.927 126.002 136.918  0.00  0.00    +0.000 A 
ATOM     11  C   UNL     1     112.034 124.717 136.392  0.00  0.00    +0.000 A 
ATOM     12  C   UNL     1     113.154 125.233 137.114  0.00  0.00    +0.000 A 
ATOM     13  C   UNL     1     112.708 124.591 136.851  0.00  0.00    +0.000 A 
ENDROOT
BRANCH   5  14
ATOM     14  C   UNL     1     111.099 127.839 135.588  0.00  0.00    +0.000 A 
ATOM     15  C   UNL     1     110.541 128.235 136.048  0.00  0.00    +0.000 A 
ATOM     16  C   UNL     1     111.433 128.213 134.932  0.00  0.00    +0.000 A 
ATOM     17  C   UNL     1     110.315 129.004 135.853  0.00  0.00    +0.000 A 
ATOM     18  C   UNL     1     111.208 128.982 134.736  0.00  0.00    +0.000 A 
ATOM     19  C   UNL     1     110.649 129.378 135.197  0.00  0.00    +0.000 A 
BRANCH  19  20
ATOM     20  O   UNL     1     110.424 130.147 135.002  0.00  0.00    +0.000 OA
ATOM     21  C   UNL     1     109.709 130.281 134.612  0.00  0.00    +0.000 C 
ENDBRANCH  19  20
ENDBRANCH   5  14
BRANCH  10  22
ATOM     22  O   UNL     1     113.373 126.644 137.180  0.00  0.00    +0.000 OA
ATOM     23  C   UNL     1     113.316 126.892 137.965  0.00  0.00    +0.000 C 
ENDBRANCH  10  22
BRANCH  12  24
ATOM     24  O   UNL     1     113.828 125.107 137.573  0.00  0.00    +0.000 OA
ATOM     25  C   UNL     1     114.489 124.742 137.242  0.00  0.00    +0.000 C 
ENDBRANCH  12  24
TORSDOF 4
ENDMDL
MODEL 10
REMARK VINA RESULT:      -7.4     12.484     14.150
REMARK  Name = 15549723
REMARK  4 active torsions:
REMARK  status: ('A' for Active; 'I' for Inactive)
REMARK    1  A    between atoms: O_2  and  C_14
REMARK    2  A    between atoms: O_5  and  C_16
REMARK    3  A    between atoms: O_7  and  C_22
REMARK    4  A    between atoms: C_8  and  C_13
REMARK                            x       y       z     vdW  Elec       q    Type
REMARK                         _______ _______ _______ _____ _____    ______ ____
ROOT
ATOM      1  O   UNL     1     113.276 127.270 136.435  0.00  0.00    +0.000 OA
ATOM      2  O   UNL     1     110.968 127.371 135.398  0.00  0.00    +0.000 OA
ATOM      3  O   UNL     1     110.747 126.008 135.817  0.00  0.00    +0.000 OA
ATOM      4  O   UNL     1     111.253 124.623 136.558  0.00  0.00    +0.000 OA
ATOM      5  C   UNL     1     113.019 127.994 136.050  0.00  0.00    +0.000 C 
ATOM      6  C   UNL     1     112.236 128.032 135.698  0.00  0.00    +0.000 C 
ATOM      7  C   UNL     1     111.997 126.629 136.123  0.00  0.00    +0.000 A 
ATOM      8  C   UNL     1     112.748 126.593 136.462  0.00  0.00    +0.000 A 
ATOM      9  C   UNL     1     111.721 127.344 135.735  0.00  0.00    +0.000 C 
ATOM     10  C   UNL     1     113.001 125.901 136.833  0.00  0.00    +0.000 A 
ATOM     11  C   UNL     1     111.498 125.972 136.155  0.00  0.00    +0.000 A 
ATOM     12  C   UNL     1     112.502 125.244 136.864  0.00  0.00    +0.000 A 
ATOM     13  C   UNL     1     111.751 125.280 136.526  0.00  0.00    +0.000 A 
ENDROOT
BRANCH   5  14
ATOM     14  C   UNL     1     113.519 128.650 136.020  0.00  0.00    +0.000 A 
ATOM     15  C   UNL     1     113.460 129.241 136.591  0.00  0.00    +0.000 A 
ATOM     16  C   UNL     1     114.079 128.713 135.417  0.00  0.00    +0.000 A 
ATOM     17  C   UNL     1     113.961 129.896 136.561  0.00  0.00    +0.000 A 
ATOM     18  C   UNL     1     114.580 129.367 135.386  0.00  0.00    +0.000 A 
ATOM     19  C   UNL     1     114.521 129.960 135.958  0.00  0.00    +0.000 A 
BRANCH  19  20
ATOM     20  O   UNL     1     115.021 130.614 135.927  0.00  0.00    +0.000 OA
ATOM     21  C   UNL     1     115.335 130.859 135.205  0.00  0.00    +0.000 C 
ENDBRANCH  19  20
ENDBRANCH   5  14
BRANCH  10  22
ATOM     22  O   UNL     1     113.753 125.865 137.171  0.00  0.00    +0.000 OA
ATOM     23  C   UNL     1     113.837 125.893 137.991  0.00  0.00    +0.000 C 
ENDBRANCH  10  22
BRANCH  12  24
ATOM     24  O   UNL     1     112.756 124.552 137.235  0.00  0.00    +0.000 OA
ATOM     25  C   UNL     1     112.865 123.864 136.793  0.00  0.00    +0.000 C 
ENDBRANCH  12  24
TORSDOF 4
ENDMDL
