MODEL 1
REMARK VINA RESULT:     -10.9      0.000      0.000
REMARK  Name = 131833568
REMARK  6 active torsions:
REMARK  status: ('A' for Active; 'I' for Inactive)
REMARK    1  A    between atoms: O_2  and  C_25
REMARK    2  A    between atoms: O_2  and  C_29
REMARK    3  A    between atoms: C_18  and  C_23
REMARK    4  A    between atoms: C_22  and  C_28
REMARK    5  A    between atoms: C_30  and  C_35
REMARK    6  A    between atoms: C_37  and  C_39
REMARK                            x       y       z     vdW  Elec       q    Type
REMARK                         _______ _______ _______ _____ _____    ______ ____
ROOT
ATOM      1  O   UNL     1     110.448 128.139 136.005  0.00  0.00    +0.000 OA
ATOM      2  O   UNL     1     108.210 129.975 135.982  0.00  0.00    +0.000 OA
ATOM      3  O   UNL     1     107.962 128.567 135.782  0.00  0.00    +0.000 OA
ATOM      4  C   UNL     1     110.641 129.565 136.201  0.00  0.00    +0.000 A 
ATOM      5  C   UNL     1     110.344 130.333 136.262  0.00  0.00    +0.000 A 
ATOM      6  C   UNL     1     110.127 128.934 136.067  0.00  0.00    +0.000 A 
ATOM      7  C   UNL     1     109.316 129.071 135.994  0.00  0.00    +0.000 A 
ATOM      8  C   UNL     1     109.534 130.469 136.189  0.00  0.00    +0.000 A 
ATOM      9  C   UNL     1     109.020 129.838 136.055  0.00  0.00    +0.000 A 
ATOM     10  C   UNL     1     108.771 128.422 135.854  0.00  0.00    +0.000 A 
ATOM     11  C   UNL     1     109.917 127.478 135.865  0.00  0.00    +0.000 A 
ATOM     12  C   UNL     1     109.073 127.620 135.789  0.00  0.00    +0.000 A 
ENDROOT
BRANCH   4  17
ATOM     13  O   UNL     1     111.774 129.248 137.012  0.00  0.00    +0.000 OA
ATOM     14  O   UNL     1     111.617 129.655 134.873  0.00  0.00    +0.000 OA
ATOM     15  O   UNL     1     113.237 129.383 135.021  0.00  0.00    +0.000 OA
ATOM     16  O   UNL     1     113.883 129.022 136.496  0.00  0.00    +0.000 OA
ATOM     17  C   UNL     1     111.451 129.429 136.274  0.00  0.00    +0.000 C 
ATOM     18  C   UNL     1     111.939 129.474 135.610  0.00  0.00    +0.000 C 
ATOM     19  C   UNL     1     112.750 129.338 135.685  0.00  0.00    +0.000 C 
ATOM     20  C   UNL     1     113.072 129.158 136.422  0.00  0.00    +0.000 C 
ATOM     21  C   UNL     1     112.584 129.113 137.085  0.00  0.00    +0.000 C 
BRANCH  21  23
ATOM     22  O   UNL     1     112.421 128.648 138.427  0.00  0.00    +0.000 OA
ATOM     23  C   UNL     1     112.907 128.932 137.824  0.00  0.00    +0.000 C 
ENDBRANCH  21  23
ENDBRANCH   4  17
BRANCH  11  26
ATOM     24  O   UNL     1     110.904 125.101 137.108  0.00  0.00    +0.000 OA
ATOM     25  O   UNL     1     111.114 124.412 135.623  0.00  0.00    +0.000 OA
ATOM     26  C   UNL     1     110.217 126.711 135.805  0.00  0.00    +0.000 A 
ATOM     27  C   UNL     1     110.411 126.289 136.486  0.00  0.00    +0.000 A 
ATOM     28  C   UNL     1     110.321 126.367 135.062  0.00  0.00    +0.000 A 
ATOM     29  C   UNL     1     110.710 125.523 136.426  0.00  0.00    +0.000 A 
ATOM     30  C   UNL     1     110.620 125.601 135.001  0.00  0.00    +0.000 A 
ATOM     31  C   UNL     1     110.815 125.179 135.684  0.00  0.00    +0.000 A 
ENDBRANCH  11  26
BRANCH   5  32
ATOM     32  O   UNL     1     110.858 130.964 136.396  0.00  0.00    +0.000 OA
BRANCH  32  38
ATOM     33  O   UNL     1     110.431 131.376 137.696  0.00  0.00    +0.000 OA
ATOM     34  O   UNL     1     110.867 132.538 135.901  0.00  0.00    +0.000 OA
ATOM     35  O   UNL     1     110.445 133.737 136.953  0.00  0.00    +0.000 OA
ATOM     36  O   UNL     1     110.013 133.362 138.500  0.00  0.00    +0.000 OA
ATOM     37  C   UNL     1     110.652 132.350 136.674  0.00  0.00    +0.000 C 
ATOM     38  C   UNL     1     110.647 131.563 136.922  0.00  0.00    +0.000 C 
ATOM     39  C   UNL     1     110.440 132.950 137.201  0.00  0.00    +0.000 C 
ATOM     40  C   UNL     1     110.224 132.762 137.974  0.00  0.00    +0.000 C 
ATOM     41  C   UNL     1     110.220 131.975 138.222  0.00  0.00    +0.000 C 
BRANCH  41  44
ATOM     42  O   UNL     1     110.585 131.678 139.571  0.00  0.00    +0.000 OA
ATOM     43  O   UNL     1     109.207 131.710 139.194  0.00  0.00    +0.000 OA
ATOM     44  C   UNL     1     110.004 131.788 138.995  0.00  0.00    +0.000 C 
ENDBRANCH  41  44
ENDBRANCH  32  38
ENDBRANCH   5  32
TORSDOF 6
ENDMDL
MODEL 2
REMARK VINA RESULT:     -10.5      2.402      6.200
REMARK  Name = 131833568
REMARK  6 active torsions:
REMARK  status: ('A' for Active; 'I' for Inactive)
REMARK    1  A    between atoms: O_2  and  C_25
REMARK    2  A    between atoms: O_2  and  C_29
REMARK    3  A    between atoms: C_18  and  C_23
REMARK    4  A    between atoms: C_22  and  C_28
REMARK    5  A    between atoms: C_30  and  C_35
REMARK    6  A    between atoms: C_37  and  C_39
REMARK                            x       y       z     vdW  Elec       q    Type
REMARK                         _______ _______ _______ _____ _____    ______ ____
ROOT
ATOM      1  O   UNL     1     113.331 128.799 139.576  0.00  0.00    +0.000 OA
ATOM      2  O   UNL     1     112.487 126.100 140.196  0.00  0.00    +0.000 OA
ATOM      3  O   UNL     1     113.223 126.848 141.187  0.00  0.00    +0.000 OA
ATOM      4  C   UNL     1     112.589 128.002 138.615  0.00  0.00    +0.000 A 
ATOM      5  C   UNL     1     112.207 127.303 138.397  0.00  0.00    +0.000 A 
ATOM      6  C   UNL     1     112.937 128.066 139.360  0.00  0.00    +0.000 A 
ATOM      7  C   UNL     1     112.903 127.432 139.887  0.00  0.00    +0.000 A 
ATOM      8  C   UNL     1     112.174 126.670 138.924  0.00  0.00    +0.000 A 
ATOM      9  C   UNL     1     112.522 126.734 139.669  0.00  0.00    +0.000 A 
ATOM     10  C   UNL     1     113.261 127.487 140.666  0.00  0.00    +0.000 A 
ATOM     11  C   UNL     1     113.696 128.871 140.350  0.00  0.00    +0.000 A 
ATOM     12  C   UNL     1     113.661 128.212 140.900  0.00  0.00    +0.000 A 
ENDROOT
BRANCH   4  17
ATOM     13  O   UNL     1     113.265 128.711 137.574  0.00  0.00    +0.000 OA
ATOM     14  O   UNL     1     111.373 129.117 138.585  0.00  0.00    +0.000 OA
ATOM     15  O   UNL     1     111.441 130.383 137.529  0.00  0.00    +0.000 OA
ATOM     16  O   UNL     1     112.725 130.535 136.504  0.00  0.00    +0.000 OA
ATOM     17  C   UNL     1     112.622 128.635 138.088  0.00  0.00    +0.000 C 
ATOM     18  C   UNL     1     112.014 129.193 138.073  0.00  0.00    +0.000 C 
ATOM     19  C   UNL     1     112.049 129.826 137.544  0.00  0.00    +0.000 C 
ATOM     20  C   UNL     1     112.690 129.901 137.032  0.00  0.00    +0.000 C 
ATOM     21  C   UNL     1     113.298 129.344 137.047  0.00  0.00    +0.000 C 
BRANCH  21  23
ATOM     22  O   UNL     1     114.185 128.774 136.083  0.00  0.00    +0.000 OA
ATOM     23  C   UNL     1     113.940 129.419 136.534  0.00  0.00    +0.000 C 
ENDBRANCH  21  23
ENDBRANCH   4  17
BRANCH  11  26
ATOM     24  O   UNL     1     113.665 131.393 141.696  0.00  0.00    +0.000 OA
ATOM     25  O   UNL     1     115.219 131.669 141.213  0.00  0.00    +0.000 OA
ATOM     26  C   UNL     1     114.077 129.571 140.566  0.00  0.00    +0.000 A 
ATOM     27  C   UNL     1     113.681 130.132 141.023  0.00  0.00    +0.000 A 
ATOM     28  C   UNL     1     114.853 129.709 140.324  0.00  0.00    +0.000 A 
ATOM     29  C   UNL     1     114.061 130.831 141.239  0.00  0.00    +0.000 A 
ATOM     30  C   UNL     1     115.234 130.408 140.540  0.00  0.00    +0.000 A 
ATOM     31  C   UNL     1     114.838 130.969 140.997  0.00  0.00    +0.000 A 
ENDBRANCH  11  26
BRANCH   5  32
ATOM     32  O   UNL     1     111.859 127.239 137.651  0.00  0.00    +0.000 OA
BRANCH  32  38
ATOM     33  O   UNL     1     112.550 126.090 137.158  0.00  0.00    +0.000 OA
ATOM     34  O   UNL     1     110.436 126.627 137.082  0.00  0.00    +0.000 OA
ATOM     35  O   UNL     1     110.416 125.172 136.304  0.00  0.00    +0.000 OA
ATOM     36  O   UNL     1     111.818 124.330 136.096  0.00  0.00    +0.000 OA
ATOM     37  C   UNL     1     111.138 126.206 136.978  0.00  0.00    +0.000 C 
ATOM     38  C   UNL     1     111.849 126.512 137.263  0.00  0.00    +0.000 C 
ATOM     39  C   UNL     1     111.127 125.478 136.589  0.00  0.00    +0.000 C 
ATOM     40  C   UNL     1     111.829 125.057 136.485  0.00  0.00    +0.000 C 
ATOM     41  C   UNL     1     112.540 125.363 136.769  0.00  0.00    +0.000 C 
BRANCH  41  44
ATOM     42  O   UNL     1     113.392 124.270 137.120  0.00  0.00    +0.000 OA
ATOM     43  O   UNL     1     113.793 125.191 136.104  0.00  0.00    +0.000 OA
ATOM     44  C   UNL     1     113.241 124.941 136.665  0.00  0.00    +0.000 C 
ENDBRANCH  41  44
ENDBRANCH  32  38
ENDBRANCH   5  32
TORSDOF 6
ENDMDL
MODEL 3
REMARK VINA RESULT:     -10.4      1.941      3.221
REMARK  Name = 131833568
REMARK  6 active torsions:
REMARK  status: ('A' for Active; 'I' for Inactive)
REMARK    1  A    between atoms: O_2  and  C_25
REMARK    2  A    between atoms: O_2  and  C_29
REMARK    3  A    between atoms: C_18  and  C_23
REMARK    4  A    between atoms: C_22  and  C_28
REMARK    5  A    between atoms: C_30  and  C_35
REMARK    6  A    between atoms: C_37  and  C_39
REMARK                            x       y       z     vdW  Elec       q    Type
REMARK                         _______ _______ _______ _____ _____    ______ ____
ROOT
ATOM      1  O   UNL     1     112.241 127.105 137.701  0.00  0.00    +0.000 OA
ATOM      2  O   UNL     1     109.511 127.128 138.665  0.00  0.00    +0.000 OA
ATOM      3  O   UNL     1     110.244 125.885 138.670  0.00  0.00    +0.000 OA
ATOM      4  C   UNL     1     111.458 128.328 137.718  0.00  0.00    +0.000 A 
ATOM      5  C   UNL     1     110.759 128.737 137.878  0.00  0.00    +0.000 A 
ATOM      6  C   UNL     1     111.508 127.519 137.873  0.00  0.00    +0.000 A 
ATOM      7  C   UNL     1     110.858 127.120 138.189  0.00  0.00    +0.000 A 
ATOM      8  C   UNL     1     110.111 128.337 138.194  0.00  0.00    +0.000 A 
ATOM      9  C   UNL     1     110.160 127.528 138.349  0.00  0.00    +0.000 A 
ATOM     10  C   UNL     1     110.897 126.278 138.354  0.00  0.00    +0.000 A 
ATOM     11  C   UNL     1     112.298 126.263 137.861  0.00  0.00    +0.000 A 
ATOM     12  C   UNL     1     111.622 125.846 138.189  0.00  0.00    +0.000 A 
ENDROOT
BRANCH   4  17
ATOM     13  O   UNL     1     112.225 128.742 136.585  0.00  0.00    +0.000 OA
ATOM     14  O   UNL     1     112.518 129.101 138.718  0.00  0.00    +0.000 OA
ATOM     15  O   UNL     1     113.815 129.902 138.086  0.00  0.00    +0.000 OA
ATOM     16  O   UNL     1     114.051 129.930 136.453  0.00  0.00    +0.000 OA
ATOM     17  C   UNL     1     112.106 128.728 137.402  0.00  0.00    +0.000 C 
ATOM     18  C   UNL     1     112.637 129.115 137.903  0.00  0.00    +0.000 C 
ATOM     19  C   UNL     1     113.285 129.515 137.586  0.00  0.00    +0.000 C 
ATOM     20  C   UNL     1     113.403 129.529 136.770  0.00  0.00    +0.000 C 
ATOM     21  C   UNL     1     112.873 129.143 136.270  0.00  0.00    +0.000 C 
BRANCH  21  23
ATOM     22  O   UNL     1     112.374 128.954 134.944  0.00  0.00    +0.000 OA
ATOM     23  C   UNL     1     112.991 129.157 135.453  0.00  0.00    +0.000 C 
ENDBRANCH  21  23
ENDBRANCH   4  17
BRANCH  11  26
ATOM     24  O   UNL     1     113.868 124.636 136.112  0.00  0.00    +0.000 OA
ATOM     25  O   UNL     1     115.096 124.637 137.214  0.00  0.00    +0.000 OA
ATOM     26  C   UNL     1     112.998 125.856 137.699  0.00  0.00    +0.000 A 
ATOM     27  C   UNL     1     113.083 125.449 136.987  0.00  0.00    +0.000 A 
ATOM     28  C   UNL     1     113.612 125.857 138.250  0.00  0.00    +0.000 A 
ATOM     29  C   UNL     1     113.782 125.043 136.825  0.00  0.00    +0.000 A 
ATOM     30  C   UNL     1     114.311 125.451 138.089  0.00  0.00    +0.000 A 
ATOM     31  C   UNL     1     114.396 125.044 137.376  0.00  0.00    +0.000 A 
ENDBRANCH  11  26
BRANCH   5  32
ATOM     32  O   UNL     1     110.710 129.546 137.723  0.00  0.00    +0.000 OA
BRANCH  32  38
ATOM     33  O   UNL     1     109.671 129.581 136.742  0.00  0.00    +0.000 OA
ATOM     34  O   UNL     1     109.971 130.768 138.549  0.00  0.00    +0.000 OA
ATOM     35  O   UNL     1     108.563 131.415 137.981  0.00  0.00    +0.000 OA
ATOM     36  O   UNL     1     107.894 130.838 136.588  0.00  0.00    +0.000 OA
ATOM     37  C   UNL     1     109.637 130.480 137.852  0.00  0.00    +0.000 C 
ATOM     38  C   UNL     1     110.006 129.869 137.439  0.00  0.00    +0.000 C 
ATOM     39  C   UNL     1     108.932 130.803 137.568  0.00  0.00    +0.000 C 
ATOM     40  C   UNL     1     108.598 130.515 136.871  0.00  0.00    +0.000 C 
ATOM     41  C   UNL     1     108.968 129.904 136.458  0.00  0.00    +0.000 C 
BRANCH  41  44
ATOM     42  O   UNL     1     108.004 129.083 135.795  0.00  0.00    +0.000 OA
ATOM     43  O   UNL     1     108.928 129.861 135.031  0.00  0.00    +0.000 OA
ATOM     44  C   UNL     1     108.633 129.616 135.762  0.00  0.00    +0.000 C 
ENDBRANCH  41  44
ENDBRANCH  32  38
ENDBRANCH   5  32
TORSDOF 6
ENDMDL
MODEL 4
REMARK VINA RESULT:     -10.3      1.803      2.621
REMARK  Name = 131833568
REMARK  6 active torsions:
REMARK  status: ('A' for Active; 'I' for Inactive)
REMARK    1  A    between atoms: O_2  and  C_25
REMARK    2  A    between atoms: O_2  and  C_29
REMARK    3  A    between atoms: C_18  and  C_23
REMARK    4  A    between atoms: C_22  and  C_28
REMARK    5  A    between atoms: C_30  and  C_35
REMARK    6  A    between atoms: C_37  and  C_39
REMARK                            x       y       z     vdW  Elec       q    Type
REMARK                         _______ _______ _______ _____ _____    ______ ____
ROOT
ATOM      1  O   UNL     1     112.198 127.034 136.587  0.00  0.00    +0.000 OA
ATOM      2  O   UNL     1     109.316 126.821 136.421  0.00  0.00    +0.000 OA
ATOM      3  O   UNL     1     110.083 125.657 136.795  0.00  0.00    +0.000 OA
ATOM      4  C   UNL     1     111.379 128.174 136.216  0.00  0.00    +0.000 A 
ATOM      5  C   UNL     1     110.643 128.518 136.066  0.00  0.00    +0.000 A 
ATOM      6  C   UNL     1     111.426 127.380 136.434  0.00  0.00    +0.000 A 
ATOM      7  C   UNL     1     110.739 126.929 136.502  0.00  0.00    +0.000 A 
ATOM      8  C   UNL     1     109.956 128.066 136.135  0.00  0.00    +0.000 A 
ATOM      9  C   UNL     1     110.004 127.272 136.353  0.00  0.00    +0.000 A 
ATOM     10  C   UNL     1     110.776 126.101 136.728  0.00  0.00    +0.000 A 
ATOM     11  C   UNL     1     112.254 126.208 136.814  0.00  0.00    +0.000 A 
ATOM     12  C   UNL     1     111.539 125.738 136.886  0.00  0.00    +0.000 A 
ENDROOT
BRANCH   4  17
ATOM     13  O   UNL     1     112.383 128.996 136.813  0.00  0.00    +0.000 OA
ATOM     14  O   UNL     1     112.117 128.337 134.749  0.00  0.00    +0.000 OA
ATOM     15  O   UNL     1     113.491 129.241 134.613  0.00  0.00    +0.000 OA
ATOM     16  O   UNL     1     114.126 129.981 135.943  0.00  0.00    +0.000 OA
ATOM     17  C   UNL     1     112.065 128.626 136.147  0.00  0.00    +0.000 C 
ATOM     18  C   UNL     1     112.434 128.707 135.414  0.00  0.00    +0.000 C 
ATOM     19  C   UNL     1     113.121 129.159 135.346  0.00  0.00    +0.000 C 
ATOM     20  C   UNL     1     113.439 129.529 136.011  0.00  0.00    +0.000 C 
ATOM     21  C   UNL     1     113.070 129.448 136.744  0.00  0.00    +0.000 C 
BRANCH  21  23
ATOM     22  O   UNL     1     112.908 129.975 138.062  0.00  0.00    +0.000 OA
ATOM     23  C   UNL     1     113.388 129.818 137.410  0.00  0.00    +0.000 C 
ENDBRANCH  21  23
ENDBRANCH   4  17
BRANCH  11  26
ATOM     24  O   UNL     1     114.424 125.687 138.599  0.00  0.00    +0.000 OA
ATOM     25  O   UNL     1     115.200 124.846 137.410  0.00  0.00    +0.000 OA
ATOM     26  C   UNL     1     112.991 125.867 136.963  0.00  0.00    +0.000 A 
ATOM     27  C   UNL     1     113.340 125.947 137.706  0.00  0.00    +0.000 A 
ATOM     28  C   UNL     1     113.379 125.447 136.368  0.00  0.00    +0.000 A 
ATOM     29  C   UNL     1     114.076 125.607 137.856  0.00  0.00    +0.000 A 
ATOM     30  C   UNL     1     114.116 125.106 136.517  0.00  0.00    +0.000 A 
ATOM     31  C   UNL     1     114.464 125.187 137.261  0.00  0.00    +0.000 A 
ENDBRANCH  11  26
BRANCH   5  32
ATOM     32  O   UNL     1     110.595 129.312 135.848  0.00  0.00    +0.000 OA
BRANCH  32  38
ATOM     33  O   UNL     1     109.845 129.904 136.911  0.00  0.00    +0.000 OA
ATOM     34  O   UNL     1     109.555 129.970 134.748  0.00  0.00    +0.000 OA
ATOM     35  O   UNL     1     108.286 130.891 135.262  0.00  0.00    +0.000 OA
ATOM     36  O   UNL     1     108.057 131.154 136.873  0.00  0.00    +0.000 OA
ATOM     37  C   UNL     1     109.441 130.101 135.555  0.00  0.00    +0.000 C 
ATOM     38  C   UNL     1     109.961 129.772 136.104  0.00  0.00    +0.000 C 
ATOM     39  C   UNL     1     108.806 130.562 135.811  0.00  0.00    +0.000 C 
ATOM     40  C   UNL     1     108.692 130.693 136.618  0.00  0.00    +0.000 C 
ATOM     41  C   UNL     1     109.211 130.364 137.167  0.00  0.00    +0.000 C 
BRANCH  41  44
ATOM     42  O   UNL     1     108.569 130.024 138.398  0.00  0.00    +0.000 OA
ATOM     43  O   UNL     1     109.509 131.100 138.355  0.00  0.00    +0.000 OA
ATOM     44  C   UNL     1     109.097 130.496 137.973  0.00  0.00    +0.000 C 
ENDBRANCH  41  44
ENDBRANCH  32  38
ENDBRANCH   5  32
TORSDOF 6
ENDMDL
MODEL 5
REMARK VINA RESULT:     -10.2      0.970      4.889
REMARK  Name = 131833568
REMARK  6 active torsions:
REMARK  status: ('A' for Active; 'I' for Inactive)
REMARK    1  A    between atoms: O_2  and  C_25
REMARK    2  A    between atoms: O_2  and  C_29
REMARK    3  A    between atoms: C_18  and  C_23
REMARK    4  A    between atoms: C_22  and  C_28
REMARK    5  A    between atoms: C_30  and  C_35
REMARK    6  A    between atoms: C_37  and  C_39
REMARK                            x       y       z     vdW  Elec       q    Type
REMARK                         _______ _______ _______ _____ _____    ______ ____
ROOT
ATOM      1  O   UNL     1     110.503 130.094 136.578  0.00  0.00    +0.000 OA
ATOM      2  O   UNL     1     108.604 127.920 136.352  0.00  0.00    +0.000 OA
ATOM      3  O   UNL     1     108.110 129.267 136.509  0.00  0.00    +0.000 OA
ATOM      4  C   UNL     1     110.945 128.720 136.419  0.00  0.00    +0.000 A 
ATOM      5  C   UNL     1     110.786 127.915 136.330  0.00  0.00    +0.000 A 
ATOM      6  C   UNL     1     110.324 129.258 136.486  0.00  0.00    +0.000 A 
ATOM      7  C   UNL     1     109.543 128.991 136.463  0.00  0.00    +0.000 A 
ATOM      8  C   UNL     1     110.006 127.649 136.308  0.00  0.00    +0.000 A 
ATOM      9  C   UNL     1     109.384 128.187 136.375  0.00  0.00    +0.000 A 
ATOM     10  C   UNL     1     108.887 129.542 136.532  0.00  0.00    +0.000 A 
ATOM     11  C   UNL     1     109.859 130.659 136.648  0.00  0.00    +0.000 A 
ATOM     12  C   UNL     1     109.046 130.382 136.625  0.00  0.00    +0.000 A 
ENDROOT
BRANCH   4  17
ATOM     13  O   UNL     1     112.108 129.081 137.167  0.00  0.00    +0.000 OA
ATOM     14  O   UNL     1     111.742 129.061 135.015  0.00  0.00    +0.000 OA
ATOM     15  O   UNL     1     113.304 129.592 135.061  0.00  0.00    +0.000 OA
ATOM     16  O   UNL     1     114.068 129.783 136.511  0.00  0.00    +0.000 OA
ATOM     17  C   UNL     1     111.726 128.986 136.441  0.00  0.00    +0.000 C 
ATOM     18  C   UNL     1     112.124 129.156 135.739  0.00  0.00    +0.000 C 
ATOM     19  C   UNL     1     112.905 129.422 135.763  0.00  0.00    +0.000 C 
ATOM     20  C   UNL     1     113.287 129.517 136.487  0.00  0.00    +0.000 C 
ATOM     21  C   UNL     1     112.889 129.347 137.189  0.00  0.00    +0.000 C 
BRANCH  21  23
ATOM     22  O   UNL     1     112.952 129.103 138.596  0.00  0.00    +0.000 OA
ATOM     23  C   UNL     1     113.271 129.442 137.915  0.00  0.00    +0.000 C 
ENDBRANCH  21  23
ENDBRANCH   4  17
BRANCH  11  26
ATOM     24  O   UNL     1     110.494 132.885 138.325  0.00  0.00    +0.000 OA
ATOM     25  O   UNL     1     110.506 133.875 137.005  0.00  0.00    +0.000 OA
ATOM     26  C   UNL     1     110.021 131.463 136.737  0.00  0.00    +0.000 A 
ATOM     27  C   UNL     1     110.176 131.772 137.486  0.00  0.00    +0.000 A 
ATOM     28  C   UNL     1     110.027 131.958 136.077  0.00  0.00    +0.000 A 
ATOM     29  C   UNL     1     110.338 132.576 137.576  0.00  0.00    +0.000 A 
ATOM     30  C   UNL     1     110.189 132.762 136.166  0.00  0.00    +0.000 A 
ATOM     31  C   UNL     1     110.345 133.071 136.916  0.00  0.00    +0.000 A 
ENDBRANCH  11  26
BRANCH   5  32
ATOM     32  O   UNL     1     111.408 127.376 136.263  0.00  0.00    +0.000 OA
BRANCH  32  38
ATOM     33  O   UNL     1     111.233 126.573 137.432  0.00  0.00    +0.000 OA
ATOM     34  O   UNL     1     111.528 126.011 135.344  0.00  0.00    +0.000 OA
ATOM     35  O   UNL     1     111.413 124.526 136.053  0.00  0.00    +0.000 OA
ATOM     36  O   UNL     1     111.178 124.406 137.681  0.00  0.00    +0.000 OA
ATOM     37  C   UNL     1     111.411 125.952 136.158  0.00  0.00    +0.000 C 
ATOM     38  C   UNL     1     111.350 126.634 136.618  0.00  0.00    +0.000 C 
ATOM     39  C   UNL     1     111.353 125.209 136.513  0.00  0.00    +0.000 C 
ATOM     40  C   UNL     1     111.235 125.149 137.327  0.00  0.00    +0.000 C 
ATOM     41  C   UNL     1     111.175 125.832 137.787  0.00  0.00    +0.000 C 
BRANCH  41  44
ATOM     42  O   UNL     1     110.296 125.672 138.902  0.00  0.00    +0.000 OA
ATOM     43  O   UNL     1     111.702 125.810 139.114  0.00  0.00    +0.000 OA
ATOM     44  C   UNL     1     111.057 125.771 138.601  0.00  0.00    +0.000 C 
ENDBRANCH  41  44
ENDBRANCH  32  38
ENDBRANCH   5  32
TORSDOF 6
ENDMDL
MODEL 6
REMARK VINA RESULT:     -10.2      2.224      3.846
REMARK  Name = 131833568
REMARK  6 active torsions:
REMARK  status: ('A' for Active; 'I' for Inactive)
REMARK    1  A    between atoms: O_2  and  C_25
REMARK    2  A    between atoms: O_2  and  C_29
REMARK    3  A    between atoms: C_18  and  C_23
REMARK    4  A    between atoms: C_22  and  C_28
REMARK    5  A    between atoms: C_30  and  C_35
REMARK    6  A    between atoms: C_37  and  C_39
REMARK                            x       y       z     vdW  Elec       q    Type
REMARK                         _______ _______ _______ _____ _____    ______ ____
ROOT
ATOM      1  O   UNL     1     112.350 127.018 137.960  0.00  0.00    +0.000 OA
ATOM      2  O   UNL     1     112.911 129.794 137.357  0.00  0.00    +0.000 OA
ATOM      3  O   UNL     1     113.438 128.768 136.489  0.00  0.00    +0.000 OA
ATOM      4  C   UNL     1     111.843 128.089 138.800  0.00  0.00    +0.000 A 
ATOM      5  C   UNL     1     111.766 128.891 138.981  0.00  0.00    +0.000 A 
ATOM      6  C   UNL     1     112.276 127.856 138.138  0.00  0.00    +0.000 A 
ATOM      7  C   UNL     1     112.632 128.424 137.657  0.00  0.00    +0.000 A 
ATOM      8  C   UNL     1     112.122 129.458 138.500  0.00  0.00    +0.000 A 
ATOM      9  C   UNL     1     112.555 129.225 137.838  0.00  0.00    +0.000 A 
ATOM     10  C   UNL     1     113.086 128.194 136.965  0.00  0.00    +0.000 A 
ATOM     11  C   UNL     1     112.799 126.770 137.272  0.00  0.00    +0.000 A 
ATOM     12  C   UNL     1     113.170 127.361 136.770  0.00  0.00    +0.000 A 
ENDROOT
BRANCH   4  17
ATOM     13  O   UNL     1     110.731 127.244 139.101  0.00  0.00    +0.000 OA
ATOM     14  O   UNL     1     112.642 127.509 140.123  0.00  0.00    +0.000 OA
ATOM     15  O   UNL     1     111.928 126.374 141.085  0.00  0.00    +0.000 OA
ATOM     16  O   UNL     1     110.417 125.819 140.725  0.00  0.00    +0.000 OA
ATOM     17  C   UNL     1     111.487 127.522 139.281  0.00  0.00    +0.000 C 
ATOM     18  C   UNL     1     111.886 127.232 139.943  0.00  0.00    +0.000 C 
ATOM     19  C   UNL     1     111.529 126.664 140.424  0.00  0.00    +0.000 C 
ATOM     20  C   UNL     1     110.774 126.387 140.244  0.00  0.00    +0.000 C 
ATOM     21  C   UNL     1     110.375 126.677 139.582  0.00  0.00    +0.000 C 
BRANCH  21  23
ATOM     22  O   UNL     1     109.175 126.767 138.811  0.00  0.00    +0.000 OA
ATOM     23  C   UNL     1     109.618 126.399 139.402  0.00  0.00    +0.000 C 
ENDBRANCH  21  23
ENDBRANCH   4  17
BRANCH  11  26
ATOM     24  O   UNL     1     111.739 124.382 136.113  0.00  0.00    +0.000 OA
ATOM     25  O   UNL     1     113.101 123.562 136.556  0.00  0.00    +0.000 OA
ATOM     26  C   UNL     1     112.875 125.968 137.093  0.00  0.00    +0.000 A 
ATOM     27  C   UNL     1     112.270 125.575 136.692  0.00  0.00    +0.000 A 
ATOM     28  C   UNL     1     113.556 125.558 137.314  0.00  0.00    +0.000 A 
ATOM     29  C   UNL     1     112.345 124.774 136.513  0.00  0.00    +0.000 A 
ATOM     30  C   UNL     1     113.632 124.756 137.136  0.00  0.00    +0.000 A 
ATOM     31  C   UNL     1     113.026 124.364 136.735  0.00  0.00    +0.000 A 
ENDBRANCH  11  26
BRANCH   5  32
ATOM     32  O   UNL     1     111.333 129.124 139.644  0.00  0.00    +0.000 OA
BRANCH  32  38
ATOM     33  O   UNL     1     110.288 129.880 139.028  0.00  0.00    +0.000 OA
ATOM     34  O   UNL     1     111.551 130.328 140.751  0.00  0.00    +0.000 OA
ATOM     35  O   UNL     1     110.616 131.686 140.689  0.00  0.00    +0.000 OA
ATOM     36  O   UNL     1     109.463 131.840 139.519  0.00  0.00    +0.000 OA
ATOM     37  C   UNL     1     110.975 130.404 140.166  0.00  0.00    +0.000 C 
ATOM     38  C   UNL     1     110.865 129.803 139.612  0.00  0.00    +0.000 C 
ATOM     39  C   UNL     1     110.507 131.084 140.135  0.00  0.00    +0.000 C 
ATOM     40  C   UNL     1     109.930 131.161 139.550  0.00  0.00    +0.000 C 
ATOM     41  C   UNL     1     109.821 130.559 138.996  0.00  0.00    +0.000 C 
BRANCH  41  44
ATOM     42  O   UNL     1     109.401 131.077 137.733  0.00  0.00    +0.000 OA
ATOM     43  O   UNL     1     108.510 130.272 138.507  0.00  0.00    +0.000 OA
ATOM     44  C   UNL     1     109.245 130.636 138.412  0.00  0.00    +0.000 C 
ENDBRANCH  41  44
ENDBRANCH  32  38
ENDBRANCH   5  32
TORSDOF 6
ENDMDL
MODEL 7
REMARK VINA RESULT:     -10.2      1.869      3.114
REMARK  Name = 131833568
REMARK  6 active torsions:
REMARK  status: ('A' for Active; 'I' for Inactive)
REMARK    1  A    between atoms: O_2  and  C_25
REMARK    2  A    between atoms: O_2  and  C_29
REMARK    3  A    between atoms: C_18  and  C_23
REMARK    4  A    between atoms: C_22  and  C_28
REMARK    5  A    between atoms: C_30  and  C_35
REMARK    6  A    between atoms: C_37  and  C_39
REMARK                            x       y       z     vdW  Elec       q    Type
REMARK                         _______ _______ _______ _____ _____    ______ ____
ROOT
ATOM      1  O   UNL     1     112.649 127.388 137.905  0.00  0.00    +0.000 OA
ATOM      2  O   UNL     1     111.754 128.741 140.303  0.00  0.00    +0.000 OA
ATOM      3  O   UNL     1     112.214 127.376 140.400  0.00  0.00    +0.000 OA
ATOM      4  C   UNL     1     112.177 128.761 137.864  0.00  0.00    +0.000 A 
ATOM      5  C   UNL     1     111.877 129.434 138.237  0.00  0.00    +0.000 A 
ATOM      6  C   UNL     1     112.336 128.082 138.305  0.00  0.00    +0.000 A 
ATOM      7  C   UNL     1     112.195 128.076 139.118  0.00  0.00    +0.000 A 
ATOM      8  C   UNL     1     111.736 129.427 139.049  0.00  0.00    +0.000 A 
ATOM      9  C   UNL     1     111.895 128.748 139.490  0.00  0.00    +0.000 A 
ATOM     10  C   UNL     1     112.357 127.375 139.587  0.00  0.00    +0.000 A 
ATOM     11  C   UNL     1     112.817 126.679 138.359  0.00  0.00    +0.000 A 
ATOM     12  C   UNL     1     112.670 126.671 139.205  0.00  0.00    +0.000 A 
ENDROOT
BRANCH   4  17
ATOM     13  O   UNL     1     111.734 128.505 136.530  0.00  0.00    +0.000 OA
ATOM     14  O   UNL     1     113.622 129.303 137.281  0.00  0.00    +0.000 OA
ATOM     15  O   UNL     1     113.902 129.318 135.655  0.00  0.00    +0.000 OA
ATOM     16  O   UNL     1     112.737 128.790 134.612  0.00  0.00    +0.000 OA
ATOM     17  C   UNL     1     112.318 128.769 137.051  0.00  0.00    +0.000 C 
ATOM     18  C   UNL     1     113.040 129.040 136.760  0.00  0.00    +0.000 C 
ATOM     19  C   UNL     1     113.180 129.047 135.946  0.00  0.00    +0.000 C 
ATOM     20  C   UNL     1     112.598 128.783 135.425  0.00  0.00    +0.000 C 
ATOM     21  C   UNL     1     111.875 128.512 135.717  0.00  0.00    +0.000 C 
BRANCH  21  23
ATOM     22  O   UNL     1     110.530 128.094 135.473  0.00  0.00    +0.000 OA
ATOM     23  C   UNL     1     111.292 128.248 135.196  0.00  0.00    +0.000 C 
ENDBRANCH  21  23
ENDBRANCH   4  17
BRANCH  11  26
ATOM     24  O   UNL     1     115.045 125.064 137.585  0.00  0.00    +0.000 OA
ATOM     25  O   UNL     1     114.018 123.996 136.859  0.00  0.00    +0.000 OA
ATOM     26  C   UNL     1     113.117 126.008 137.984  0.00  0.00    +0.000 A 
ATOM     27  C   UNL     1     113.930 125.871 137.972  0.00  0.00    +0.000 A 
ATOM     28  C   UNL     1     112.604 125.473 137.621  0.00  0.00    +0.000 A 
ATOM     29  C   UNL     1     114.231 125.201 137.597  0.00  0.00    +0.000 A 
ATOM     30  C   UNL     1     112.904 124.803 137.246  0.00  0.00    +0.000 A 
ATOM     31  C   UNL     1     113.718 124.667 137.234  0.00  0.00    +0.000 A 
ENDBRANCH  11  26
BRANCH   5  32
ATOM     32  O   UNL     1     111.717 130.113 137.796  0.00  0.00    +0.000 OA
BRANCH  32  38
ATOM     33  O   UNL     1     110.312 130.241 138.024  0.00  0.00    +0.000 OA
ATOM     34  O   UNL     1     111.910 131.727 138.080  0.00  0.00    +0.000 OA
ATOM     35  O   UNL     1     110.602 132.662 138.450  0.00  0.00    +0.000 OA
ATOM     36  O   UNL     1     109.101 131.983 138.535  0.00  0.00    +0.000 OA
ATOM     37  C   UNL     1     111.160 131.387 138.123  0.00  0.00    +0.000 C 
ATOM     38  C   UNL     1     111.063 130.580 137.981  0.00  0.00    +0.000 C 
ATOM     39  C   UNL     1     110.505 131.855 138.308  0.00  0.00    +0.000 C 
ATOM     40  C   UNL     1     109.755 131.515 138.351  0.00  0.00    +0.000 C 
ATOM     41  C   UNL     1     109.659 130.708 138.209  0.00  0.00    +0.000 C 
BRANCH  41  44
ATOM     42  O   UNL     1     108.578 130.189 138.986  0.00  0.00    +0.000 OA
ATOM     43  O   UNL     1     108.488 130.210 137.560  0.00  0.00    +0.000 OA
ATOM     44  C   UNL     1     108.908 130.369 138.252  0.00  0.00    +0.000 C 
ENDBRANCH  41  44
ENDBRANCH  32  38
ENDBRANCH   5  32
TORSDOF 6
ENDMDL
MODEL 8
REMARK VINA RESULT:     -10.0      1.794      3.216
REMARK  Name = 131833568
REMARK  6 active torsions:
REMARK  status: ('A' for Active; 'I' for Inactive)
REMARK    1  A    between atoms: O_2  and  C_25
REMARK    2  A    between atoms: O_2  and  C_29
REMARK    3  A    between atoms: C_18  and  C_23
REMARK    4  A    between atoms: C_22  and  C_28
REMARK    5  A    between atoms: C_30  and  C_35
REMARK    6  A    between atoms: C_37  and  C_39
REMARK                            x       y       z     vdW  Elec       q    Type
REMARK                         _______ _______ _______ _____ _____    ______ ____
ROOT
ATOM      1  O   UNL     1     112.516 127.344 136.585  0.00  0.00    +0.000 OA
ATOM      2  O   UNL     1     113.227 129.812 135.249  0.00  0.00    +0.000 OA
ATOM      3  O   UNL     1     114.240 128.803 135.439  0.00  0.00    +0.000 OA
ATOM      4  C   UNL     1     111.535 128.393 136.368  0.00  0.00    +0.000 A 
ATOM      5  C   UNL     1     111.325 129.138 136.081  0.00  0.00    +0.000 A 
ATOM      6  C   UNL     1     112.309 128.122 136.282  0.00  0.00    +0.000 A 
ATOM      7  C   UNL     1     112.873 128.595 135.909  0.00  0.00    +0.000 A 
ATOM      8  C   UNL     1     111.889 129.610 135.709  0.00  0.00    +0.000 A 
ATOM      9  C   UNL     1     112.663 129.339 135.622  0.00  0.00    +0.000 A 
ATOM     10  C   UNL     1     113.682 128.323 135.813  0.00  0.00    +0.000 A 
ATOM     11  C   UNL     1     113.321 127.056 136.498  0.00  0.00    +0.000 A 
ATOM     12  C   UNL     1     113.908 127.549 136.110  0.00  0.00    +0.000 A 
ENDROOT
BRANCH   4  17
ATOM     13  O   UNL     1     110.884 127.952 137.561  0.00  0.00    +0.000 OA
ATOM     14  O   UNL     1     110.581 127.386 135.475  0.00  0.00    +0.000 OA
ATOM     15  O   UNL     1     109.452 126.442 136.222  0.00  0.00    +0.000 OA
ATOM     16  O   UNL     1     109.278 126.504 137.861  0.00  0.00    +0.000 OA
ATOM     17  C   UNL     1     110.971 127.921 136.741  0.00  0.00    +0.000 C 
ATOM     18  C   UNL     1     110.494 127.417 136.294  0.00  0.00    +0.000 C 
ATOM     19  C   UNL     1     109.929 126.945 136.668  0.00  0.00    +0.000 C 
ATOM     20  C   UNL     1     109.842 126.976 137.487  0.00  0.00    +0.000 C 
ATOM     21  C   UNL     1     110.320 127.480 137.934  0.00  0.00    +0.000 C 
BRANCH  21  23
ATOM     22  O   UNL     1     110.589 128.119 139.183  0.00  0.00    +0.000 OA
ATOM     23  C   UNL     1     110.233 127.511 138.754  0.00  0.00    +0.000 C 
ENDBRANCH  21  23
ENDBRANCH   4  17
BRANCH  11  26
ATOM     24  O   UNL     1     113.527 124.230 136.128  0.00  0.00    +0.000 OA
ATOM     25  O   UNL     1     114.151 124.077 137.647  0.00  0.00    +0.000 OA
ATOM     26  C   UNL     1     113.528 126.311 136.786  0.00  0.00    +0.000 A 
ATOM     27  C   UNL     1     113.424 125.643 136.313  0.00  0.00    +0.000 A 
ATOM     28  C   UNL     1     113.840 126.235 137.545  0.00  0.00    +0.000 A 
ATOM     29  C   UNL     1     113.631 124.898 136.600  0.00  0.00    +0.000 A 
ATOM     30  C   UNL     1     114.048 125.490 137.833  0.00  0.00    +0.000 A 
ATOM     31  C   UNL     1     113.943 124.822 137.360  0.00  0.00    +0.000 A 
ENDBRANCH  11  26
BRANCH   5  32
ATOM     32  O   UNL     1     110.550 129.410 136.167  0.00  0.00    +0.000 OA
BRANCH  32  38
ATOM     33  O   UNL     1     110.776 130.618 136.896  0.00  0.00    +0.000 OA
ATOM     34  O   UNL     1     109.520 130.210 135.158  0.00  0.00    +0.000 OA
ATOM     35  O   UNL     1     109.230 131.819 135.381  0.00  0.00    +0.000 OA
ATOM     36  O   UNL     1     109.970 132.627 136.614  0.00  0.00    +0.000 OA
ATOM     37  C   UNL     1     109.890 130.614 135.774  0.00  0.00    +0.000 C 
ATOM     38  C   UNL     1     110.406 130.213 136.279  0.00  0.00    +0.000 C 
ATOM     39  C   UNL     1     109.745 131.419 135.886  0.00  0.00    +0.000 C 
ATOM     40  C   UNL     1     110.116 131.822 136.503  0.00  0.00    +0.000 C 
ATOM     41  C   UNL     1     110.631 131.422 137.007  0.00  0.00    +0.000 C 
BRANCH  41  44
ATOM     42  O   UNL     1     111.669 132.287 137.473  0.00  0.00    +0.000 OA
ATOM     43  O   UNL     1     110.703 131.770 138.391  0.00  0.00    +0.000 OA
ATOM     44  C   UNL     1     111.001 131.826 137.623  0.00  0.00    +0.000 C 
ENDBRANCH  41  44
ENDBRANCH  32  38
ENDBRANCH   5  32
TORSDOF 6
ENDMDL
MODEL 9
REMARK VINA RESULT:     -10.0      1.505      5.292
REMARK  Name = 131833568
REMARK  6 active torsions:
REMARK  status: ('A' for Active; 'I' for Inactive)
REMARK    1  A    between atoms: O_2  and  C_25
REMARK    2  A    between atoms: O_2  and  C_29
REMARK    3  A    between atoms: C_18  and  C_23
REMARK    4  A    between atoms: C_22  and  C_28
REMARK    5  A    between atoms: C_30  and  C_35
REMARK    6  A    between atoms: C_37  and  C_39
REMARK                            x       y       z     vdW  Elec       q    Type
REMARK                         _______ _______ _______ _____ _____    ______ ____
ROOT
ATOM      1  O   UNL     1     111.441 130.099 137.102  0.00  0.00    +0.000 OA
ATOM      2  O   UNL     1     111.303 128.343 134.805  0.00  0.00    +0.000 OA
ATOM      3  O   UNL     1     110.538 129.567 134.796  0.00  0.00    +0.000 OA
ATOM      4  C   UNL     1     112.189 128.856 137.059  0.00  0.00    +0.000 A 
ATOM      5  C   UNL     1     112.415 128.161 136.674  0.00  0.00    +0.000 A 
ATOM      6  C   UNL     1     111.668 129.380 136.692  0.00  0.00    +0.000 A 
ATOM      7  C   UNL     1     111.373 129.208 135.940  0.00  0.00    +0.000 A 
ATOM      8  C   UNL     1     112.120 127.991 135.923  0.00  0.00    +0.000 A 
ATOM      9  C   UNL     1     111.598 128.514 135.556  0.00  0.00    +0.000 A 
ATOM     10  C   UNL     1     110.829 129.745 135.548  0.00  0.00    +0.000 A 
ATOM     11  C   UNL     1     110.898 130.648 136.725  0.00  0.00    +0.000 A 
ATOM     12  C   UNL     1     110.590 130.471 135.943  0.00  0.00    +0.000 A 
ENDROOT
BRANCH   4  17
ATOM     13  O   UNL     1     112.069 128.786 138.481  0.00  0.00    +0.000 OA
ATOM     14  O   UNL     1     113.612 129.676 137.220  0.00  0.00    +0.000 OA
ATOM     15  O   UNL     1     114.203 130.016 138.722  0.00  0.00    +0.000 OA
ATOM     16  O   UNL     1     113.371 129.536 140.064  0.00  0.00    +0.000 OA
ATOM     17  C   UNL     1     112.485 129.026 137.809  0.00  0.00    +0.000 C 
ATOM     18  C   UNL     1     113.197 129.436 137.890  0.00  0.00    +0.000 C 
ATOM     19  C   UNL     1     113.491 129.606 138.642  0.00  0.00    +0.000 C 
ATOM     20  C   UNL     1     113.076 129.366 139.312  0.00  0.00    +0.000 C 
ATOM     21  C   UNL     1     112.365 128.956 139.232  0.00  0.00    +0.000 C 
BRANCH  21  23
ATOM     22  O   UNL     1     111.265 128.261 139.822  0.00  0.00    +0.000 OA
ATOM     23  C   UNL     1     111.948 128.716 139.903  0.00  0.00    +0.000 C 
ENDBRANCH  21  23
ENDBRANCH   4  17
BRANCH  11  26
ATOM     24  O   UNL     1     109.257 131.996 138.638  0.00  0.00    +0.000 OA
ATOM     25  O   UNL     1     110.001 133.422 138.271  0.00  0.00    +0.000 OA
ATOM     26  C   UNL     1     110.674 131.342 137.111  0.00  0.00    +0.000 A 
ATOM     27  C   UNL     1     110.078 131.322 137.681  0.00  0.00    +0.000 A 
ATOM     28  C   UNL     1     111.046 132.055 136.928  0.00  0.00    +0.000 A 
ATOM     29  C   UNL     1     109.853 132.015 138.068  0.00  0.00    +0.000 A 
ATOM     30  C   UNL     1     110.822 132.749 137.314  0.00  0.00    +0.000 A 
ATOM     31  C   UNL     1     110.225 132.728 137.884  0.00  0.00    +0.000 A 
ENDBRANCH  11  26
BRANCH   5  32
ATOM     32  O   UNL     1     112.937 127.637 137.041  0.00  0.00    +0.000 OA
BRANCH  32  38
ATOM     33  O   UNL     1     112.130 126.460 137.116  0.00  0.00    +0.000 OA
ATOM     34  O   UNL     1     114.195 126.739 136.465  0.00  0.00    +0.000 OA
ATOM     35  O   UNL     1     114.018 125.112 136.251  0.00  0.00    +0.000 OA
ATOM     36  O   UNL     1     112.582 124.385 136.613  0.00  0.00    +0.000 OA
ATOM     37  C   UNL     1     113.477 126.376 136.646  0.00  0.00    +0.000 C 
ATOM     38  C   UNL     1     112.848 126.825 136.934  0.00  0.00    +0.000 C 
ATOM     39  C   UNL     1     113.388 125.562 136.539  0.00  0.00    +0.000 C 
ATOM     40  C   UNL     1     112.670 125.198 136.721  0.00  0.00    +0.000 C 
ATOM     41  C   UNL     1     112.041 125.648 137.009  0.00  0.00    +0.000 C 
BRANCH  41  44
ATOM     42  O   UNL     1     110.788 125.104 136.588  0.00  0.00    +0.000 OA
ATOM     43  O   UNL     1     111.142 125.099 137.973  0.00  0.00    +0.000 OA
ATOM     44  C   UNL     1     111.324 125.284 137.190  0.00  0.00    +0.000 C 
ENDBRANCH  41  44
ENDBRANCH  32  38
ENDBRANCH   5  32
TORSDOF 6
ENDMDL
MODEL 10
REMARK VINA RESULT:     -10.0      2.418      6.134
REMARK  Name = 131833568
REMARK  6 active torsions:
REMARK  status: ('A' for Active; 'I' for Inactive)
REMARK    1  A    between atoms: O_2  and  C_25
REMARK    2  A    between atoms: O_2  and  C_29
REMARK    3  A    between atoms: C_18  and  C_23
REMARK    4  A    between atoms: C_22  and  C_28
REMARK    5  A    between atoms: C_30  and  C_35
REMARK    6  A    between atoms: C_37  and  C_39
REMARK                            x       y       z     vdW  Elec       q    Type
REMARK                         _______ _______ _______ _____ _____    ______ ____
ROOT
ATOM      1  O   UNL     1     111.430 128.791 138.914  0.00  0.00    +0.000 OA
ATOM      2  O   UNL     1     112.905 128.402 136.453  0.00  0.00    +0.000 OA
ATOM      3  O   UNL     1     112.083 129.580 136.598  0.00  0.00    +0.000 OA
ATOM      4  C   UNL     1     112.271 127.624 138.716  0.00  0.00    +0.000 A 
ATOM      5  C   UNL     1     112.787 127.174 138.254  0.00  0.00    +0.000 A 
ATOM      6  C   UNL     1     111.966 128.333 138.423  0.00  0.00    +0.000 A 
ATOM      7  C   UNL     1     112.178 128.592 137.669  0.00  0.00    +0.000 A 
ATOM      8  C   UNL     1     112.998 127.435 137.500  0.00  0.00    +0.000 A 
ATOM      9  C   UNL     1     112.693 128.143 137.208  0.00  0.00    +0.000 A 
ATOM     10  C   UNL     1     111.867 129.328 137.353  0.00  0.00    +0.000 A 
ATOM     11  C   UNL     1     111.110 129.530 138.614  0.00  0.00    +0.000 A 
ATOM     12  C   UNL     1     111.329 129.801 137.829  0.00  0.00    +0.000 A 
ENDROOT
BRANCH   4  17
ATOM     13  O   UNL     1     111.367 126.928 139.577  0.00  0.00    +0.000 OA
ATOM     14  O   UNL     1     113.234 127.974 140.009  0.00  0.00    +0.000 OA
ATOM     15  O   UNL     1     112.811 127.453 141.517  0.00  0.00    +0.000 OA
ATOM     16  O   UNL     1     111.426 126.582 141.731  0.00  0.00    +0.000 OA
ATOM     17  C   UNL     1     112.060 127.364 139.470  0.00  0.00    +0.000 C 
ATOM     18  C   UNL     1     112.542 127.539 140.117  0.00  0.00    +0.000 C 
ATOM     19  C   UNL     1     112.330 127.278 140.870  0.00  0.00    +0.000 C 
ATOM     20  C   UNL     1     111.638 126.843 140.977  0.00  0.00    +0.000 C 
ATOM     21  C   UNL     1     111.157 126.668 140.330  0.00  0.00    +0.000 C 
BRANCH  21  23
ATOM     22  O   UNL     1     110.251 125.655 139.887  0.00  0.00    +0.000 OA
ATOM     23  C   UNL     1     110.464 126.232 140.437  0.00  0.00    +0.000 C 
ENDBRANCH  21  23
ENDBRANCH   4  17
BRANCH  11  26
ATOM     24  O   UNL     1     108.452 130.156 139.459  0.00  0.00    +0.000 OA
ATOM     25  O   UNL     1     109.047 131.317 140.469  0.00  0.00    +0.000 OA
ATOM     26  C   UNL     1     110.594 129.977 139.078  0.00  0.00    +0.000 A 
ATOM     27  C   UNL     1     109.781 129.843 139.037  0.00  0.00    +0.000 A 
ATOM     28  C   UNL     1     110.891 130.557 139.583  0.00  0.00    +0.000 A 
ATOM     29  C   UNL     1     109.265 130.289 139.500  0.00  0.00    +0.000 A 
ATOM     30  C   UNL     1     110.376 131.004 140.047  0.00  0.00    +0.000 A 
ATOM     31  C   UNL     1     109.562 130.870 140.005  0.00  0.00    +0.000 A 
ENDBRANCH  11  26
BRANCH   5  32
ATOM     32  O   UNL     1     113.092 126.466 138.547  0.00  0.00    +0.000 OA
BRANCH  32  38
ATOM     33  O   UNL     1     112.558 125.510 137.629  0.00  0.00    +0.000 OA
ATOM     34  O   UNL     1     114.593 125.808 138.358  0.00  0.00    +0.000 OA
ATOM     35  O   UNL     1     114.810 124.523 137.346  0.00  0.00    +0.000 OA
ATOM     36  O   UNL     1     113.525 123.896 136.523  0.00  0.00    +0.000 OA
ATOM     37  C   UNL     1     113.951 125.495 137.946  0.00  0.00    +0.000 C 
ATOM     38  C   UNL     1     113.200 125.824 138.041  0.00  0.00    +0.000 C 
ATOM     39  C   UNL     1     114.059 124.852 137.440  0.00  0.00    +0.000 C 
ATOM     40  C   UNL     1     113.417 124.539 137.029  0.00  0.00    +0.000 C 
ATOM     41  C   UNL     1     112.666 124.868 137.123  0.00  0.00    +0.000 C 
BRANCH  41  44
ATOM     42  O   UNL     1     111.843 124.830 135.956  0.00  0.00    +0.000 OA
ATOM     43  O   UNL     1     111.562 123.963 137.056  0.00  0.00    +0.000 OA
ATOM     44  C   UNL     1     112.024 124.554 136.712  0.00  0.00    +0.000 C 
ENDBRANCH  41  44
ENDBRANCH  32  38
ENDBRANCH   5  32
TORSDOF 6
ENDMDL
