MODEL 1
REMARK VINA RESULT:      -8.4      0.000      0.000
REMARK  Name = 44257377
REMARK  3 active torsions:
REMARK  status: ('A' for Active; 'I' for Inactive)
REMARK    1  A    between atoms: O_4  and  C_13
REMARK    2  A    between atoms: O_5  and  C_21
REMARK    3  A    between atoms: C_6  and  C_9
REMARK                            x       y       z     vdW  Elec       q    Type
REMARK                         _______ _______ _______ _____ _____    ______ ____
ROOT
ATOM      1  O   UNL     1     105.413 125.225 145.972  0.00  0.00    +0.000 OA
ATOM      2  O   UNL     1     104.545 124.241 148.137  0.00  0.00    +0.000 OA
ATOM      3  O   UNL     1     108.044 125.328 147.309  0.00  0.00    +0.000 OA
ATOM      4  C   UNL     1     104.285 124.681 146.769  0.00  0.00    +0.000 C 
ATOM      5  C   UNL     1     104.583 125.015 146.036  0.00  0.00    +0.000 C 
ATOM      6  C   UNL     1     104.822 124.561 147.429  0.00  0.00    +0.000 C 
ATOM      7  C   UNL     1     105.649 124.777 147.346  0.00  0.00    +0.000 A 
ATOM      8  C   UNL     1     105.935 125.098 146.642  0.00  0.00    +0.000 A 
ATOM      9  C   UNL     1     106.161 124.660 147.983  0.00  0.00    +0.000 A 
ATOM     10  C   UNL     1     106.958 124.863 147.917  0.00  0.00    +0.000 A 
ATOM     11  C   UNL     1     106.732 125.301 146.575  0.00  0.00    +0.000 A 
ATOM     12  C   UNL     1     107.244 125.184 147.212  0.00  0.00    +0.000 A 
ATOM     13  C   UNL     1     107.585 124.813 148.442  0.00  0.00    +0.000 A 
ATOM     14  C   UNL     1     108.255 125.100 148.067  0.00  0.00    +0.000 A 
ENDROOT
BRANCH   4  15
ATOM     15  C   UNL     1     103.489 124.477 146.840  0.00  0.00    +0.000 A 
ATOM     16  C   UNL     1     103.193 123.825 146.429  0.00  0.00    +0.000 A 
ATOM     17  C   UNL     1     102.989 124.923 147.319  0.00  0.00    +0.000 A 
ATOM     18  C   UNL     1     102.396 123.620 146.499  0.00  0.00    +0.000 A 
ATOM     19  C   UNL     1     102.193 124.719 147.390  0.00  0.00    +0.000 A 
ATOM     20  C   UNL     1     101.896 124.067 146.979  0.00  0.00    +0.000 A 
BRANCH  16  21
ATOM     21  O   UNL     1     103.693 123.378 145.949  0.00  0.00    +0.000 OA
ATOM     22  C   UNL     1     103.392 122.741 145.520  0.00  0.00    +0.000 C 
ENDBRANCH  16  21
BRANCH  20  23
ATOM     23  O   UNL     1     101.100 123.863 147.049  0.00  0.00    +0.000 OA
ATOM     24  C   UNL     1     100.788 123.669 147.788  0.00  0.00    +0.000 C 
ENDBRANCH  20  23
ENDBRANCH   4  15
TORSDOF 3
ENDMDL
MODEL 2
REMARK VINA RESULT:      -8.1     12.923     14.372
REMARK  Name = 44257377
REMARK  3 active torsions:
REMARK  status: ('A' for Active; 'I' for Inactive)
REMARK    1  A    between atoms: O_4  and  C_13
REMARK    2  A    between atoms: O_5  and  C_21
REMARK    3  A    between atoms: C_6  and  C_9
REMARK                            x       y       z     vdW  Elec       q    Type
REMARK                         _______ _______ _______ _____ _____    ______ ____
ROOT
ATOM      1  O   UNL     1     111.562 126.909 136.023  0.00  0.00    +0.000 OA
ATOM      2  O   UNL     1     114.016 126.861 136.646  0.00  0.00    +0.000 OA
ATOM      3  O   UNL     1     111.588 123.997 136.512  0.00  0.00    +0.000 OA
ATOM      4  C   UNL     1     112.846 127.627 136.226  0.00  0.00    +0.000 C 
ATOM      5  C   UNL     1     112.013 127.640 136.015  0.00  0.00    +0.000 C 
ATOM      6  C   UNL     1     113.216 126.883 136.442  0.00  0.00    +0.000 C 
ATOM      7  C   UNL     1     112.750 126.162 136.444  0.00  0.00    +0.000 A 
ATOM      8  C   UNL     1     111.950 126.175 136.242  0.00  0.00    +0.000 A 
ATOM      9  C   UNL     1     113.111 125.450 136.653  0.00  0.00    +0.000 A 
ATOM     10  C   UNL     1     112.673 124.750 136.659  0.00  0.00    +0.000 A 
ATOM     11  C   UNL     1     111.511 125.475 136.247  0.00  0.00    +0.000 A 
ATOM     12  C   UNL     1     111.873 124.763 136.456  0.00  0.00    +0.000 A 
ATOM     13  C   UNL     1     112.875 123.976 136.838  0.00  0.00    +0.000 A 
ATOM     14  C   UNL     1     112.205 123.512 136.747  0.00  0.00    +0.000 A 
ENDROOT
BRANCH   4  15
ATOM     15  C   UNL     1     113.286 128.324 136.221  0.00  0.00    +0.000 A 
ATOM     16  C   UNL     1     113.166 128.892 136.808  0.00  0.00    +0.000 A 
ATOM     17  C   UNL     1     113.846 128.455 135.630  0.00  0.00    +0.000 A 
ATOM     18  C   UNL     1     113.606 129.590 136.803  0.00  0.00    +0.000 A 
ATOM     19  C   UNL     1     114.286 129.153 135.625  0.00  0.00    +0.000 A 
ATOM     20  C   UNL     1     114.167 129.720 136.212  0.00  0.00    +0.000 A 
BRANCH  16  21
ATOM     21  O   UNL     1     112.606 128.762 137.399  0.00  0.00    +0.000 OA
ATOM     22  C   UNL     1     112.482 129.332 137.983  0.00  0.00    +0.000 C 
ENDBRANCH  16  21
BRANCH  20  23
ATOM     23  O   UNL     1     114.607 130.418 136.207  0.00  0.00    +0.000 OA
ATOM     24  C   UNL     1     115.111 130.583 135.574  0.00  0.00    +0.000 C 
ENDBRANCH  20  23
ENDBRANCH   4  15
TORSDOF 3
ENDMDL
MODEL 3
REMARK VINA RESULT:      -8.0      0.876      4.619
REMARK  Name = 44257377
REMARK  3 active torsions:
REMARK  status: ('A' for Active; 'I' for Inactive)
REMARK    1  A    between atoms: O_4  and  C_13
REMARK    2  A    between atoms: O_5  and  C_21
REMARK    3  A    between atoms: C_6  and  C_9
REMARK                            x       y       z     vdW  Elec       q    Type
REMARK                         _______ _______ _______ _____ _____    ______ ____
ROOT
ATOM      1  O   UNL     1     103.111 125.299 147.471  0.00  0.00    +0.000 OA
ATOM      2  O   UNL     1     104.718 123.721 146.314  0.00  0.00    +0.000 OA
ATOM      3  O   UNL     1     100.965 123.564 146.420  0.00  0.00    +0.000 OA
ATOM      4  C   UNL     1     104.503 124.912 147.130  0.00  0.00    +0.000 C 
ATOM      5  C   UNL     1     103.956 125.446 147.522  0.00  0.00    +0.000 C 
ATOM      6  C   UNL     1     104.199 124.239 146.693  0.00  0.00    +0.000 C 
ATOM      7  C   UNL     1     103.351 124.108 146.653  0.00  0.00    +0.000 A 
ATOM      8  C   UNL     1     102.825 124.621 147.029  0.00  0.00    +0.000 A 
ATOM      9  C   UNL     1     103.064 123.460 146.231  0.00  0.00    +0.000 A 
ATOM     10  C   UNL     1     102.251 123.323 146.185  0.00  0.00    +0.000 A 
ATOM     11  C   UNL     1     102.012 124.485 146.983  0.00  0.00    +0.000 A 
ATOM     12  C   UNL     1     101.725 123.836 146.561  0.00  0.00    +0.000 A 
ATOM     13  C   UNL     1     101.811 122.739 145.815  0.00  0.00    +0.000 A 
ATOM     14  C   UNL     1     101.018 122.888 145.960  0.00  0.00    +0.000 A 
ENDROOT
BRANCH   4  15
ATOM     15  C   UNL     1     105.316 125.046 147.175  0.00  0.00    +0.000 A 
ATOM     16  C   UNL     1     105.664 125.633 146.711  0.00  0.00    +0.000 A 
ATOM     17  C   UNL     1     105.782 124.592 147.682  0.00  0.00    +0.000 A 
ATOM     18  C   UNL     1     106.477 125.767 146.755  0.00  0.00    +0.000 A 
ATOM     19  C   UNL     1     106.595 124.726 147.726  0.00  0.00    +0.000 A 
ATOM     20  C   UNL     1     106.943 125.313 147.262  0.00  0.00    +0.000 A 
BRANCH  16  21
ATOM     21  O   UNL     1     105.198 126.087 146.203  0.00  0.00    +0.000 OA
ATOM     22  C   UNL     1     105.542 126.688 145.755  0.00  0.00    +0.000 C 
ENDBRANCH  16  21
BRANCH  20  23
ATOM     23  O   UNL     1     107.755 125.447 147.306  0.00  0.00    +0.000 OA
ATOM     24  C   UNL     1     108.204 125.074 147.890  0.00  0.00    +0.000 C 
ENDBRANCH  20  23
ENDBRANCH   4  15
TORSDOF 3
ENDMDL
MODEL 4
REMARK VINA RESULT:      -8.0     11.787     13.298
REMARK  Name = 44257377
REMARK  3 active torsions:
REMARK  status: ('A' for Active; 'I' for Inactive)
REMARK    1  A    between atoms: O_4  and  C_13
REMARK    2  A    between atoms: O_5  and  C_21
REMARK    3  A    between atoms: C_6  and  C_9
REMARK                            x       y       z     vdW  Elec       q    Type
REMARK                         _______ _______ _______ _____ _____    ______ ____
ROOT
ATOM      1  O   UNL     1     111.349 124.753 136.024  0.00  0.00    +0.000 OA
ATOM      2  O   UNL     1     112.278 127.102 136.199  0.00  0.00    +0.000 OA
ATOM      3  O   UNL     1     113.933 123.864 137.144  0.00  0.00    +0.000 OA
ATOM      4  C   UNL     1     111.179 126.215 135.830  0.00  0.00    +0.000 C 
ATOM      5  C   UNL     1     110.866 125.417 135.772  0.00  0.00    +0.000 C 
ATOM      6  C   UNL     1     111.971 126.339 136.139  0.00  0.00    +0.000 C 
ATOM      7  C   UNL     1     112.439 125.663 136.386  0.00  0.00    +0.000 A 
ATOM      8  C   UNL     1     112.139 124.896 136.331  0.00  0.00    +0.000 A 
ATOM      9  C   UNL     1     113.199 125.787 136.683  0.00  0.00    +0.000 A 
ATOM     10  C   UNL     1     113.659 125.145 136.924  0.00  0.00    +0.000 A 
ATOM     11  C   UNL     1     112.598 124.254 136.571  0.00  0.00    +0.000 A 
ATOM     12  C   UNL     1     113.359 124.379 136.868  0.00  0.00    +0.000 A 
ATOM     13  C   UNL     1     114.416 125.096 137.234  0.00  0.00    +0.000 A 
ATOM     14  C   UNL     1     114.585 124.306 137.370  0.00  0.00    +0.000 A 
ENDROOT
BRANCH   4  15
ATOM     15  C   UNL     1     110.722 126.858 135.590  0.00  0.00    +0.000 A 
ATOM     16  C   UNL     1     110.072 127.093 136.041  0.00  0.00    +0.000 A 
ATOM     17  C   UNL     1     110.913 127.267 134.900  0.00  0.00    +0.000 A 
ATOM     18  C   UNL     1     109.614 127.737 135.802  0.00  0.00    +0.000 A 
ATOM     19  C   UNL     1     110.456 127.910 134.660  0.00  0.00    +0.000 A 
ATOM     20  C   UNL     1     109.806 128.145 135.111  0.00  0.00    +0.000 A 
BRANCH  16  21
ATOM     21  O   UNL     1     109.879 126.685 136.732  0.00  0.00    +0.000 OA
ATOM     22  C   UNL     1     109.224 126.914 137.178  0.00  0.00    +0.000 C 
ENDBRANCH  16  21
BRANCH  20  23
ATOM     23  O   UNL     1     109.349 128.789 134.871  0.00  0.00    +0.000 OA
ATOM     24  C   UNL     1     109.712 129.506 134.683  0.00  0.00    +0.000 C 
ENDBRANCH  20  23
ENDBRANCH   4  15
TORSDOF 3
ENDMDL
MODEL 5
REMARK VINA RESULT:      -7.9     11.216     12.331
REMARK  Name = 44257377
REMARK  3 active torsions:
REMARK  status: ('A' for Active; 'I' for Inactive)
REMARK    1  A    between atoms: O_4  and  C_13
REMARK    2  A    between atoms: O_5  and  C_21
REMARK    3  A    between atoms: C_6  and  C_9
REMARK                            x       y       z     vdW  Elec       q    Type
REMARK                         _______ _______ _______ _____ _____    ______ ____
ROOT
ATOM      1  O   UNL     1     113.947 125.806 137.893  0.00  0.00    +0.000 OA
ATOM      2  O   UNL     1     111.514 126.416 138.234  0.00  0.00    +0.000 OA
ATOM      3  O   UNL     1     114.390 126.890 140.604  0.00  0.00    +0.000 OA
ATOM      4  C   UNL     1     112.555 125.850 137.381  0.00  0.00    +0.000 C 
ATOM      5  C   UNL     1     113.381 125.644 137.268  0.00  0.00    +0.000 C 
ATOM      6  C   UNL     1     112.305 126.215 138.117  0.00  0.00    +0.000 C 
ATOM      7  C   UNL     1     112.886 126.369 138.731  0.00  0.00    +0.000 A 
ATOM      8  C   UNL     1     113.680 126.171 138.623  0.00  0.00    +0.000 A 
ATOM      9  C   UNL     1     112.641 126.720 139.437  0.00  0.00    +0.000 A 
ATOM     10  C   UNL     1     113.189 126.873 140.035  0.00  0.00    +0.000 A 
ATOM     11  C   UNL     1     114.229 126.324 139.220  0.00  0.00    +0.000 A 
ATOM     12  C   UNL     1     113.983 126.675 139.926  0.00  0.00    +0.000 A 
ATOM     13  C   UNL     1     113.113 127.208 140.779  0.00  0.00    +0.000 A 
ATOM     14  C   UNL     1     113.854 127.218 141.130  0.00  0.00    +0.000 A 
ENDROOT
BRANCH   4  15
ATOM     15  C   UNL     1     112.004 125.698 136.785  0.00  0.00    +0.000 A 
ATOM     16  C   UNL     1     111.764 124.924 136.634  0.00  0.00    +0.000 A 
ATOM     17  C   UNL     1     111.694 126.320 136.342  0.00  0.00    +0.000 A 
ATOM     18  C   UNL     1     111.213 124.771 136.038  0.00  0.00    +0.000 A 
ATOM     19  C   UNL     1     111.143 126.168 135.746  0.00  0.00    +0.000 A 
ATOM     20  C   UNL     1     110.903 125.394 135.594  0.00  0.00    +0.000 A 
BRANCH  16  21
ATOM     21  O   UNL     1     112.074 124.301 137.078  0.00  0.00    +0.000 OA
ATOM     22  C   UNL     1     111.872 123.523 136.894  0.00  0.00    +0.000 C 
ENDBRANCH  16  21
BRANCH  20  23
ATOM     23  O   UNL     1     110.353 125.242 134.999  0.00  0.00    +0.000 OA
ATOM     24  C   UNL     1     109.740 125.776 134.858  0.00  0.00    +0.000 C 
ENDBRANCH  20  23
ENDBRANCH   4  15
TORSDOF 3
ENDMDL
MODEL 6
REMARK VINA RESULT:      -7.9      2.287      3.753
REMARK  Name = 44257377
REMARK  3 active torsions:
REMARK  status: ('A' for Active; 'I' for Inactive)
REMARK    1  A    between atoms: O_4  and  C_13
REMARK    2  A    between atoms: O_5  and  C_21
REMARK    3  A    between atoms: C_6  and  C_9
REMARK                            x       y       z     vdW  Elec       q    Type
REMARK                         _______ _______ _______ _____ _____    ______ ____
ROOT
ATOM      1  O   UNL     1     105.206 125.028 147.034  0.00  0.00    +0.000 OA
ATOM      2  O   UNL     1     107.449 125.837 146.182  0.00  0.00    +0.000 OA
ATOM      3  O   UNL     1     106.670 124.123 149.434  0.00  0.00    +0.000 OA
ATOM      4  C   UNL     1     106.012 125.685 145.974  0.00  0.00    +0.000 C 
ATOM      5  C   UNL     1     105.252 125.409 146.266  0.00  0.00    +0.000 C 
ATOM      6  C   UNL     1     106.715 125.576 146.455  0.00  0.00    +0.000 C 
ATOM      7  C   UNL     1     106.649 125.193 147.221  0.00  0.00    +0.000 A 
ATOM      8  C   UNL     1     105.920 124.928 147.501  0.00  0.00    +0.000 A 
ATOM      9  C   UNL     1     107.328 125.090 147.679  0.00  0.00    +0.000 A 
ATOM     10  C   UNL     1     107.278 124.724 148.416  0.00  0.00    +0.000 A 
ATOM     11  C   UNL     1     105.869 124.561 148.239  0.00  0.00    +0.000 A 
ATOM     12  C   UNL     1     106.549 124.459 148.696  0.00  0.00    +0.000 A 
ATOM     13  C   UNL     1     107.843 124.549 148.983  0.00  0.00    +0.000 A 
ATOM     14  C   UNL     1     107.468 124.178 149.611  0.00  0.00    +0.000 A 
ENDROOT
BRANCH   4  15
ATOM     15  C   UNL     1     106.065 126.051 145.237  0.00  0.00    +0.000 A 
ATOM     16  C   UNL     1     105.989 125.605 144.548  0.00  0.00    +0.000 A 
ATOM     17  C   UNL     1     106.194 126.864 145.189  0.00  0.00    +0.000 A 
ATOM     18  C   UNL     1     106.043 125.971 143.810  0.00  0.00    +0.000 A 
ATOM     19  C   UNL     1     106.248 127.231 144.452  0.00  0.00    +0.000 A 
ATOM     20  C   UNL     1     106.172 126.784 143.762  0.00  0.00    +0.000 A 
BRANCH  16  21
ATOM     21  O   UNL     1     105.860 124.791 144.595  0.00  0.00    +0.000 OA
ATOM     22  C   UNL     1     105.677 124.362 143.915  0.00  0.00    +0.000 C 
ENDBRANCH  16  21
BRANCH  20  23
ATOM     23  O   UNL     1     106.225 127.151 143.025  0.00  0.00    +0.000 OA
ATOM     24  C   UNL     1     106.906 127.572 142.822  0.00  0.00    +0.000 C 
ENDBRANCH  20  23
ENDBRANCH   4  15
TORSDOF 3
ENDMDL
MODEL 7
REMARK VINA RESULT:      -7.8      8.389      9.712
REMARK  Name = 44257377
REMARK  3 active torsions:
REMARK  status: ('A' for Active; 'I' for Inactive)
REMARK    1  A    between atoms: O_4  and  C_13
REMARK    2  A    between atoms: O_5  and  C_21
REMARK    3  A    between atoms: C_6  and  C_9
REMARK                            x       y       z     vdW  Elec       q    Type
REMARK                         _______ _______ _______ _____ _____    ______ ____
ROOT
ATOM      1  O   UNL     1     101.253 131.583 141.834  0.00  0.00    +0.000 OA
ATOM      2  O   UNL     1     103.719 131.677 141.270  0.00  0.00    +0.000 OA
ATOM      3  O   UNL     1     101.293 134.527 141.601  0.00  0.00    +0.000 OA
ATOM      4  C   UNL     1     102.539 130.882 141.597  0.00  0.00    +0.000 C 
ATOM      5  C   UNL     1     101.702 130.853 141.788  0.00  0.00    +0.000 C 
ATOM      6  C   UNL     1     102.916 131.640 141.454  0.00  0.00    +0.000 C 
ATOM      7  C   UNL     1     102.450 132.360 141.505  0.00  0.00    +0.000 A 
ATOM      8  C   UNL     1     101.646 132.332 141.688  0.00  0.00    +0.000 A 
ATOM      9  C   UNL     1     102.816 133.087 141.367  0.00  0.00    +0.000 A 
ATOM     10  C   UNL     1     102.380 133.785 141.412  0.00  0.00    +0.000 A 
ATOM     11  C   UNL     1     101.209 133.031 141.734  0.00  0.00    +0.000 A 
ATOM     12  C   UNL     1     101.576 133.758 141.596  0.00  0.00    +0.000 A 
ATOM     13  C   UNL     1     102.586 134.571 141.306  0.00  0.00    +0.000 A 
ATOM     14  C   UNL     1     101.915 135.028 141.423  0.00  0.00    +0.000 A 
ENDROOT
BRANCH   4  15
ATOM     15  C   UNL     1     102.979 130.185 141.550  0.00  0.00    +0.000 A 
ATOM     16  C   UNL     1     102.883 129.679 140.906  0.00  0.00    +0.000 A 
ATOM     17  C   UNL     1     103.514 129.994 142.148  0.00  0.00    +0.000 A 
ATOM     18  C   UNL     1     103.322 128.981 140.859  0.00  0.00    +0.000 A 
ATOM     19  C   UNL     1     103.954 129.297 142.101  0.00  0.00    +0.000 A 
ATOM     20  C   UNL     1     103.857 128.791 141.457  0.00  0.00    +0.000 A 
BRANCH  16  21
ATOM     21  O   UNL     1     102.347 129.869 140.308  0.00  0.00    +0.000 OA
ATOM     22  C   UNL     1     102.238 129.355 139.672  0.00  0.00    +0.000 C 
ENDBRANCH  16  21
BRANCH  20  23
ATOM     23  O   UNL     1     104.297 128.094 141.411  0.00  0.00    +0.000 OA
ATOM     24  C   UNL     1     104.942 127.979 141.912  0.00  0.00    +0.000 C 
ENDBRANCH  20  23
ENDBRANCH   4  15
TORSDOF 3
ENDMDL
MODEL 8
REMARK VINA RESULT:      -7.8     11.322     13.055
REMARK  Name = 44257377
REMARK  3 active torsions:
REMARK  status: ('A' for Active; 'I' for Inactive)
REMARK    1  A    between atoms: O_4  and  C_13
REMARK    2  A    between atoms: O_5  and  C_21
REMARK    3  A    between atoms: C_6  and  C_9
REMARK                            x       y       z     vdW  Elec       q    Type
REMARK                         _______ _______ _______ _____ _____    ______ ____
ROOT
ATOM      1  O   UNL     1     108.837 127.256 136.407  0.00  0.00    +0.000 OA
ATOM      2  O   UNL     1     111.262 127.199 135.681  0.00  0.00    +0.000 OA
ATOM      3  O   UNL     1     108.748 129.951 135.203  0.00  0.00    +0.000 OA
ATOM      4  C   UNL     1     110.134 126.539 136.333  0.00  0.00    +0.000 C 
ATOM      5  C   UNL     1     109.311 126.560 136.578  0.00  0.00    +0.000 C 
ATOM      6  C   UNL     1     110.472 127.212 135.920  0.00  0.00    +0.000 C 
ATOM      7  C   UNL     1     109.982 127.899 135.759  0.00  0.00    +0.000 A 
ATOM      8  C   UNL     1     109.191 127.920 135.994  0.00  0.00    +0.000 A 
ATOM      9  C   UNL     1     110.311 128.543 135.362  0.00  0.00    +0.000 A 
ATOM     10  C   UNL     1     109.851 129.209 135.201  0.00  0.00    +0.000 A 
ATOM     11  C   UNL     1     108.730 128.585 135.833  0.00  0.00    +0.000 A 
ATOM     12  C   UNL     1     109.060 129.230 135.436  0.00  0.00    +0.000 A 
ATOM     13  C   UNL     1     110.019 129.917 134.825  0.00  0.00    +0.000 A 
ATOM     14  C   UNL     1     109.339 130.374 134.827  0.00  0.00    +0.000 A 
ENDROOT
BRANCH   4  15
ATOM     15  C   UNL     1     110.597 125.875 136.493  0.00  0.00    +0.000 A 
ATOM     16  C   UNL     1     110.811 125.698 137.270  0.00  0.00    +0.000 A 
ATOM     17  C   UNL     1     110.847 125.387 135.876  0.00  0.00    +0.000 A 
ATOM     18  C   UNL     1     111.274 125.034 137.430  0.00  0.00    +0.000 A 
ATOM     19  C   UNL     1     111.310 124.724 136.036  0.00  0.00    +0.000 A 
ATOM     20  C   UNL     1     111.524 124.547 136.813  0.00  0.00    +0.000 A 
BRANCH  16  21
ATOM     21  O   UNL     1     110.561 126.185 137.887  0.00  0.00    +0.000 OA
ATOM     22  C   UNL     1     110.765 126.002 138.665  0.00  0.00    +0.000 C 
ENDBRANCH  16  21
BRANCH  20  23
ATOM     23  O   UNL     1     111.987 123.883 136.973  0.00  0.00    +0.000 OA
ATOM     24  C   UNL     1     112.749 123.827 136.662  0.00  0.00    +0.000 C 
ENDBRANCH  20  23
ENDBRANCH   4  15
TORSDOF 3
ENDMDL
MODEL 9
REMARK VINA RESULT:      -7.5     12.794     13.721
REMARK  Name = 44257377
REMARK  3 active torsions:
REMARK  status: ('A' for Active; 'I' for Inactive)
REMARK    1  A    between atoms: O_4  and  C_13
REMARK    2  A    between atoms: O_5  and  C_21
REMARK    3  A    between atoms: C_6  and  C_9
REMARK                            x       y       z     vdW  Elec       q    Type
REMARK                         _______ _______ _______ _____ _____    ______ ____
ROOT
ATOM      1  O   UNL     1     113.348 126.895 136.491  0.00  0.00    +0.000 OA
ATOM      2  O   UNL     1     110.911 126.697 135.831  0.00  0.00    +0.000 OA
ATOM      3  O   UNL     1     113.249 123.981 136.960  0.00  0.00    +0.000 OA
ATOM      4  C   UNL     1     112.091 127.534 136.024  0.00  0.00    +0.000 C 
ATOM      5  C   UNL     1     112.918 127.598 136.249  0.00  0.00    +0.000 C 
ATOM      6  C   UNL     1     111.705 126.767 136.045  0.00  0.00    +0.000 C 
ATOM      7  C   UNL     1     112.150 126.075 136.290  0.00  0.00    +0.000 A 
ATOM      8  C   UNL     1     112.944 126.137 136.505  0.00  0.00    +0.000 A 
ATOM      9  C   UNL     1     111.774 125.341 136.308  0.00  0.00    +0.000 A 
ATOM     10  C   UNL     1     112.191 124.668 136.542  0.00  0.00    +0.000 A 
ATOM     11  C   UNL     1     113.362 125.464 136.739  0.00  0.00    +0.000 A 
ATOM     12  C   UNL     1     112.985 124.730 136.757  0.00  0.00    +0.000 A 
ATOM     13  C   UNL     1     111.972 123.882 136.613  0.00  0.00    +0.000 A 
ATOM     14  C   UNL     1     112.625 123.458 136.871  0.00  0.00    +0.000 A 
ENDROOT
BRANCH   4  15
ATOM     15  C   UNL     1     111.672 128.205 135.790  0.00  0.00    +0.000 A 
ATOM     16  C   UNL     1     111.469 128.779 136.347  0.00  0.00    +0.000 A 
ATOM     17  C   UNL     1     111.455 128.301 135.001  0.00  0.00    +0.000 A 
ATOM     18  C   UNL     1     111.049 129.450 136.113  0.00  0.00    +0.000 A 
ATOM     19  C   UNL     1     111.035 128.972 134.767  0.00  0.00    +0.000 A 
ATOM     20  C   UNL     1     110.832 129.546 135.323  0.00  0.00    +0.000 A 
BRANCH  16  21
ATOM     21  O   UNL     1     111.686 128.683 137.137  0.00  0.00    +0.000 OA
ATOM     22  C   UNL     1     111.495 129.264 137.691  0.00  0.00    +0.000 C 
ENDBRANCH  16  21
BRANCH  20  23
ATOM     23  O   UNL     1     110.412 130.217 135.089  0.00  0.00    +0.000 OA
ATOM     24  C   UNL     1     109.743 130.139 134.612  0.00  0.00    +0.000 C 
ENDBRANCH  20  23
ENDBRANCH   4  15
TORSDOF 3
ENDMDL
MODEL 10
REMARK VINA RESULT:      -7.5     12.578     13.791
REMARK  Name = 44257377
REMARK  3 active torsions:
REMARK  status: ('A' for Active; 'I' for Inactive)
REMARK    1  A    between atoms: O_4  and  C_13
REMARK    2  A    between atoms: O_5  and  C_21
REMARK    3  A    between atoms: C_6  and  C_9
REMARK                            x       y       z     vdW  Elec       q    Type
REMARK                         _______ _______ _______ _____ _____    ______ ____
ROOT
ATOM      1  O   UNL     1     111.813 128.094 136.958  0.00  0.00    +0.000 OA
ATOM      2  O   UNL     1     113.603 126.605 135.965  0.00  0.00    +0.000 OA
ATOM      3  O   UNL     1     113.563 130.354 136.215  0.00  0.00    +0.000 OA
ATOM      4  C   UNL     1     112.308 126.735 136.625  0.00  0.00    +0.000 C 
ATOM      5  C   UNL     1     111.702 127.242 136.961  0.00  0.00    +0.000 C 
ATOM      6  C   UNL     1     113.017 127.085 136.290  0.00  0.00    +0.000 C 
ATOM      7  C   UNL     1     113.110 127.939 136.295  0.00  0.00    +0.000 A 
ATOM      8  C   UNL     1     112.528 128.427 136.618  0.00  0.00    +0.000 A 
ATOM      9  C   UNL     1     113.793 128.271 135.972  0.00  0.00    +0.000 A 
ATOM     10  C   UNL     1     113.894 129.090 135.971  0.00  0.00    +0.000 A 
ATOM     11  C   UNL     1     112.629 129.246 136.618  0.00  0.00    +0.000 A 
ATOM     12  C   UNL     1     113.312 129.578 136.294  0.00  0.00    +0.000 A 
ATOM     13  C   UNL     1     114.499 129.569 135.696  0.00  0.00    +0.000 A 
ATOM     14  C   UNL     1     114.294 130.349 135.846  0.00  0.00    +0.000 A 
ENDROOT
BRANCH   4  15
ATOM     15  C   UNL     1     112.209 125.916 136.624  0.00  0.00    +0.000 A 
ATOM     16  C   UNL     1     111.644 125.569 136.134  0.00  0.00    +0.000 A 
ATOM     17  C   UNL     1     112.676 125.443 137.114  0.00  0.00    +0.000 A 
ATOM     18  C   UNL     1     111.545 124.749 136.133  0.00  0.00    +0.000 A 
ATOM     19  C   UNL     1     112.577 124.624 137.113  0.00  0.00    +0.000 A 
ATOM     20  C   UNL     1     112.012 124.277 136.622  0.00  0.00    +0.000 A 
BRANCH  16  21
ATOM     21  O   UNL     1     111.177 126.041 135.644  0.00  0.00    +0.000 OA
ATOM     22  C   UNL     1     110.616 125.693 135.150  0.00  0.00    +0.000 C 
ENDBRANCH  16  21
BRANCH  20  23
ATOM     23  O   UNL     1     111.914 123.458 136.622  0.00  0.00    +0.000 OA
ATOM     24  C   UNL     1     111.937 123.039 137.332  0.00  0.00    +0.000 C 
ENDBRANCH  20  23
ENDBRANCH   4  15
TORSDOF 3
ENDMDL
