MODEL 1
REMARK VINA RESULT:     -10.2      0.000      0.000
REMARK  Name = 73829996
REMARK  5 active torsions:
REMARK  status: ('A' for Active; 'I' for Inactive)
REMARK    1  A    between atoms: O_1  and  C_16
REMARK    2  A    between atoms: O_1  and  C_17
REMARK    3  A    between atoms: O_6  and  C_23
REMARK    4  A    between atoms: O_6  and  C_27
REMARK    5  A    between atoms: C_28  and  C_32
REMARK                            x       y       z     vdW  Elec       q    Type
REMARK                         _______ _______ _______ _____ _____    ______ ____
ROOT
ATOM      1  O   UNL     1     110.210 127.704 135.496  0.00  0.00    +0.000 OA
ATOM      2  O   UNL     1     111.852 128.039 137.318  0.00  0.00    +0.000 OA
ATOM      3  O   UNL     1     112.212 126.642 137.289  0.00  0.00    +0.000 OA
ATOM      4  O   UNL     1     110.886 124.872 135.381  0.00  0.00    +0.000 OA
ATOM      5  C   UNL     1     110.862 128.565 136.431  0.00  0.00    +0.000 A 
ATOM      6  C   UNL     1     110.315 128.453 135.824  0.00  0.00    +0.000 A 
ATOM      7  C   UNL     1     111.305 127.927 136.711  0.00  0.00    +0.000 A 
ATOM      8  C   UNL     1     111.200 127.177 136.382  0.00  0.00    +0.000 A 
ATOM      9  C   UNL     1     110.653 127.066 135.775  0.00  0.00    +0.000 A 
ATOM     10  C   UNL     1     111.667 126.521 136.682  0.00  0.00    +0.000 A 
ATOM     11  C   UNL     1     110.534 126.290 135.425  0.00  0.00    +0.000 A 
ATOM     12  C   UNL     1     111.562 125.738 136.344  0.00  0.00    +0.000 A 
ATOM     13  C   UNL     1     110.992 125.621 135.711  0.00  0.00    +0.000 A 
ENDROOT
BRANCH   6  16
ATOM     14  O   UNL     1     108.019 130.145 136.014  0.00  0.00    +0.000 OA
ATOM     15  O   UNL     1     108.545 131.005 134.707  0.00  0.00    +0.000 OA
ATOM     16  C   UNL     1     109.873 129.091 135.545  0.00  0.00    +0.000 A 
ATOM     17  C   UNL     1     109.167 129.299 135.918  0.00  0.00    +0.000 A 
ATOM     18  C   UNL     1     110.136 129.521 134.891  0.00  0.00    +0.000 A 
ATOM     19  C   UNL     1     108.725 129.937 135.639  0.00  0.00    +0.000 A 
ATOM     20  C   UNL     1     109.693 130.159 134.612  0.00  0.00    +0.000 A 
ATOM     21  C   UNL     1     108.988 130.367 134.986  0.00  0.00    +0.000 A 
ENDBRANCH   6  16
BRANCH   5  22
ATOM     22  O   UNL     1     110.967 129.314 136.759  0.00  0.00    +0.000 OA
BRANCH  22  28
ATOM     23  O   UNL     1     112.228 129.552 136.132  0.00  0.00    +0.000 OA
ATOM     24  O   UNL     1     112.939 130.911 138.074  0.00  0.00    +0.000 OA
ATOM     25  O   UNL     1     113.964 130.696 136.798  0.00  0.00    +0.000 OA
ATOM     26  C   UNL     1     111.953 130.113 137.417  0.00  0.00    +0.000 C 
ATOM     27  C   UNL     1     112.702 130.459 137.427  0.00  0.00    +0.000 C 
ATOM     28  C   UNL     1     111.716 129.660 136.770  0.00  0.00    +0.000 C 
ATOM     29  C   UNL     1     113.215 130.351 136.789  0.00  0.00    +0.000 C 
ATOM     30  C   UNL     1     112.977 129.897 136.141  0.00  0.00    +0.000 C 
BRANCH  26  31
ATOM     31  O   UNL     1     111.441 130.221 138.054  0.00  0.00    +0.000 OA
BRANCH  31  36
ATOM     32  O   UNL     1     111.094 131.515 137.557  0.00  0.00    +0.000 OA
ATOM     33  O   UNL     1     110.402 130.429 139.319  0.00  0.00    +0.000 OA
ATOM     34  O   UNL     1     109.536 131.826 139.455  0.00  0.00    +0.000 OA
ATOM     35  O   UNL     1     109.709 133.017 138.325  0.00  0.00    +0.000 OA
ATOM     36  C   UNL     1     111.007 130.920 138.122  0.00  0.00    +0.000 C 
ATOM     37  C   UNL     1     110.488 131.024 138.755  0.00  0.00    +0.000 C 
ATOM     38  C   UNL     1     110.055 131.723 138.822  0.00  0.00    +0.000 C 
ATOM     39  C   UNL     1     110.141 132.317 138.258  0.00  0.00    +0.000 C 
ATOM     40  C   UNL     1     110.661 132.213 137.625  0.00  0.00    +0.000 C 
ATOM     41  C   UNL     1     110.747 132.809 137.060  0.00  0.00    +0.000 C 
ENDBRANCH  31  36
ENDBRANCH  26  31
ENDBRANCH  22  28
ENDBRANCH   5  22
TORSDOF 5
ENDMDL
MODEL 2
REMARK VINA RESULT:     -10.2      1.888      4.903
REMARK  Name = 73829996
REMARK  5 active torsions:
REMARK  status: ('A' for Active; 'I' for Inactive)
REMARK    1  A    between atoms: O_1  and  C_16
REMARK    2  A    between atoms: O_1  and  C_17
REMARK    3  A    between atoms: O_6  and  C_23
REMARK    4  A    between atoms: O_6  and  C_27
REMARK    5  A    between atoms: C_28  and  C_32
REMARK                            x       y       z     vdW  Elec       q    Type
REMARK                         _______ _______ _______ _____ _____    ______ ____
ROOT
ATOM      1  O   UNL     1     111.018 129.941 135.544  0.00  0.00    +0.000 OA
ATOM      2  O   UNL     1     109.778 128.053 136.554  0.00  0.00    +0.000 OA
ATOM      3  O   UNL     1     108.528 128.758 136.408  0.00  0.00    +0.000 OA
ATOM      4  O   UNL     1     108.532 131.424 135.216  0.00  0.00    +0.000 OA
ATOM      5  C   UNL     1     111.010 128.637 136.127  0.00  0.00    +0.000 A 
ATOM      6  C   UNL     1     111.423 129.267 135.790  0.00  0.00    +0.000 A 
ATOM      7  C   UNL     1     110.192 128.682 136.217  0.00  0.00    +0.000 A 
ATOM      8  C   UNL     1     109.786 129.357 135.970  0.00  0.00    +0.000 A 
ATOM      9  C   UNL     1     110.199 129.987 135.634  0.00  0.00    +0.000 A 
ATOM     10  C   UNL     1     108.933 129.392 136.070  0.00  0.00    +0.000 A 
ATOM     11  C   UNL     1     109.789 130.695 135.373  0.00  0.00    +0.000 A 
ATOM     12  C   UNL     1     108.505 130.092 135.815  0.00  0.00    +0.000 A 
ATOM     13  C   UNL     1     108.935 130.748 135.464  0.00  0.00    +0.000 A 
ENDROOT
BRANCH   6  16
ATOM     14  O   UNL     1     114.052 129.566 136.870  0.00  0.00    +0.000 OA
ATOM     15  O   UNL     1     114.698 129.086 135.430  0.00  0.00    +0.000 OA
ATOM     16  C   UNL     1     112.242 129.222 135.700  0.00  0.00    +0.000 A 
ATOM     17  C   UNL     1     112.738 129.416 136.330  0.00  0.00    +0.000 A 
ATOM     18  C   UNL     1     112.566 128.982 134.980  0.00  0.00    +0.000 A 
ATOM     19  C   UNL     1     113.557 129.371 136.240  0.00  0.00    +0.000 A 
ATOM     20  C   UNL     1     113.384 128.936 134.889  0.00  0.00    +0.000 A 
ATOM     21  C   UNL     1     113.880 129.131 135.520  0.00  0.00    +0.000 A 
ENDBRANCH   6  16
BRANCH   5  22
ATOM     22  O   UNL     1     111.415 127.963 136.374  0.00  0.00    +0.000 OA
BRANCH  22  28
ATOM     23  O   UNL     1     110.952 127.136 135.305  0.00  0.00    +0.000 OA
ATOM     24  O   UNL     1     111.016 125.165 136.799  0.00  0.00    +0.000 OA
ATOM     25  O   UNL     1     110.532 124.995 135.231  0.00  0.00    +0.000 OA
ATOM     26  C   UNL     1     111.216 126.564 136.587  0.00  0.00    +0.000 C 
ATOM     27  C   UNL     1     110.995 125.821 136.301  0.00  0.00    +0.000 C 
ATOM     28  C   UNL     1     111.195 127.220 136.089  0.00  0.00    +0.000 C 
ATOM     29  C   UNL     1     110.753 125.737 135.517  0.00  0.00    +0.000 C 
ATOM     30  C   UNL     1     110.731 126.394 135.018  0.00  0.00    +0.000 C 
BRANCH  26  31
ATOM     31  O   UNL     1     111.458 126.648 137.371  0.00  0.00    +0.000 OA
BRANCH  31  36
ATOM     32  O   UNL     1     112.748 126.137 137.028  0.00  0.00    +0.000 OA
ATOM     33  O   UNL     1     111.915 126.742 138.953  0.00  0.00    +0.000 OA
ATOM     34  O   UNL     1     113.433 126.277 139.402  0.00  0.00    +0.000 OA
ATOM     35  O   UNL     1     114.495 125.719 138.269  0.00  0.00    +0.000 OA
ATOM     36  C   UNL     1     112.218 126.416 137.596  0.00  0.00    +0.000 C 
ATOM     37  C   UNL     1     112.446 126.463 138.387  0.00  0.00    +0.000 C 
ATOM     38  C   UNL     1     113.205 126.231 138.611  0.00  0.00    +0.000 C 
ATOM     39  C   UNL     1     113.735 125.952 138.045  0.00  0.00    +0.000 C 
ATOM     40  C   UNL     1     113.507 125.905 137.254  0.00  0.00    +0.000 C 
ATOM     41  C   UNL     1     114.038 125.625 136.686  0.00  0.00    +0.000 C 
ENDBRANCH  31  36
ENDBRANCH  26  31
ENDBRANCH  22  28
ENDBRANCH   5  22
TORSDOF 5
ENDMDL
MODEL 3
REMARK VINA RESULT:     -10.2      3.259      5.177
REMARK  Name = 73829996
REMARK  5 active torsions:
REMARK  status: ('A' for Active; 'I' for Inactive)
REMARK    1  A    between atoms: O_1  and  C_16
REMARK    2  A    between atoms: O_1  and  C_17
REMARK    3  A    between atoms: O_6  and  C_23
REMARK    4  A    between atoms: O_6  and  C_27
REMARK    5  A    between atoms: C_28  and  C_32
REMARK                            x       y       z     vdW  Elec       q    Type
REMARK                         _______ _______ _______ _____ _____    ______ ____
ROOT
ATOM      1  O   UNL     1     113.712 126.165 138.623  0.00  0.00    +0.000 OA
ATOM      2  O   UNL     1     111.591 125.230 137.757  0.00  0.00    +0.000 OA
ATOM      3  O   UNL     1     112.305 124.412 136.808  0.00  0.00    +0.000 OA
ATOM      4  O   UNL     1     115.222 124.541 136.733  0.00  0.00    +0.000 OA
ATOM      5  C   UNL     1     112.285 126.097 138.656  0.00  0.00    +0.000 A 
ATOM      6  C   UNL     1     112.993 126.409 138.944  0.00  0.00    +0.000 A 
ATOM      7  C   UNL     1     112.298 125.542 138.046  0.00  0.00    +0.000 A 
ATOM      8  C   UNL     1     113.018 125.297 137.725  0.00  0.00    +0.000 A 
ATOM      9  C   UNL     1     113.725 125.609 138.013  0.00  0.00    +0.000 A 
ATOM     10  C   UNL     1     113.017 124.718 137.090  0.00  0.00    +0.000 A 
ATOM     11  C   UNL     1     114.481 125.363 137.687  0.00  0.00    +0.000 A 
ATOM     12  C   UNL     1     113.763 124.460 136.752  0.00  0.00    +0.000 A 
ATOM     13  C   UNL     1     114.501 124.784 137.052  0.00  0.00    +0.000 A 
ENDROOT
BRANCH   6  16
ATOM     14  O   UNL     1     113.041 129.131 139.812  0.00  0.00    +0.000 OA
ATOM     15  O   UNL     1     112.944 128.632 141.382  0.00  0.00    +0.000 OA
ATOM     16  C   UNL     1     112.981 126.964 139.553  0.00  0.00    +0.000 A 
ATOM     17  C   UNL     1     113.017 127.770 139.379  0.00  0.00    +0.000 A 
ATOM     18  C   UNL     1     112.932 126.715 140.339  0.00  0.00    +0.000 A 
ATOM     19  C   UNL     1     113.005 128.326 139.988  0.00  0.00    +0.000 A 
ATOM     20  C   UNL     1     112.920 127.271 140.948  0.00  0.00    +0.000 A 
ATOM     21  C   UNL     1     112.956 128.076 140.772  0.00  0.00    +0.000 A 
ENDBRANCH   6  16
BRANCH   5  22
ATOM     22  O   UNL     1     111.566 126.341 138.976  0.00  0.00    +0.000 OA
BRANCH  22  28
ATOM     23  O   UNL     1     111.179 127.122 137.844  0.00  0.00    +0.000 OA
ATOM     24  O   UNL     1     108.803 126.601 138.294  0.00  0.00    +0.000 OA
ATOM     25  O   UNL     1     109.209 127.556 137.012  0.00  0.00    +0.000 OA
ATOM     26  C   UNL     1     110.185 126.471 138.635  0.00  0.00    +0.000 C 
ATOM     27  C   UNL     1     109.595 126.774 138.144  0.00  0.00    +0.000 C 
ATOM     28  C   UNL     1     110.976 126.645 138.485  0.00  0.00    +0.000 C 
ATOM     29  C   UNL     1     109.798 127.252 137.503  0.00  0.00    +0.000 C 
ATOM     30  C   UNL     1     110.591 127.426 137.353  0.00  0.00    +0.000 C 
BRANCH  26  31
ATOM     31  O   UNL     1     109.981 125.993 139.276  0.00  0.00    +0.000 OA
BRANCH  31  36
ATOM     32  O   UNL     1     109.653 127.152 140.046  0.00  0.00    +0.000 OA
ATOM     33  O   UNL     1     109.366 125.029 140.466  0.00  0.00    +0.000 OA
ATOM     34  O   UNL     1     108.730 125.706 141.830  0.00  0.00    +0.000 OA
ATOM     35  O   UNL     1     108.710 127.347 142.005  0.00  0.00    +0.000 OA
ATOM     36  C   UNL     1     109.663 126.332 139.959  0.00  0.00    +0.000 C 
ATOM     37  C   UNL     1     109.356 125.850 140.554  0.00  0.00    +0.000 C 
ATOM     38  C   UNL     1     109.038 126.188 141.235  0.00  0.00    +0.000 C 
ATOM     39  C   UNL     1     109.028 127.008 141.323  0.00  0.00    +0.000 C 
ATOM     40  C   UNL     1     109.335 127.490 140.728  0.00  0.00    +0.000 C 
ATOM     41  C   UNL     1     109.325 128.311 140.815  0.00  0.00    +0.000 C 
ENDBRANCH  31  36
ENDBRANCH  26  31
ENDBRANCH  22  28
ENDBRANCH   5  22
TORSDOF 5
ENDMDL
MODEL 4
REMARK VINA RESULT:     -10.1      2.127      4.183
REMARK  Name = 73829996
REMARK  5 active torsions:
REMARK  status: ('A' for Active; 'I' for Inactive)
REMARK    1  A    between atoms: O_1  and  C_16
REMARK    2  A    between atoms: O_1  and  C_17
REMARK    3  A    between atoms: O_6  and  C_23
REMARK    4  A    between atoms: O_6  and  C_27
REMARK    5  A    between atoms: C_28  and  C_32
REMARK                            x       y       z     vdW  Elec       q    Type
REMARK                         _______ _______ _______ _____ _____    ______ ____
ROOT
ATOM      1  O   UNL     1     112.333 125.355 138.128  0.00  0.00    +0.000 OA
ATOM      2  O   UNL     1     111.465 127.078 136.578  0.00  0.00    +0.000 OA
ATOM      3  O   UNL     1     111.148 126.074 135.593  0.00  0.00    +0.000 OA
ATOM      4  O   UNL     1     111.719 123.271 136.187  0.00  0.00    +0.000 OA
ATOM      5  C   UNL     1     112.052 126.725 137.832  0.00  0.00    +0.000 A 
ATOM      6  C   UNL     1     112.341 126.149 138.348  0.00  0.00    +0.000 A 
ATOM      7  C   UNL     1     111.755 126.504 137.095  0.00  0.00    +0.000 A 
ATOM      8  C   UNL     1     111.747 125.709 136.873  0.00  0.00    +0.000 A 
ATOM      9  C   UNL     1     112.036 125.135 137.390  0.00  0.00    +0.000 A 
ATOM     10  C   UNL     1     111.435 125.493 136.103  0.00  0.00    +0.000 A 
ATOM     11  C   UNL     1     112.034 124.303 137.172  0.00  0.00    +0.000 A 
ATOM     12  C   UNL     1     111.424 124.666 135.867  0.00  0.00    +0.000 A 
ATOM     13  C   UNL     1     111.725 124.067 136.405  0.00  0.00    +0.000 A 
ENDROOT
BRANCH   6  16
ATOM     14  O   UNL     1     111.958 126.550 141.152  0.00  0.00    +0.000 OA
ATOM     15  O   UNL     1     113.529 127.031 141.298  0.00  0.00    +0.000 OA
ATOM     16  C   UNL     1     112.638 126.370 139.086  0.00  0.00    +0.000 A 
ATOM     17  C   UNL     1     112.150 126.350 139.750  0.00  0.00    +0.000 A 
ATOM     18  C   UNL     1     113.424 126.611 139.159  0.00  0.00    +0.000 A 
ATOM     19  C   UNL     1     112.447 126.570 140.488  0.00  0.00    +0.000 A 
ATOM     20  C   UNL     1     113.721 126.831 139.897  0.00  0.00    +0.000 A 
ATOM     21  C   UNL     1     113.232 126.811 140.561  0.00  0.00    +0.000 A 
ENDBRANCH   6  16
BRANCH   5  22
ATOM     22  O   UNL     1     112.059 127.519 138.053  0.00  0.00    +0.000 OA
BRANCH  22  28
ATOM     23  O   UNL     1     110.651 127.599 138.277  0.00  0.00    +0.000 OA
ATOM     24  O   UNL     1     110.675 129.976 137.588  0.00  0.00    +0.000 OA
ATOM     25  O   UNL     1     109.258 129.263 138.042  0.00  0.00    +0.000 OA
ATOM     26  C   UNL     1     111.367 128.747 137.820  0.00  0.00    +0.000 C 
ATOM     27  C   UNL     1     110.667 129.184 137.817  0.00  0.00    +0.000 C 
ATOM     28  C   UNL     1     111.359 127.955 138.050  0.00  0.00    +0.000 C 
ATOM     29  C   UNL     1     109.958 128.827 138.044  0.00  0.00    +0.000 C 
ATOM     30  C   UNL     1     109.950 128.034 138.274  0.00  0.00    +0.000 C 
BRANCH  26  31
ATOM     31  O   UNL     1     112.076 129.104 137.593  0.00  0.00    +0.000 OA
BRANCH  31  36
ATOM     32  O   UNL     1     112.188 129.704 138.885  0.00  0.00    +0.000 OA
ATOM     33  O   UNL     1     113.522 129.768 137.158  0.00  0.00    +0.000 OA
ATOM     34  O   UNL     1     114.358 130.700 138.233  0.00  0.00    +0.000 OA
ATOM     35  O   UNL     1     113.748 130.968 139.742  0.00  0.00    +0.000 OA
ATOM     36  C   UNL     1     112.494 129.570 138.131  0.00  0.00    +0.000 C 
ATOM     37  C   UNL     1     113.217 129.902 137.913  0.00  0.00    +0.000 C 
ATOM     38  C   UNL     1     113.635 130.368 138.450  0.00  0.00    +0.000 C 
ATOM     39  C   UNL     1     113.330 130.502 139.204  0.00  0.00    +0.000 C 
ATOM     40  C   UNL     1     112.607 130.170 139.422  0.00  0.00    +0.000 C 
ATOM     41  C   UNL     1     112.301 130.304 140.177  0.00  0.00    +0.000 C 
ENDBRANCH  31  36
ENDBRANCH  26  31
ENDBRANCH  22  28
ENDBRANCH   5  22
TORSDOF 5
ENDMDL
MODEL 5
REMARK VINA RESULT:     -10.1      1.352      2.963
REMARK  Name = 73829996
REMARK  5 active torsions:
REMARK  status: ('A' for Active; 'I' for Inactive)
REMARK    1  A    between atoms: O_1  and  C_16
REMARK    2  A    between atoms: O_1  and  C_17
REMARK    3  A    between atoms: O_6  and  C_23
REMARK    4  A    between atoms: O_6  and  C_27
REMARK    5  A    between atoms: C_28  and  C_32
REMARK                            x       y       z     vdW  Elec       q    Type
REMARK                         _______ _______ _______ _____ _____    ______ ____
ROOT
ATOM      1  O   UNL     1     112.820 126.742 136.308  0.00  0.00    +0.000 OA
ATOM      2  O   UNL     1     110.595 126.773 137.392  0.00  0.00    +0.000 OA
ATOM      3  O   UNL     1     110.592 125.334 137.491  0.00  0.00    +0.000 OA
ATOM      4  O   UNL     1     112.882 123.834 136.475  0.00  0.00    +0.000 OA
ATOM      5  C   UNL     1     111.697 127.471 136.807  0.00  0.00    +0.000 A 
ATOM      6  C   UNL     1     112.439 127.459 136.446  0.00  0.00    +0.000 A 
ATOM      7  C   UNL     1     111.337 126.763 137.031  0.00  0.00    +0.000 A 
ATOM      8  C   UNL     1     111.719 126.044 136.893  0.00  0.00    +0.000 A 
ATOM      9  C   UNL     1     112.460 126.034 136.532  0.00  0.00    +0.000 A 
ATOM     10  C   UNL     1     111.333 125.314 137.131  0.00  0.00    +0.000 A 
ATOM     11  C   UNL     1     112.868 125.292 136.383  0.00  0.00    +0.000 A 
ATOM     12  C   UNL     1     111.726 124.563 136.990  0.00  0.00    +0.000 A 
ATOM     13  C   UNL     1     112.499 124.551 136.614  0.00  0.00    +0.000 A 
ENDROOT
BRANCH   6  16
ATOM     14  O   UNL     1     114.027 129.744 137.100  0.00  0.00    +0.000 OA
ATOM     15  O   UNL     1     113.878 130.291 135.551  0.00  0.00    +0.000 OA
ATOM     16  C   UNL     1     112.799 128.167 136.222  0.00  0.00    +0.000 A 
ATOM     17  C   UNL     1     113.233 128.602 136.772  0.00  0.00    +0.000 A 
ATOM     18  C   UNL     1     112.724 128.441 135.446  0.00  0.00    +0.000 A 
ATOM     19  C   UNL     1     113.593 129.310 136.549  0.00  0.00    +0.000 A 
ATOM     20  C   UNL     1     113.084 129.149 135.223  0.00  0.00    +0.000 A 
ATOM     21  C   UNL     1     113.519 129.583 135.774  0.00  0.00    +0.000 A 
ENDBRANCH   6  16
BRANCH   5  22
ATOM     22  O   UNL     1     111.315 128.188 136.944  0.00  0.00    +0.000 OA
BRANCH  22  28
ATOM     23  O   UNL     1     110.330 127.997 135.927  0.00  0.00    +0.000 OA
ATOM     24  O   UNL     1     108.707 129.315 137.250  0.00  0.00    +0.000 OA
ATOM     25  O   UNL     1     108.263 128.684 135.791  0.00  0.00    +0.000 OA
ATOM     26  C   UNL     1     110.011 128.752 137.097  0.00  0.00    +0.000 C 
ATOM     27  C   UNL     1     109.248 128.876 136.809  0.00  0.00    +0.000 C 
ATOM     28  C   UNL     1     110.552 128.313 136.657  0.00  0.00    +0.000 C 
ATOM     29  C   UNL     1     109.026 128.560 136.080  0.00  0.00    +0.000 C 
ATOM     30  C   UNL     1     109.568 128.120 135.639  0.00  0.00    +0.000 C 
BRANCH  26  31
ATOM     31  O   UNL     1     110.233 129.067 137.826  0.00  0.00    +0.000 OA
BRANCH  31  36
ATOM     32  O   UNL     1     110.399 130.351 137.220  0.00  0.00    +0.000 OA
ATOM     33  O   UNL     1     110.659 129.702 139.288  0.00  0.00    +0.000 OA
ATOM     34  O   UNL     1     111.038 131.303 139.413  0.00  0.00    +0.000 OA
ATOM     35  O   UNL     1     110.992 132.269 138.076  0.00  0.00    +0.000 OA
ATOM     36  C   UNL     1     110.423 129.868 137.889  0.00  0.00    +0.000 C 
ATOM     37  C   UNL     1     110.636 130.186 138.620  0.00  0.00    +0.000 C 
ATOM     38  C   UNL     1     110.825 130.986 138.682  0.00  0.00    +0.000 C 
ATOM     39  C   UNL     1     110.802 131.469 138.015  0.00  0.00    +0.000 C 
ATOM     40  C   UNL     1     110.589 131.151 137.283  0.00  0.00    +0.000 C 
ATOM     41  C   UNL     1     110.566 131.634 136.614  0.00  0.00    +0.000 C 
ENDBRANCH  31  36
ENDBRANCH  26  31
ENDBRANCH  22  28
ENDBRANCH   5  22
TORSDOF 5
ENDMDL
MODEL 6
REMARK VINA RESULT:     -10.0      1.606      3.223
REMARK  Name = 73829996
REMARK  5 active torsions:
REMARK  status: ('A' for Active; 'I' for Inactive)
REMARK    1  A    between atoms: O_1  and  C_16
REMARK    2  A    between atoms: O_1  and  C_17
REMARK    3  A    between atoms: O_6  and  C_23
REMARK    4  A    between atoms: O_6  and  C_27
REMARK    5  A    between atoms: C_28  and  C_32
REMARK                            x       y       z     vdW  Elec       q    Type
REMARK                         _______ _______ _______ _____ _____    ______ ____
ROOT
ATOM      1  O   UNL     1     112.782 126.472 136.300  0.00  0.00    +0.000 OA
ATOM      2  O   UNL     1     110.665 126.323 137.573  0.00  0.00    +0.000 OA
ATOM      3  O   UNL     1     110.855 124.909 137.780  0.00  0.00    +0.000 OA
ATOM      4  O   UNL     1     113.233 123.619 136.679  0.00  0.00    +0.000 OA
ATOM      5  C   UNL     1     111.617 127.098 136.842  0.00  0.00    +0.000 A 
ATOM      6  C   UNL     1     112.323 127.147 136.417  0.00  0.00    +0.000 A 
ATOM      7  C   UNL     1     111.370 126.373 137.149  0.00  0.00    +0.000 A 
ATOM      8  C   UNL     1     111.830 125.697 137.032  0.00  0.00    +0.000 A 
ATOM      9  C   UNL     1     112.536 125.748 136.608  0.00  0.00    +0.000 A 
ATOM     10  C   UNL     1     111.562 124.949 137.358  0.00  0.00    +0.000 A 
ATOM     11  C   UNL     1     113.023 125.051 136.479  0.00  0.00    +0.000 A 
ATOM     12  C   UNL     1     112.036 124.242 137.239  0.00  0.00    +0.000 A 
ATOM     13  C   UNL     1     112.772 124.293 136.797  0.00  0.00    +0.000 A 
ENDROOT
BRANCH   6  16
ATOM     14  O   UNL     1     113.918 129.509 136.624  0.00  0.00    +0.000 OA
ATOM     15  O   UNL     1     113.309 130.046 135.187  0.00  0.00    +0.000 OA
ATOM     16  C   UNL     1     112.570 127.872 136.110  0.00  0.00    +0.000 A 
ATOM     17  C   UNL     1     113.121 128.328 136.520  0.00  0.00    +0.000 A 
ATOM     18  C   UNL     1     112.265 128.141 135.391  0.00  0.00    +0.000 A 
ATOM     19  C   UNL     1     113.367 129.053 136.213  0.00  0.00    +0.000 A 
ATOM     20  C   UNL     1     112.511 128.865 135.084  0.00  0.00    +0.000 A 
ATOM     21  C   UNL     1     113.063 129.321 135.495  0.00  0.00    +0.000 A 
ENDBRANCH   6  16
BRANCH   5  22
ATOM     22  O   UNL     1     111.158 127.773 136.958  0.00  0.00    +0.000 OA
BRANCH  22  28
ATOM     23  O   UNL     1     111.500 127.929 138.337  0.00  0.00    +0.000 OA
ATOM     24  O   UNL     1     109.255 128.865 138.790  0.00  0.00    +0.000 OA
ATOM     25  O   UNL     1     110.346 128.709 140.017  0.00  0.00    +0.000 OA
ATOM     26  C   UNL     1     110.206 128.319 137.874  0.00  0.00    +0.000 C 
ATOM     27  C   UNL     1     110.003 128.553 138.639  0.00  0.00    +0.000 C 
ATOM     28  C   UNL     1     110.954 128.007 137.723  0.00  0.00    +0.000 C 
ATOM     29  C   UNL     1     110.549 128.475 139.252  0.00  0.00    +0.000 C 
ATOM     30  C   UNL     1     111.298 128.163 139.101  0.00  0.00    +0.000 C 
BRANCH  26  31
ATOM     31  O   UNL     1     109.661 128.397 137.260  0.00  0.00    +0.000 OA
BRANCH  31  36
ATOM     32  O   UNL     1     109.979 129.785 137.149  0.00  0.00    +0.000 OA
ATOM     33  O   UNL     1     108.467 128.581 136.136  0.00  0.00    +0.000 OA
ATOM     34  O   UNL     1     108.188 130.061 135.463  0.00  0.00    +0.000 OA
ATOM     35  O   UNL     1     109.104 131.358 135.913  0.00  0.00    +0.000 OA
ATOM     36  C   UNL     1     109.521 129.138 136.923  0.00  0.00    +0.000 C 
ATOM     37  C   UNL     1     108.924 129.230 136.361  0.00  0.00    +0.000 C 
ATOM     38  C   UNL     1     108.785 129.969 136.025  0.00  0.00    +0.000 C 
ATOM     39  C   UNL     1     109.243 130.617 136.250  0.00  0.00    +0.000 C 
ATOM     40  C   UNL     1     109.840 130.525 136.812  0.00  0.00    +0.000 C 
ATOM     41  C   UNL     1     110.298 131.174 137.037  0.00  0.00    +0.000 C 
ENDBRANCH  31  36
ENDBRANCH  26  31
ENDBRANCH  22  28
ENDBRANCH   5  22
TORSDOF 5
ENDMDL
MODEL 7
REMARK VINA RESULT:      -9.9      2.325      5.451
REMARK  Name = 73829996
REMARK  5 active torsions:
REMARK  status: ('A' for Active; 'I' for Inactive)
REMARK    1  A    between atoms: O_1  and  C_16
REMARK    2  A    between atoms: O_1  and  C_17
REMARK    3  A    between atoms: O_6  and  C_23
REMARK    4  A    between atoms: O_6  and  C_27
REMARK    5  A    between atoms: C_28  and  C_32
REMARK                            x       y       z     vdW  Elec       q    Type
REMARK                         _______ _______ _______ _____ _____    ______ ____
ROOT
ATOM      1  O   UNL     1     113.499 129.730 138.321  0.00  0.00    +0.000 OA
ATOM      2  O   UNL     1     113.206 127.847 139.901  0.00  0.00    +0.000 OA
ATOM      3  O   UNL     1     113.889 128.576 140.941  0.00  0.00    +0.000 OA
ATOM      4  O   UNL     1     114.887 131.262 140.374  0.00  0.00    +0.000 OA
ATOM      5  C   UNL     1     113.012 128.417 138.604  0.00  0.00    +0.000 A 
ATOM      6  C   UNL     1     113.110 129.045 138.079  0.00  0.00    +0.000 A 
ATOM      7  C   UNL     1     113.304 128.475 139.374  0.00  0.00    +0.000 A 
ATOM      8  C   UNL     1     113.693 129.161 139.618  0.00  0.00    +0.000 A 
ATOM      9  C   UNL     1     113.790 129.788 139.091  0.00  0.00    +0.000 A 
ATOM     10  C   UNL     1     113.991 129.209 140.422  0.00  0.00    +0.000 A 
ATOM     11  C   UNL     1     114.193 130.508 139.332  0.00  0.00    +0.000 A 
ATOM     12  C   UNL     1     114.397 129.920 140.681  0.00  0.00    +0.000 A 
ATOM     13  C   UNL     1     114.499 130.575 140.133  0.00  0.00    +0.000 A 
ENDROOT
BRANCH   6  16
ATOM     14  O   UNL     1     111.050 129.562 136.166  0.00  0.00    +0.000 OA
ATOM     15  O   UNL     1     111.945 128.813 135.000  0.00  0.00    +0.000 OA
ATOM     16  C   UNL     1     112.819 128.987 137.309  0.00  0.00    +0.000 A 
ATOM     17  C   UNL     1     112.081 129.303 137.122  0.00  0.00    +0.000 A 
ATOM     18  C   UNL     1     113.267 128.612 136.725  0.00  0.00    +0.000 A 
ATOM     19  C   UNL     1     111.789 129.245 136.352  0.00  0.00    +0.000 A 
ATOM     20  C   UNL     1     112.975 128.554 135.955  0.00  0.00    +0.000 A 
ATOM     21  C   UNL     1     112.236 128.871 135.769  0.00  0.00    +0.000 A 
ENDBRANCH   6  16
BRANCH   5  22
ATOM     22  O   UNL     1     112.624 127.731 138.362  0.00  0.00    +0.000 OA
BRANCH  22  28
ATOM     23  O   UNL     1     111.443 127.989 139.123  0.00  0.00    +0.000 OA
ATOM     24  O   UNL     1     111.072 125.556 139.374  0.00  0.00    +0.000 OA
ATOM     25  O   UNL     1     110.014 126.625 140.051  0.00  0.00    +0.000 OA
ATOM     26  C   UNL     1     111.848 126.643 138.868  0.00  0.00    +0.000 C 
ATOM     27  C   UNL     1     111.196 126.366 139.290  0.00  0.00    +0.000 C 
ATOM     28  C   UNL     1     111.972 127.454 138.784  0.00  0.00    +0.000 C 
ATOM     29  C   UNL     1     110.667 126.901 139.629  0.00  0.00    +0.000 C 
ATOM     30  C   UNL     1     110.790 127.713 139.545  0.00  0.00    +0.000 C 
BRANCH  26  31
ATOM     31  O   UNL     1     112.377 126.109 138.529  0.00  0.00    +0.000 OA
BRANCH  31  36
ATOM     32  O   UNL     1     111.461 125.881 137.456  0.00  0.00    +0.000 OA
ATOM     33  O   UNL     1     113.402 124.982 137.894  0.00  0.00    +0.000 OA
ATOM     34  O   UNL     1     112.998 124.192 136.503  0.00  0.00    +0.000 OA
ATOM     35  O   UNL     1     111.570 124.527 135.747  0.00  0.00    +0.000 OA
ATOM     36  C   UNL     1     112.175 125.713 137.833  0.00  0.00    +0.000 C 
ATOM     37  C   UNL     1     112.688 125.150 137.515  0.00  0.00    +0.000 C 
ATOM     38  C   UNL     1     112.486 124.755 136.820  0.00  0.00    +0.000 C 
ATOM     39  C   UNL     1     111.773 124.922 136.443  0.00  0.00    +0.000 C 
ATOM     40  C   UNL     1     111.260 125.486 136.760  0.00  0.00    +0.000 C 
ATOM     41  C   UNL     1     110.546 125.654 136.382  0.00  0.00    +0.000 C 
ENDBRANCH  31  36
ENDBRANCH  26  31
ENDBRANCH  22  28
ENDBRANCH   5  22
TORSDOF 5
ENDMDL
MODEL 8
REMARK VINA RESULT:      -9.9      1.353      1.771
REMARK  Name = 73829996
REMARK  5 active torsions:
REMARK  status: ('A' for Active; 'I' for Inactive)
REMARK    1  A    between atoms: O_1  and  C_16
REMARK    2  A    between atoms: O_1  and  C_17
REMARK    3  A    between atoms: O_6  and  C_23
REMARK    4  A    between atoms: O_6  and  C_27
REMARK    5  A    between atoms: C_28  and  C_32
REMARK                            x       y       z     vdW  Elec       q    Type
REMARK                         _______ _______ _______ _____ _____    ______ ____
ROOT
ATOM      1  O   UNL     1     110.636 126.462 136.100  0.00  0.00    +0.000 OA
ATOM      2  O   UNL     1     111.456 126.770 138.414  0.00  0.00    +0.000 OA
ATOM      3  O   UNL     1     111.966 125.421 138.444  0.00  0.00    +0.000 OA
ATOM      4  O   UNL     1     111.641 123.727 136.086  0.00  0.00    +0.000 OA
ATOM      5  C   UNL     1     110.797 127.286 137.256  0.00  0.00    +0.000 A 
ATOM      6  C   UNL     1     110.524 127.182 136.484  0.00  0.00    +0.000 A 
ATOM      7  C   UNL     1     111.182 126.667 137.643  0.00  0.00    +0.000 A 
ATOM      8  C   UNL     1     111.294 125.945 137.258  0.00  0.00    +0.000 A 
ATOM      9  C   UNL     1     111.021 125.843 136.487  0.00  0.00    +0.000 A 
ATOM     10  C   UNL     1     111.696 125.309 137.673  0.00  0.00    +0.000 A 
ATOM     11  C   UNL     1     111.131 125.096 136.075  0.00  0.00    +0.000 A 
ATOM     12  C   UNL     1     111.816 124.556 137.277  0.00  0.00    +0.000 A 
ATOM     13  C   UNL     1     111.531 124.448 136.473  0.00  0.00    +0.000 A 
ENDROOT
BRANCH   6  16
ATOM     14  O   UNL     1     108.135 128.649 135.929  0.00  0.00    +0.000 OA
ATOM     15  O   UNL     1     108.984 129.656 134.935  0.00  0.00    +0.000 OA
ATOM     16  C   UNL     1     110.139 127.801 136.097  0.00  0.00    +0.000 A 
ATOM     17  C   UNL     1     109.330 127.916 136.206  0.00  0.00    +0.000 A 
ATOM     18  C   UNL     1     110.564 128.305 135.600  0.00  0.00    +0.000 A 
ATOM     19  C   UNL     1     108.945 128.535 135.819  0.00  0.00    +0.000 A 
ATOM     20  C   UNL     1     110.179 128.923 135.213  0.00  0.00    +0.000 A 
ATOM     21  C   UNL     1     109.369 129.038 135.322  0.00  0.00    +0.000 A 
ENDBRANCH   6  16
BRANCH   5  22
ATOM     22  O   UNL     1     110.686 128.006 137.640  0.00  0.00    +0.000 OA
BRANCH  22  28
ATOM     23  O   UNL     1     112.045 128.429 137.515  0.00  0.00    +0.000 OA
ATOM     24  O   UNL     1     111.862 129.657 139.656  0.00  0.00    +0.000 OA
ATOM     25  O   UNL     1     113.282 129.670 138.816  0.00  0.00    +0.000 OA
ATOM     26  C   UNL     1     111.274 128.832 138.648  0.00  0.00    +0.000 C 
ATOM     27  C   UNL     1     111.923 129.248 138.942  0.00  0.00    +0.000 C 
ATOM     28  C   UNL     1     111.335 128.423 137.935  0.00  0.00    +0.000 C 
ATOM     29  C   UNL     1     112.633 129.254 138.523  0.00  0.00    +0.000 C 
ATOM     30  C   UNL     1     112.694 128.845 137.808  0.00  0.00    +0.000 C 
BRANCH  26  31
ATOM     31  O   UNL     1     110.564 128.825 139.068  0.00  0.00    +0.000 OA
BRANCH  31  36
ATOM     32  O   UNL     1     110.251 130.124 138.560  0.00  0.00    +0.000 OA
ATOM     33  O   UNL     1     109.166 128.831 139.944  0.00  0.00    +0.000 OA
ATOM     34  O   UNL     1     108.154 130.133 139.875  0.00  0.00    +0.000 OA
ATOM     35  O   UNL     1     108.541 131.429 138.930  0.00  0.00    +0.000 OA
ATOM     36  C   UNL     1     110.057 129.476 139.033  0.00  0.00    +0.000 C 
ATOM     37  C   UNL     1     109.358 129.479 139.471  0.00  0.00    +0.000 C 
ATOM     38  C   UNL     1     108.853 130.130 139.437  0.00  0.00    +0.000 C 
ATOM     39  C   UNL     1     109.046 130.777 138.965  0.00  0.00    +0.000 C 
ATOM     40  C   UNL     1     109.745 130.774 138.526  0.00  0.00    +0.000 C 
ATOM     41  C   UNL     1     109.939 131.423 138.053  0.00  0.00    +0.000 C 
ENDBRANCH  31  36
ENDBRANCH  26  31
ENDBRANCH  22  28
ENDBRANCH   5  22
TORSDOF 5
ENDMDL
MODEL 9
REMARK VINA RESULT:      -9.9      1.652      4.337
REMARK  Name = 73829996
REMARK  5 active torsions:
REMARK  status: ('A' for Active; 'I' for Inactive)
REMARK    1  A    between atoms: O_1  and  C_16
REMARK    2  A    between atoms: O_1  and  C_17
REMARK    3  A    between atoms: O_6  and  C_23
REMARK    4  A    between atoms: O_6  and  C_27
REMARK    5  A    between atoms: C_28  and  C_32
REMARK                            x       y       z     vdW  Elec       q    Type
REMARK                         _______ _______ _______ _____ _____    ______ ____
ROOT
ATOM      1  O   UNL     1     109.441 128.656 135.631  0.00  0.00    +0.000 OA
ATOM      2  O   UNL     1     111.339 129.971 136.523  0.00  0.00    +0.000 OA
ATOM      3  O   UNL     1     110.551 131.179 136.499  0.00  0.00    +0.000 OA
ATOM      4  O   UNL     1     107.790 131.055 135.554  0.00  0.00    +0.000 OA
ATOM      5  C   UNL     1     110.791 128.722 136.094  0.00  0.00    +0.000 A 
ATOM      6  C   UNL     1     110.158 128.285 135.797  0.00  0.00    +0.000 A 
ATOM      7  C   UNL     1     110.707 129.532 136.226  0.00  0.00    +0.000 A 
ATOM      8  C   UNL     1     109.988 129.905 136.060  0.00  0.00    +0.000 A 
ATOM      9  C   UNL     1     109.356 129.466 135.763  0.00  0.00    +0.000 A 
ATOM     10  C   UNL     1     109.913 130.749 136.202  0.00  0.00    +0.000 A 
ATOM     11  C   UNL     1     108.604 129.842 135.586  0.00  0.00    +0.000 A 
ATOM     12  C   UNL     1     109.169 131.142 136.031  0.00  0.00    +0.000 A 
ATOM     13  C   UNL     1     108.509 130.686 135.721  0.00  0.00    +0.000 A 
ENDROOT
BRANCH   6  16
ATOM     14  O   UNL     1     110.161 125.604 136.787  0.00  0.00    +0.000 OA
ATOM     15  O   UNL     1     110.497 125.045 135.271  0.00  0.00    +0.000 OA
ATOM     16  C   UNL     1     110.243 127.475 135.666  0.00  0.00    +0.000 A 
ATOM     17  C   UNL     1     110.160 126.944 136.291  0.00  0.00    +0.000 A 
ATOM     18  C   UNL     1     110.411 127.195 134.907  0.00  0.00    +0.000 A 
ATOM     19  C   UNL     1     110.244 126.134 136.160  0.00  0.00    +0.000 A 
ATOM     20  C   UNL     1     110.496 126.385 134.776  0.00  0.00    +0.000 A 
ATOM     21  C   UNL     1     110.412 125.855 135.403  0.00  0.00    +0.000 A 
ENDBRANCH   6  16
BRANCH   5  22
ATOM     22  O   UNL     1     111.508 128.351 136.260  0.00  0.00    +0.000 OA
BRANCH  22  28
ATOM     23  O   UNL     1     112.191 128.863 135.114  0.00  0.00    +0.000 OA
ATOM     24  O   UNL     1     114.309 128.905 136.393  0.00  0.00    +0.000 OA
ATOM     25  O   UNL     1     114.285 129.403 134.820  0.00  0.00    +0.000 OA
ATOM     26  C   UNL     1     112.909 128.628 136.327  0.00  0.00    +0.000 C 
ATOM     27  C   UNL     1     113.603 128.891 135.967  0.00  0.00    +0.000 C 
ATOM     28  C   UNL     1     112.203 128.614 135.901  0.00  0.00    +0.000 C 
ATOM     29  C   UNL     1     113.591 129.140 135.180  0.00  0.00    +0.000 C 
ATOM     30  C   UNL     1     112.885 129.126 134.754  0.00  0.00    +0.000 C 
BRANCH  26  31
ATOM     31  O   UNL     1     112.921 128.379 137.113  0.00  0.00    +0.000 OA
BRANCH  31  36
ATOM     32  O   UNL     1     113.463 127.121 136.707  0.00  0.00    +0.000 OA
ATOM     33  O   UNL     1     112.887 127.860 138.679  0.00  0.00    +0.000 OA
ATOM     34  O   UNL     1     113.413 126.342 139.056  0.00  0.00    +0.000 OA
ATOM     35  O   UNL     1     113.972 125.344 137.868  0.00  0.00    +0.000 OA
ATOM     36  C   UNL     1     113.184 127.620 137.302  0.00  0.00    +0.000 C 
ATOM     37  C   UNL     1     113.167 127.360 138.085  0.00  0.00    +0.000 C 
ATOM     38  C   UNL     1     113.430 126.602 138.273  0.00  0.00    +0.000 C 
ATOM     39  C   UNL     1     113.709 126.103 137.680  0.00  0.00    +0.000 C 
ATOM     40  C   UNL     1     113.726 126.363 136.897  0.00  0.00    +0.000 C 
ATOM     41  C   UNL     1     114.006 125.863 136.302  0.00  0.00    +0.000 C 
ENDBRANCH  31  36
ENDBRANCH  26  31
ENDBRANCH  22  28
ENDBRANCH   5  22
TORSDOF 5
ENDMDL
MODEL 10
REMARK VINA RESULT:      -9.8      1.849      3.357
REMARK  Name = 73829996
REMARK  5 active torsions:
REMARK  status: ('A' for Active; 'I' for Inactive)
REMARK    1  A    between atoms: O_1  and  C_16
REMARK    2  A    between atoms: O_1  and  C_17
REMARK    3  A    between atoms: O_6  and  C_23
REMARK    4  A    between atoms: O_6  and  C_27
REMARK    5  A    between atoms: C_28  and  C_32
REMARK                            x       y       z     vdW  Elec       q    Type
REMARK                         _______ _______ _______ _____ _____    ______ ____
ROOT
ATOM      1  O   UNL     1     112.349 125.886 137.991  0.00  0.00    +0.000 OA
ATOM      2  O   UNL     1     113.115 127.673 136.458  0.00  0.00    +0.000 OA
ATOM      3  O   UNL     1     114.295 126.915 136.118  0.00  0.00    +0.000 OA
ATOM      4  O   UNL     1     114.708 124.300 137.351  0.00  0.00    +0.000 OA
ATOM      5  C   UNL     1     112.152 127.165 137.384  0.00  0.00    +0.000 A 
ATOM      6  C   UNL     1     111.898 126.569 137.895  0.00  0.00    +0.000 A 
ATOM      7  C   UNL     1     112.860 127.077 136.969  0.00  0.00    +0.000 A 
ATOM      8  C   UNL     1     113.313 126.394 137.065  0.00  0.00    +0.000 A 
ATOM      9  C   UNL     1     113.057 125.799 137.575  0.00  0.00    +0.000 A 
ATOM     10  C   UNL     1     114.047 126.315 136.626  0.00  0.00    +0.000 A 
ATOM     11  C   UNL     1     113.519 125.082 137.684  0.00  0.00    +0.000 A 
ATOM     12  C   UNL     1     114.523 125.606 136.722  0.00  0.00    +0.000 A 
ATOM     13  C   UNL     1     114.258 124.984 137.254  0.00  0.00    +0.000 A 
ENDROOT
BRANCH   6  16
ATOM     14  O   UNL     1     109.050 126.353 138.006  0.00  0.00    +0.000 OA
ATOM     15  O   UNL     1     109.067 126.919 139.555  0.00  0.00    +0.000 OA
ATOM     16  C   UNL     1     111.190 126.657 138.310  0.00  0.00    +0.000 A 
ATOM     17  C   UNL     1     110.474 126.461 137.951  0.00  0.00    +0.000 A 
ATOM     18  C   UNL     1     111.199 126.940 139.086  0.00  0.00    +0.000 A 
ATOM     19  C   UNL     1     109.766 126.549 138.366  0.00  0.00    +0.000 A 
ATOM     20  C   UNL     1     110.491 127.028 139.501  0.00  0.00    +0.000 A 
ATOM     21  C   UNL     1     109.775 126.832 139.140  0.00  0.00    +0.000 A 
ENDBRANCH   6  16
BRANCH   5  22
ATOM     22  O   UNL     1     111.700 127.848 137.289  0.00  0.00    +0.000 OA
BRANCH  22  28
ATOM     23  O   UNL     1     112.584 128.687 138.035  0.00  0.00    +0.000 OA
ATOM     24  O   UNL     1     111.953 130.615 136.618  0.00  0.00    +0.000 OA
ATOM     25  O   UNL     1     113.047 130.810 137.838  0.00  0.00    +0.000 OA
ATOM     26  C   UNL     1     111.827 129.231 136.953  0.00  0.00    +0.000 C 
ATOM     27  C   UNL     1     112.163 129.972 137.090  0.00  0.00    +0.000 C 
ATOM     28  C   UNL     1     112.037 128.589 137.425  0.00  0.00    +0.000 C 
ATOM     29  C   UNL     1     112.710 130.070 137.700  0.00  0.00    +0.000 C 
ATOM     30  C   UNL     1     112.921 129.427 138.173  0.00  0.00    +0.000 C 
BRANCH  26  31
ATOM     31  O   UNL     1     111.280 129.133 136.344  0.00  0.00    +0.000 OA
BRANCH  31  36
ATOM     32  O   UNL     1     110.261 129.707 137.165  0.00  0.00    +0.000 OA
ATOM     33  O   UNL     1     110.190 128.955 135.117  0.00  0.00    +0.000 OA
ATOM     34  O   UNL     1     108.627 129.439 135.326  0.00  0.00    +0.000 OA
ATOM     35  O   UNL     1     108.153 130.102 136.760  0.00  0.00    +0.000 OA
ATOM     36  C   UNL     1     110.497 129.376 136.448  0.00  0.00    +0.000 C 
ATOM     37  C   UNL     1     109.953 129.287 135.835  0.00  0.00    +0.000 C 
ATOM     38  C   UNL     1     109.172 129.529 135.939  0.00  0.00    +0.000 C 
ATOM     39  C   UNL     1     108.935 129.860 136.656  0.00  0.00    +0.000 C 
ATOM     40  C   UNL     1     109.479 129.949 137.269  0.00  0.00    +0.000 C 
ATOM     41  C   UNL     1     109.242 130.280 137.987  0.00  0.00    +0.000 C 
ENDBRANCH  31  36
ENDBRANCH  26  31
ENDBRANCH  22  28
ENDBRANCH   5  22
TORSDOF 5
ENDMDL
