MODEL 1
REMARK VINA RESULT:      -8.1      0.000      0.000
REMARK  Name = 591830
REMARK  2 active torsions:
REMARK  status: ('A' for Active; 'I' for Inactive)
REMARK    1  A    between atoms: O_2  and  C_11
REMARK    2  A    between atoms: C_5  and  C_8
REMARK                            x       y       z     vdW  Elec       q    Type
REMARK                         _______ _______ _______ _____ _____    ______ ____
ROOT
ATOM      1  O   UNL     1     112.327 124.167 136.743  0.00  0.00    +0.000 OA
ATOM      2  O   UNL     1     115.137 124.450 137.455  0.00  0.00    +0.000 OA
ATOM      3  C   UNL     1     111.600 125.276 136.213  0.00  0.00    +0.000 C 
ATOM      4  C   UNL     1     112.277 125.746 136.267  0.00  0.00    +0.000 C 
ATOM      5  C   UNL     1     111.625 124.488 136.451  0.00  0.00    +0.000 C 
ATOM      6  C   UNL     1     112.978 125.425 136.559  0.00  0.00    +0.000 A 
ATOM      7  C   UNL     1     113.003 124.636 136.797  0.00  0.00    +0.000 A 
ATOM      8  C   UNL     1     113.676 125.924 136.611  0.00  0.00    +0.000 A 
ATOM      9  C   UNL     1     113.729 124.290 137.104  0.00  0.00    +0.000 A 
ATOM     10  C   UNL     1     114.410 125.596 136.914  0.00  0.00    +0.000 A 
ATOM     11  C   UNL     1     114.436 124.773 137.162  0.00  0.00    +0.000 A 
ENDROOT
BRANCH   3  13
ATOM     12  O   UNL     1     108.794 126.560 135.042  0.00  0.00    +0.000 OA
ATOM     13  C   UNL     1     110.898 125.597 135.921  0.00  0.00    +0.000 A 
ATOM     14  C   UNL     1     110.349 125.929 136.439  0.00  0.00    +0.000 A 
ATOM     15  C   UNL     1     110.747 125.586 135.109  0.00  0.00    +0.000 A 
ATOM     16  C   UNL     1     109.647 126.250 136.146  0.00  0.00    +0.000 A 
ATOM     17  C   UNL     1     110.045 125.907 134.817  0.00  0.00    +0.000 A 
ATOM     18  C   UNL     1     109.496 126.239 135.335  0.00  0.00    +0.000 A 
BRANCH  14  19
ATOM     19  O   UNL     1     110.499 125.940 137.250  0.00  0.00    +0.000 OA
ATOM     20  C   UNL     1     109.947 126.265 137.768  0.00  0.00    +0.000 C 
ENDBRANCH  14  19
ENDBRANCH   3  13
TORSDOF 2
ENDMDL
MODEL 2
REMARK VINA RESULT:      -7.7      1.039      3.911
REMARK  Name = 591830
REMARK  2 active torsions:
REMARK  status: ('A' for Active; 'I' for Inactive)
REMARK    1  A    between atoms: O_2  and  C_11
REMARK    2  A    between atoms: C_5  and  C_8
REMARK                            x       y       z     vdW  Elec       q    Type
REMARK                         _______ _______ _______ _____ _____    ______ ____
ROOT
ATOM      1  O   UNL     1     110.994 124.729 136.263  0.00  0.00    +0.000 OA
ATOM      2  O   UNL     1     109.068 126.161 134.613  0.00  0.00    +0.000 OA
ATOM      3  C   UNL     1     112.282 125.290 136.523  0.00  0.00    +0.000 C 
ATOM      4  C   UNL     1     112.085 125.951 136.068  0.00  0.00    +0.000 C 
ATOM      5  C   UNL     1     111.737 124.680 136.620  0.00  0.00    +0.000 C 
ATOM      6  C   UNL     1     111.343 126.000 135.712  0.00  0.00    +0.000 A 
ATOM      7  C   UNL     1     110.798 125.390 135.809  0.00  0.00    +0.000 A 
ATOM      8  C   UNL     1     111.151 126.694 135.241  0.00  0.00    +0.000 A 
ATOM      9  C   UNL     1     110.021 125.429 135.442  0.00  0.00    +0.000 A 
ATOM     10  C   UNL     1     110.380 126.751 134.867  0.00  0.00    +0.000 A 
ATOM     11  C   UNL     1     109.811 126.114 134.969  0.00  0.00    +0.000 A 
ENDROOT
BRANCH   3  13
ATOM     12  O   UNL     1     115.253 125.093 137.947  0.00  0.00    +0.000 OA
ATOM     13  C   UNL     1     113.024 125.241 136.879  0.00  0.00    +0.000 A 
ATOM     14  C   UNL     1     113.132 125.518 137.649  0.00  0.00    +0.000 A 
ATOM     15  C   UNL     1     113.659 124.914 136.465  0.00  0.00    +0.000 A 
ATOM     16  C   UNL     1     113.875 125.469 138.005  0.00  0.00    +0.000 A 
ATOM     17  C   UNL     1     114.402 124.865 136.821  0.00  0.00    +0.000 A 
ATOM     18  C   UNL     1     114.509 125.143 137.591  0.00  0.00    +0.000 A 
BRANCH  14  19
ATOM     19  O   UNL     1     112.498 125.845 138.063  0.00  0.00    +0.000 OA
ATOM     20  C   UNL     1     112.612 126.148 138.821  0.00  0.00    +0.000 C 
ENDBRANCH  14  19
ENDBRANCH   3  13
TORSDOF 2
ENDMDL
MODEL 3
REMARK VINA RESULT:      -7.7      9.725     11.917
REMARK  Name = 591830
REMARK  2 active torsions:
REMARK  status: ('A' for Active; 'I' for Inactive)
REMARK    1  A    between atoms: O_2  and  C_11
REMARK    2  A    between atoms: C_5  and  C_8
REMARK                            x       y       z     vdW  Elec       q    Type
REMARK                         _______ _______ _______ _____ _____    ______ ____
ROOT
ATOM      1  O   UNL     1     102.739 129.763 140.633  0.00  0.00    +0.000 OA
ATOM      2  O   UNL     1     104.659 127.714 141.407  0.00  0.00    +0.000 OA
ATOM      3  C   UNL     1     102.409 130.822 141.533  0.00  0.00    +0.000 C 
ATOM      4  C   UNL     1     102.928 130.507 142.093  0.00  0.00    +0.000 C 
ATOM      5  C   UNL     1     102.315 130.450 140.804  0.00  0.00    +0.000 C 
ATOM      6  C   UNL     1     103.352 129.821 141.922  0.00  0.00    +0.000 A 
ATOM      7  C   UNL     1     103.258 129.449 141.192  0.00  0.00    +0.000 A 
ATOM      8  C   UNL     1     103.889 129.503 142.514  0.00  0.00    +0.000 A 
ATOM      9  C   UNL     1     103.694 128.733 141.002  0.00  0.00    +0.000 A 
ATOM     10  C   UNL     1     104.334 128.789 142.341  0.00  0.00    +0.000 A 
ATOM     11  C   UNL     1     104.236 128.401 141.580  0.00  0.00    +0.000 A 
ENDROOT
BRANCH   3  13
ATOM     12  O   UNL     1     100.710 133.567 142.220  0.00  0.00    +0.000 OA
ATOM     13  C   UNL     1     101.985 131.508 141.705  0.00  0.00    +0.000 A 
ATOM     14  C   UNL     1     102.286 132.245 141.488  0.00  0.00    +0.000 A 
ATOM     15  C   UNL     1     101.258 131.457 142.093  0.00  0.00    +0.000 A 
ATOM     16  C   UNL     1     101.861 132.932 141.660  0.00  0.00    +0.000 A 
ATOM     17  C   UNL     1     100.834 132.143 142.265  0.00  0.00    +0.000 A 
ATOM     18  C   UNL     1     101.135 132.880 142.048  0.00  0.00    +0.000 A 
BRANCH  14  19
ATOM     19  O   UNL     1     103.012 132.296 141.100  0.00  0.00    +0.000 OA
ATOM     20  C   UNL     1     103.321 133.034 140.897  0.00  0.00    +0.000 C 
ENDBRANCH  14  19
ENDBRANCH   3  13
TORSDOF 2
ENDMDL
MODEL 4
REMARK VINA RESULT:      -7.7     11.672     12.796
REMARK  Name = 591830
REMARK  2 active torsions:
REMARK  status: ('A' for Active; 'I' for Inactive)
REMARK    1  A    between atoms: O_2  and  C_11
REMARK    2  A    between atoms: C_5  and  C_8
REMARK                            x       y       z     vdW  Elec       q    Type
REMARK                         _______ _______ _______ _____ _____    ______ ____
ROOT
ATOM      1  O   UNL     1     105.643 125.337 146.182  0.00  0.00    +0.000 OA
ATOM      2  O   UNL     1     108.220 125.475 147.533  0.00  0.00    +0.000 OA
ATOM      3  C   UNL     1     104.535 124.684 146.804  0.00  0.00    +0.000 C 
ATOM      4  C   UNL     1     105.006 124.508 147.459  0.00  0.00    +0.000 C 
ATOM      5  C   UNL     1     104.853 125.098 146.167  0.00  0.00    +0.000 C 
ATOM      6  C   UNL     1     105.795 124.747 147.474  0.00  0.00    +0.000 A 
ATOM      7  C   UNL     1     106.114 125.161 146.837  0.00  0.00    +0.000 A 
ATOM      8  C   UNL     1     106.276 124.558 148.162  0.00  0.00    +0.000 A 
ATOM      9  C   UNL     1     106.935 125.416 146.841  0.00  0.00    +0.000 A 
ATOM     10  C   UNL     1     107.098 124.803 148.185  0.00  0.00    +0.000 A 
ATOM     11  C   UNL     1     107.431 125.235 147.519  0.00  0.00    +0.000 A 
ENDROOT
BRANCH   3  13
ATOM     12  O   UNL     1     101.376 123.730 146.744  0.00  0.00    +0.000 OA
ATOM     13  C   UNL     1     103.745 124.445 146.789  0.00  0.00    +0.000 A 
ATOM     14  C   UNL     1     103.520 123.794 146.336  0.00  0.00    +0.000 A 
ATOM     15  C   UNL     1     103.181 124.859 147.227  0.00  0.00    +0.000 A 
ATOM     16  C   UNL     1     102.729 123.555 146.321  0.00  0.00    +0.000 A 
ATOM     17  C   UNL     1     102.392 124.620 147.212  0.00  0.00    +0.000 A 
ATOM     18  C   UNL     1     102.166 123.969 146.759  0.00  0.00    +0.000 A 
BRANCH  14  19
ATOM     19  O   UNL     1     104.083 123.380 145.898  0.00  0.00    +0.000 OA
ATOM     20  C   UNL     1     103.855 122.740 145.431  0.00  0.00    +0.000 C 
ENDBRANCH  14  19
ENDBRANCH   3  13
TORSDOF 2
ENDMDL
MODEL 5
REMARK VINA RESULT:      -7.7      9.943     12.395
REMARK  Name = 591830
REMARK  2 active torsions:
REMARK  status: ('A' for Active; 'I' for Inactive)
REMARK    1  A    between atoms: O_2  and  C_11
REMARK    2  A    between atoms: C_5  and  C_8
REMARK                            x       y       z     vdW  Elec       q    Type
REMARK                         _______ _______ _______ _____ _____    ______ ____
ROOT
ATOM      1  O   UNL     1     102.897 132.144 141.092  0.00  0.00    +0.000 OA
ATOM      2  O   UNL     1     100.728 133.909 141.903  0.00  0.00    +0.000 OA
ATOM      3  C   UNL     1     102.897 130.770 141.485  0.00  0.00    +0.000 C 
ATOM      4  C   UNL     1     102.184 130.885 141.885  0.00  0.00    +0.000 C 
ATOM      5  C   UNL     1     103.253 131.399 141.089  0.00  0.00    +0.000 C 
ATOM      6  C   UNL     1     101.828 131.629 141.887  0.00  0.00    +0.000 A 
ATOM      7  C   UNL     1     102.184 132.258 141.491  0.00  0.00    +0.000 A 
ATOM      8  C   UNL     1     101.085 131.735 142.308  0.00  0.00    +0.000 A 
ATOM      9  C   UNL     1     101.824 133.039 141.487  0.00  0.00    +0.000 A 
ATOM     10  C   UNL     1     100.710 132.508 142.315  0.00  0.00    +0.000 A 
ATOM     11  C   UNL     1     101.082 133.164 141.901  0.00  0.00    +0.000 A 
ENDROOT
BRANCH   3  13
ATOM     12  O   UNL     1     104.320 127.792 141.475  0.00  0.00    +0.000 OA
ATOM     13  C   UNL     1     103.252 130.026 141.482  0.00  0.00    +0.000 A 
ATOM     14  C   UNL     1     103.111 129.502 140.860  0.00  0.00    +0.000 A 
ATOM     15  C   UNL     1     103.750 129.804 142.102  0.00  0.00    +0.000 A 
ATOM     16  C   UNL     1     103.467 128.757 140.858  0.00  0.00    +0.000 A 
ATOM     17  C   UNL     1     104.106 129.060 142.100  0.00  0.00    +0.000 A 
ATOM     18  C   UNL     1     103.964 128.537 141.478  0.00  0.00    +0.000 A 
BRANCH  14  19
ATOM     19  O   UNL     1     102.613 129.723 140.240  0.00  0.00    +0.000 OA
ATOM     20  C   UNL     1     102.430 129.182 139.645  0.00  0.00    +0.000 C 
ENDBRANCH  14  19
ENDBRANCH   3  13
TORSDOF 2
ENDMDL
MODEL 6
REMARK VINA RESULT:      -7.6      2.813      4.317
REMARK  Name = 591830
REMARK  2 active torsions:
REMARK  status: ('A' for Active; 'I' for Inactive)
REMARK    1  A    between atoms: O_2  and  C_11
REMARK    2  A    between atoms: C_5  and  C_8
REMARK                            x       y       z     vdW  Elec       q    Type
REMARK                         _______ _______ _______ _____ _____    ______ ____
ROOT
ATOM      1  O   UNL     1     112.196 126.154 139.154  0.00  0.00    +0.000 OA
ATOM      2  O   UNL     1     112.086 127.420 141.775  0.00  0.00    +0.000 OA
ATOM      3  C   UNL     1     113.433 126.063 138.446  0.00  0.00    +0.000 C 
ATOM      4  C   UNL     1     113.817 126.448 139.068  0.00  0.00    +0.000 C 
ATOM      5  C   UNL     1     112.623 125.916 138.490  0.00  0.00    +0.000 C 
ATOM      6  C   UNL     1     113.389 126.686 139.731  0.00  0.00    +0.000 A 
ATOM      7  C   UNL     1     112.579 126.539 139.775  0.00  0.00    +0.000 A 
ATOM      8  C   UNL     1     113.800 127.087 140.372  0.00  0.00    +0.000 A 
ATOM      9  C   UNL     1     112.122 126.782 140.462  0.00  0.00    +0.000 A 
ATOM     10  C   UNL     1     113.360 127.336 141.066  0.00  0.00    +0.000 A 
ATOM     11  C   UNL     1     112.515 127.183 141.112  0.00  0.00    +0.000 A 
ENDROOT
BRANCH   3  13
ATOM     12  O   UNL     1     115.146 125.111 135.790  0.00  0.00    +0.000 OA
ATOM     13  C   UNL     1     113.861 125.826 137.782  0.00  0.00    +0.000 A 
ATOM     14  C   UNL     1     113.862 126.293 137.102  0.00  0.00    +0.000 A 
ATOM     15  C   UNL     1     114.289 125.120 137.798  0.00  0.00    +0.000 A 
ATOM     16  C   UNL     1     114.290 126.055 136.438  0.00  0.00    +0.000 A 
ATOM     17  C   UNL     1     114.717 124.882 137.134  0.00  0.00    +0.000 A 
ATOM     18  C   UNL     1     114.717 125.349 136.455  0.00  0.00    +0.000 A 
BRANCH  14  19
ATOM     19  O   UNL     1     113.435 126.998 137.086  0.00  0.00    +0.000 OA
ATOM     20  C   UNL     1     113.456 127.479 136.415  0.00  0.00    +0.000 C 
ENDBRANCH  14  19
ENDBRANCH   3  13
TORSDOF 2
ENDMDL
MODEL 7
REMARK VINA RESULT:      -7.6      7.253      8.928
REMARK  Name = 591830
REMARK  2 active torsions:
REMARK  status: ('A' for Active; 'I' for Inactive)
REMARK    1  A    between atoms: O_2  and  C_11
REMARK    2  A    between atoms: C_5  and  C_8
REMARK                            x       y       z     vdW  Elec       q    Type
REMARK                         _______ _______ _______ _____ _____    ______ ____
ROOT
ATOM      1  O   UNL     1     102.912 124.009 138.508  0.00  0.00    +0.000 OA
ATOM      2  O   UNL     1     102.203 122.954 135.888  0.00  0.00    +0.000 OA
ATOM      3  C   UNL     1     104.263 123.949 138.971  0.00  0.00    +0.000 C 
ATOM      4  C   UNL     1     104.487 123.581 138.266  0.00  0.00    +0.000 C 
ATOM      5  C   UNL     1     103.476 124.162 139.092  0.00  0.00    +0.000 C 
ATOM      6  C   UNL     1     103.924 123.428 137.684  0.00  0.00    +0.000 A 
ATOM      7  C   UNL     1     103.137 123.642 137.804  0.00  0.00    +0.000 A 
ATOM      8  C   UNL     1     104.171 123.045 136.954  0.00  0.00    +0.000 A 
ATOM      9  C   UNL     1     102.540 123.488 137.204  0.00  0.00    +0.000 A 
ATOM     10  C   UNL     1     103.589 122.883 136.343  0.00  0.00    +0.000 A 
ATOM     11  C   UNL     1     102.768 123.106 136.469  0.00  0.00    +0.000 A 
ENDROOT
BRANCH   3  13
ATOM     12  O   UNL     1     106.518 124.561 141.301  0.00  0.00    +0.000 OA
ATOM     13  C   UNL     1     104.826 124.101 139.554  0.00  0.00    +0.000 A 
ATOM     14  C   UNL     1     104.814 123.677 140.261  0.00  0.00    +0.000 A 
ATOM     15  C   UNL     1     105.402 124.679 139.428  0.00  0.00    +0.000 A 
ATOM     16  C   UNL     1     105.378 123.831 140.844  0.00  0.00    +0.000 A 
ATOM     17  C   UNL     1     105.966 124.832 140.011  0.00  0.00    +0.000 A 
ATOM     18  C   UNL     1     105.954 124.408 140.718  0.00  0.00    +0.000 A 
BRANCH  14  19
ATOM     19  O   UNL     1     104.239 123.100 140.387  0.00  0.00    +0.000 OA
ATOM     20  C   UNL     1     104.170 122.739 141.126  0.00  0.00    +0.000 C 
ENDBRANCH  14  19
ENDBRANCH   3  13
TORSDOF 2
ENDMDL
MODEL 8
REMARK VINA RESULT:      -7.5      7.501      8.198
REMARK  Name = 591830
REMARK  2 active torsions:
REMARK  status: ('A' for Active; 'I' for Inactive)
REMARK    1  A    between atoms: O_2  and  C_11
REMARK    2  A    between atoms: C_5  and  C_8
REMARK                            x       y       z     vdW  Elec       q    Type
REMARK                         _______ _______ _______ _____ _____    ______ ____
ROOT
ATOM      1  O   UNL     1     104.744 125.082 139.356  0.00  0.00    +0.000 OA
ATOM      2  O   UNL     1     106.551 124.703 141.609  0.00  0.00    +0.000 OA
ATOM      3  C   UNL     1     104.334 123.968 138.563  0.00  0.00    +0.000 C 
ATOM      4  C   UNL     1     104.789 123.465 139.034  0.00  0.00    +0.000 C 
ATOM      5  C   UNL     1     104.312 124.776 138.724  0.00  0.00    +0.000 C 
ATOM      6  C   UNL     1     105.221 123.772 139.666  0.00  0.00    +0.000 A 
ATOM      7  C   UNL     1     105.199 124.580 139.827  0.00  0.00    +0.000 A 
ATOM      8  C   UNL     1     105.690 123.238 140.150  0.00  0.00    +0.000 A 
ATOM      9  C   UNL     1     105.645 124.912 140.483  0.00  0.00    +0.000 A 
ATOM     10  C   UNL     1     106.142 123.551 140.809  0.00  0.00    +0.000 A 
ATOM     11  C   UNL     1     106.119 124.394 140.977  0.00  0.00    +0.000 A 
ENDROOT
BRANCH   3  13
ATOM     12  O   UNL     1     102.607 122.739 136.032  0.00  0.00    +0.000 OA
ATOM     13  C   UNL     1     103.902 123.661 137.930  0.00  0.00    +0.000 A 
ATOM     14  C   UNL     1     103.096 123.508 138.017  0.00  0.00    +0.000 A 
ATOM     15  C   UNL     1     104.277 123.507 137.211  0.00  0.00    +0.000 A 
ATOM     16  C   UNL     1     102.664 123.200 137.383  0.00  0.00    +0.000 A 
ATOM     17  C   UNL     1     103.845 123.200 136.579  0.00  0.00    +0.000 A 
ATOM     18  C   UNL     1     103.039 123.046 136.665  0.00  0.00    +0.000 A 
BRANCH  14  19
ATOM     19  O   UNL     1     102.721 123.662 138.735  0.00  0.00    +0.000 OA
ATOM     20  C   UNL     1     101.933 123.442 138.845  0.00  0.00    +0.000 C 
ENDBRANCH  14  19
ENDBRANCH   3  13
TORSDOF 2
ENDMDL
MODEL 9
REMARK VINA RESULT:      -7.4      2.550      3.498
REMARK  Name = 591830
REMARK  2 active torsions:
REMARK  status: ('A' for Active; 'I' for Inactive)
REMARK    1  A    between atoms: O_2  and  C_11
REMARK    2  A    between atoms: C_5  and  C_8
REMARK                            x       y       z     vdW  Elec       q    Type
REMARK                         _______ _______ _______ _____ _____    ______ ____
ROOT
ATOM      1  O   UNL     1     112.375 126.283 136.268  0.00  0.00    +0.000 OA
ATOM      2  O   UNL     1     113.082 123.539 136.941  0.00  0.00    +0.000 OA
ATOM      3  C   UNL     1     113.339 127.330 136.395  0.00  0.00    +0.000 C 
ATOM      4  C   UNL     1     113.898 126.783 136.659  0.00  0.00    +0.000 C 
ATOM      5  C   UNL     1     112.578 127.080 136.199  0.00  0.00    +0.000 C 
ATOM      6  C   UNL     1     113.695 125.987 136.727  0.00  0.00    +0.000 A 
ATOM      7  C   UNL     1     112.934 125.737 136.532  0.00  0.00    +0.000 A 
ATOM      8  C   UNL     1     114.286 125.427 137.004  0.00  0.00    +0.000 A 
ATOM      9  C   UNL     1     112.710 124.909 136.599  0.00  0.00    +0.000 A 
ATOM     10  C   UNL     1     114.081 124.596 137.077  0.00  0.00    +0.000 A 
ATOM     11  C   UNL     1     113.287 124.335 136.874  0.00  0.00    +0.000 A 
ENDROOT
BRANCH   3  13
ATOM     12  O   UNL     1     114.153 130.517 136.119  0.00  0.00    +0.000 OA
ATOM     13  C   UNL     1     113.542 128.127 136.326  0.00  0.00    +0.000 A 
ATOM     14  C   UNL     1     113.359 128.653 136.934  0.00  0.00    +0.000 A 
ATOM     15  C   UNL     1     113.929 128.396 135.649  0.00  0.00    +0.000 A 
ATOM     16  C   UNL     1     113.563 129.451 136.865  0.00  0.00    +0.000 A 
ATOM     17  C   UNL     1     114.133 129.193 135.580  0.00  0.00    +0.000 A 
ATOM     18  C   UNL     1     113.949 129.720 136.188  0.00  0.00    +0.000 A 
BRANCH  14  19
ATOM     19  O   UNL     1     112.972 128.384 137.611  0.00  0.00    +0.000 OA
ATOM     20  C   UNL     1     112.805 128.908 138.227  0.00  0.00    +0.000 C 
ENDBRANCH  14  19
ENDBRANCH   3  13
TORSDOF 2
ENDMDL
MODEL 10
REMARK VINA RESULT:      -7.4      1.684      2.418
REMARK  Name = 591830
REMARK  2 active torsions:
REMARK  status: ('A' for Active; 'I' for Inactive)
REMARK    1  A    between atoms: O_2  and  C_11
REMARK    2  A    between atoms: C_5  and  C_8
REMARK                            x       y       z     vdW  Elec       q    Type
REMARK                         _______ _______ _______ _____ _____    ______ ____
ROOT
ATOM      1  O   UNL     1     110.824 125.103 135.308  0.00  0.00    +0.000 OA
ATOM      2  O   UNL     1     112.394 123.302 136.974  0.00  0.00    +0.000 OA
ATOM      3  C   UNL     1     110.243 126.282 135.867  0.00  0.00    +0.000 C 
ATOM      4  C   UNL     1     110.561 126.090 136.604  0.00  0.00    +0.000 C 
ATOM      5  C   UNL     1     110.374 125.789 135.220  0.00  0.00    +0.000 C 
ATOM      6  C   UNL     1     111.011 125.404 136.692  0.00  0.00    +0.000 A 
ATOM      7  C   UNL     1     111.143 124.911 136.045  0.00  0.00    +0.000 A 
ATOM      8  C   UNL     1     111.338 125.215 137.465  0.00  0.00    +0.000 A 
ATOM      9  C   UNL     1     111.610 124.193 136.124  0.00  0.00    +0.000 A 
ATOM     10  C   UNL     1     111.807 124.503 137.563  0.00  0.00    +0.000 A 
ATOM     11  C   UNL     1     111.944 123.988 136.888  0.00  0.00    +0.000 A 
ENDROOT
BRANCH   3  13
ATOM     12  O   UNL     1     108.441 129.025 135.515  0.00  0.00    +0.000 OA
ATOM     13  C   UNL     1     109.793 126.968 135.779  0.00  0.00    +0.000 A 
ATOM     14  C   UNL     1     110.142 127.656 135.486  0.00  0.00    +0.000 A 
ATOM     15  C   UNL     1     108.993 126.965 135.984  0.00  0.00    +0.000 A 
ATOM     16  C   UNL     1     109.691 128.342 135.398  0.00  0.00    +0.000 A 
ATOM     17  C   UNL     1     108.543 127.651 135.896  0.00  0.00    +0.000 A 
ATOM     18  C   UNL     1     108.892 128.339 135.603  0.00  0.00    +0.000 A 
BRANCH  14  19
ATOM     19  O   UNL     1     110.941 127.659 135.281  0.00  0.00    +0.000 OA
ATOM     20  C   UNL     1     111.290 128.349 134.993  0.00  0.00    +0.000 C 
ENDBRANCH  14  19
ENDBRANCH   3  13
TORSDOF 2
ENDMDL
