MODEL 1
REMARK VINA RESULT:      -8.7      0.000      0.000
REMARK  Name = 15714484
REMARK  4 active torsions:
REMARK  status: ('A' for Active; 'I' for Inactive)
REMARK    1  A    between atoms: O_3  and  C_13
REMARK    2  A    between atoms: C_5  and  C_10
REMARK    3  A    between atoms: C_11  and  C_17
REMARK    4  A    between atoms: C_21  and  C_22
REMARK                            x       y       z     vdW  Elec       q    Type
REMARK                         _______ _______ _______ _____ _____    ______ ____
ROOT
ATOM      1  O   UNL     1     112.648 126.786 136.347  0.00  0.00    +0.000 OA
ATOM      2  O   UNL     1     110.371 126.860 135.240  0.00  0.00    +0.000 OA
ATOM      3  O   UNL     1     110.245 125.439 135.458  0.00  0.00    +0.000 OA
ATOM      4  C   UNL     1     112.345 127.537 136.055  0.00  0.00    +0.000 C 
ATOM      5  C   UNL     1     111.573 127.565 135.679  0.00  0.00    +0.000 C 
ATOM      6  C   UNL     1     111.432 126.102 135.897  0.00  0.00    +0.000 A 
ATOM      7  C   UNL     1     112.174 126.075 136.258  0.00  0.00    +0.000 A 
ATOM      8  C   UNL     1     111.113 126.842 135.600  0.00  0.00    +0.000 C 
ATOM      9  C   UNL     1     112.470 125.358 136.540  0.00  0.00    +0.000 A 
ATOM     10  C   UNL     1     110.987 125.412 135.819  0.00  0.00    +0.000 A 
ATOM     11  C   UNL     1     112.024 124.669 136.461  0.00  0.00    +0.000 A 
ATOM     12  C   UNL     1     111.282 124.696 136.100  0.00  0.00    +0.000 A 
ENDROOT
BRANCH   4  13
ATOM     13  C   UNL     1     112.793 128.225 136.135  0.00  0.00    +0.000 A 
ATOM     14  C   UNL     1     112.757 128.663 136.833  0.00  0.00    +0.000 A 
ATOM     15  C   UNL     1     113.279 128.475 135.516  0.00  0.00    +0.000 A 
ATOM     16  C   UNL     1     113.205 129.350 136.913  0.00  0.00    +0.000 A 
ATOM     17  C   UNL     1     113.727 129.162 135.596  0.00  0.00    +0.000 A 
ATOM     18  C   UNL     1     113.691 129.600 136.294  0.00  0.00    +0.000 A 
ENDBRANCH   4  13
BRANCH  11  19
ATOM     19  O   UNL     1     112.320 123.952 136.743  0.00  0.00    +0.000 OA
ATOM     20  C   UNL     1     111.807 123.322 136.886  0.00  0.00    +0.000 C 
ENDBRANCH  11  19
BRANCH   9  21
ATOM     21  C   UNL     1     113.211 125.331 136.901  0.00  0.00    +0.000 C 
ATOM     22  C   UNL     1     113.873 125.100 136.466  0.00  0.00    +0.000 C 
BRANCH  22  23
ATOM     23  C   UNL     1     114.614 125.073 136.827  0.00  0.00    +0.000 C 
ATOM     24  C   UNL     1     115.298 125.056 136.365  0.00  0.00    +0.000 C 
ATOM     25  C   UNL     1     114.673 125.064 137.650  0.00  0.00    +0.000 C 
ENDBRANCH  22  23
ENDBRANCH   9  21
TORSDOF 4
ENDMDL
MODEL 2
REMARK VINA RESULT:      -8.6      0.821      3.403
REMARK  Name = 15714484
REMARK  4 active torsions:
REMARK  status: ('A' for Active; 'I' for Inactive)
REMARK    1  A    between atoms: O_3  and  C_13
REMARK    2  A    between atoms: C_5  and  C_10
REMARK    3  A    between atoms: C_11  and  C_17
REMARK    4  A    between atoms: C_21  and  C_22
REMARK                            x       y       z     vdW  Elec       q    Type
REMARK                         _______ _______ _______ _____ _____    ______ ____
ROOT
ATOM      1  O   UNL     1     112.440 126.609 136.229  0.00  0.00    +0.000 OA
ATOM      2  O   UNL     1     110.748 124.845 135.563  0.00  0.00    +0.000 OA
ATOM      3  O   UNL     1     109.939 125.881 134.966  0.00  0.00    +0.000 OA
ATOM      4  C   UNL     1     112.586 125.786 136.431  0.00  0.00    +0.000 C 
ATOM      5  C   UNL     1     112.014 125.185 136.206  0.00  0.00    +0.000 C 
ATOM      6  C   UNL     1     111.173 126.242 135.589  0.00  0.00    +0.000 A 
ATOM      7  C   UNL     1     111.722 126.819 135.805  0.00  0.00    +0.000 A 
ATOM      8  C   UNL     1     111.303 125.415 135.782  0.00  0.00    +0.000 C 
ATOM      9  C   UNL     1     111.586 127.610 135.613  0.00  0.00    +0.000 A 
ATOM     10  C   UNL     1     110.488 126.457 135.182  0.00  0.00    +0.000 A 
ATOM     11  C   UNL     1     110.901 127.824 135.207  0.00  0.00    +0.000 A 
ATOM     12  C   UNL     1     110.352 127.248 134.991  0.00  0.00    +0.000 A 
ENDROOT
BRANCH   4  13
ATOM     13  C   UNL     1     113.273 125.575 136.838  0.00  0.00    +0.000 A 
ATOM     14  C   UNL     1     113.322 125.693 137.653  0.00  0.00    +0.000 A 
ATOM     15  C   UNL     1     113.909 125.246 136.429  0.00  0.00    +0.000 A 
ATOM     16  C   UNL     1     114.008 125.482 138.059  0.00  0.00    +0.000 A 
ATOM     17  C   UNL     1     114.596 125.035 136.835  0.00  0.00    +0.000 A 
ATOM     18  C   UNL     1     114.645 125.153 137.650  0.00  0.00    +0.000 A 
ENDBRANCH   4  13
BRANCH  11  19
ATOM     19  O   UNL     1     110.766 128.616 135.015  0.00  0.00    +0.000 OA
ATOM     20  C   UNL     1     110.022 128.853 134.749  0.00  0.00    +0.000 C 
ENDBRANCH  11  19
BRANCH   9  21
ATOM     21  C   UNL     1     112.136 128.187 135.829  0.00  0.00    +0.000 C 
ATOM     22  C   UNL     1     112.686 128.458 135.279  0.00  0.00    +0.000 C 
BRANCH  22  23
ATOM     23  C   UNL     1     113.235 129.035 135.494  0.00  0.00    +0.000 C 
ATOM     24  C   UNL     1     113.834 129.252 134.969  0.00  0.00    +0.000 C 
ATOM     25  C   UNL     1     113.186 129.396 136.235  0.00  0.00    +0.000 C 
ENDBRANCH  22  23
ENDBRANCH   9  21
TORSDOF 4
ENDMDL
MODEL 3
REMARK VINA RESULT:      -8.5      1.523      3.935
REMARK  Name = 15714484
REMARK  4 active torsions:
REMARK  status: ('A' for Active; 'I' for Inactive)
REMARK    1  A    between atoms: O_3  and  C_13
REMARK    2  A    between atoms: C_5  and  C_10
REMARK    3  A    between atoms: C_11  and  C_17
REMARK    4  A    between atoms: C_21  and  C_22
REMARK                            x       y       z     vdW  Elec       q    Type
REMARK                         _______ _______ _______ _____ _____    ______ ____
ROOT
ATOM      1  O   UNL     1     112.733 127.091 136.197  0.00  0.00    +0.000 OA
ATOM      2  O   UNL     1     114.297 129.033 135.752  0.00  0.00    +0.000 OA
ATOM      3  O   UNL     1     113.190 129.762 135.181  0.00  0.00    +0.000 OA
ATOM      4  C   UNL     1     113.561 127.026 136.421  0.00  0.00    +0.000 C 
ATOM      5  C   UNL     1     114.094 127.684 136.272  0.00  0.00    +0.000 C 
ATOM      6  C   UNL     1     112.962 128.444 135.682  0.00  0.00    +0.000 A 
ATOM      7  C   UNL     1     112.451 127.812 135.825  0.00  0.00    +0.000 A 
ATOM      8  C   UNL     1     113.792 128.397 135.899  0.00  0.00    +0.000 C 
ATOM      9  C   UNL     1     111.655 127.869 135.612  0.00  0.00    +0.000 A 
ATOM     10  C   UNL     1     112.678 129.131 135.324  0.00  0.00    +0.000 A 
ATOM     11  C   UNL     1     111.373 128.556 135.254  0.00  0.00    +0.000 A 
ATOM     12  C   UNL     1     111.884 129.188 135.111  0.00  0.00    +0.000 A 
ENDROOT
BRANCH   4  13
ATOM     13  C   UNL     1     113.841 126.337 136.779  0.00  0.00    +0.000 A 
ATOM     14  C   UNL     1     113.721 126.211 137.585  0.00  0.00    +0.000 A 
ATOM     15  C   UNL     1     114.242 125.774 136.329  0.00  0.00    +0.000 A 
ATOM     16  C   UNL     1     114.001 125.523 137.941  0.00  0.00    +0.000 A 
ATOM     17  C   UNL     1     114.522 125.084 136.685  0.00  0.00    +0.000 A 
ATOM     18  C   UNL     1     114.402 124.958 137.491  0.00  0.00    +0.000 A 
ENDBRANCH   4  13
BRANCH  11  19
ATOM     19  O   UNL     1     110.577 128.612 135.041  0.00  0.00    +0.000 OA
ATOM     20  C   UNL     1     110.253 129.346 134.848  0.00  0.00    +0.000 C 
ENDBRANCH  11  19
BRANCH   9  21
ATOM     21  C   UNL     1     111.144 127.237 135.755  0.00  0.00    +0.000 C 
ATOM     22  C   UNL     1     110.939 126.726 135.142  0.00  0.00    +0.000 C 
BRANCH  22  23
ATOM     23  C   UNL     1     110.428 126.094 135.286  0.00  0.00    +0.000 C 
ATOM     24  C   UNL     1     110.162 125.627 134.659  0.00  0.00    +0.000 C 
ATOM     25  C   UNL     1     110.181 125.929 136.056  0.00  0.00    +0.000 C 
ENDBRANCH  22  23
ENDBRANCH   9  21
TORSDOF 4
ENDMDL
MODEL 4
REMARK VINA RESULT:      -8.5      1.078      2.781
REMARK  Name = 15714484
REMARK  4 active torsions:
REMARK  status: ('A' for Active; 'I' for Inactive)
REMARK    1  A    between atoms: O_3  and  C_13
REMARK    2  A    between atoms: C_5  and  C_10
REMARK    3  A    between atoms: C_11  and  C_17
REMARK    4  A    between atoms: C_21  and  C_22
REMARK                            x       y       z     vdW  Elec       q    Type
REMARK                         _______ _______ _______ _____ _____    ______ ____
ROOT
ATOM      1  O   UNL     1     112.789 126.489 136.434  0.00  0.00    +0.000 OA
ATOM      2  O   UNL     1     115.077 125.516 136.916  0.00  0.00    +0.000 OA
ATOM      3  O   UNL     1     114.473 124.209 137.019  0.00  0.00    +0.000 OA
ATOM      4  C   UNL     1     113.473 127.010 136.459  0.00  0.00    +0.000 C 
ATOM      5  C   UNL     1     114.250 126.683 136.622  0.00  0.00    +0.000 C 
ATOM      6  C   UNL     1     113.640 125.333 136.730  0.00  0.00    +0.000 A 
ATOM      7  C   UNL     1     112.894 125.647 136.573  0.00  0.00    +0.000 A 
ATOM      8  C   UNL     1     114.334 125.838 136.759  0.00  0.00    +0.000 C 
ATOM      9  C   UNL     1     112.234 125.152 136.548  0.00  0.00    +0.000 A 
ATOM     10  C   UNL     1     113.727 124.523 136.862  0.00  0.00    +0.000 A 
ATOM     11  C   UNL     1     112.322 124.342 136.680  0.00  0.00    +0.000 A 
ATOM     12  C   UNL     1     113.068 124.028 136.837  0.00  0.00    +0.000 A 
ENDROOT
BRANCH   4  13
ATOM     13  C   UNL     1     113.382 127.820 136.327  0.00  0.00    +0.000 A 
ATOM     14  C   UNL     1     113.537 128.137 135.581  0.00  0.00    +0.000 A 
ATOM     15  C   UNL     1     113.136 128.312 136.941  0.00  0.00    +0.000 A 
ATOM     16  C   UNL     1     113.446 128.945 135.449  0.00  0.00    +0.000 A 
ATOM     17  C   UNL     1     113.045 129.122 136.809  0.00  0.00    +0.000 A 
ATOM     18  C   UNL     1     113.200 129.438 136.064  0.00  0.00    +0.000 A 
ENDBRANCH   4  13
BRANCH  11  19
ATOM     19  O   UNL     1     111.662 123.847 136.655  0.00  0.00    +0.000 OA
ATOM     20  C   UNL     1     111.706 123.087 136.973  0.00  0.00    +0.000 C 
ENDBRANCH  11  19
BRANCH   9  21
ATOM     21  C   UNL     1     111.488 125.466 136.391  0.00  0.00    +0.000 C 
ATOM     22  C   UNL     1     111.178 125.433 135.628  0.00  0.00    +0.000 C 
BRANCH  22  23
ATOM     23  C   UNL     1     110.432 125.747 135.471  0.00  0.00    +0.000 C 
ATOM     24  C   UNL     1     109.992 126.089 136.080  0.00  0.00    +0.000 C 
ATOM     25  C   UNL     1     110.125 125.719 134.706  0.00  0.00    +0.000 C 
ENDBRANCH  22  23
ENDBRANCH   9  21
TORSDOF 4
ENDMDL
MODEL 5
REMARK VINA RESULT:      -8.3     10.936     11.889
REMARK  Name = 15714484
REMARK  4 active torsions:
REMARK  status: ('A' for Active; 'I' for Inactive)
REMARK    1  A    between atoms: O_3  and  C_13
REMARK    2  A    between atoms: C_5  and  C_10
REMARK    3  A    between atoms: C_11  and  C_17
REMARK    4  A    between atoms: C_21  and  C_22
REMARK                            x       y       z     vdW  Elec       q    Type
REMARK                         _______ _______ _______ _____ _____    ______ ____
ROOT
ATOM      1  O   UNL     1     102.868 130.492 142.140  0.00  0.00    +0.000 OA
ATOM      2  O   UNL     1     102.704 129.356 139.882  0.00  0.00    +0.000 OA
ATOM      3  O   UNL     1     103.663 128.376 140.332  0.00  0.00    +0.000 OA
ATOM      4  C   UNL     1     102.343 130.817 141.540  0.00  0.00    +0.000 C 
ATOM      5  C   UNL     1     102.285 130.434 140.774  0.00  0.00    +0.000 C 
ATOM      6  C   UNL     1     103.272 129.420 141.226  0.00  0.00    +0.000 A 
ATOM      7  C   UNL     1     103.327 129.788 141.962  0.00  0.00    +0.000 A 
ATOM      8  C   UNL     1     102.753 129.730 140.615  0.00  0.00    +0.000 C 
ATOM      9  C   UNL     1     103.829 129.480 142.541  0.00  0.00    +0.000 A 
ATOM     10  C   UNL     1     103.719 128.744 141.068  0.00  0.00    +0.000 A 
ATOM     11  C   UNL     1     104.275 128.805 142.382  0.00  0.00    +0.000 A 
ATOM     12  C   UNL     1     104.220 128.437 141.646  0.00  0.00    +0.000 A 
ENDROOT
BRANCH   4  13
ATOM     13  C   UNL     1     101.898 131.493 141.702  0.00  0.00    +0.000 A 
ATOM     14  C   UNL     1     101.154 131.424 142.053  0.00  0.00    +0.000 A 
ATOM     15  C   UNL     1     102.197 132.239 141.512  0.00  0.00    +0.000 A 
ATOM     16  C   UNL     1     100.710 132.100 142.214  0.00  0.00    +0.000 A 
ATOM     17  C   UNL     1     101.753 132.915 141.674  0.00  0.00    +0.000 A 
ATOM     18  C   UNL     1     101.009 132.846 142.025  0.00  0.00    +0.000 A 
ENDBRANCH   4  13
BRANCH  11  19
ATOM     19  O   UNL     1     104.778 128.497 142.961  0.00  0.00    +0.000 OA
ATOM     20  C   UNL     1     105.175 127.787 142.826  0.00  0.00    +0.000 C 
ENDBRANCH  11  19
BRANCH   9  21
ATOM     21  C   UNL     1     103.885 129.849 143.277  0.00  0.00    +0.000 C 
ATOM     22  C   UNL     1     104.502 130.373 143.430  0.00  0.00    +0.000 C 
BRANCH  22  23
ATOM     23  C   UNL     1     104.557 130.741 144.166  0.00  0.00    +0.000 C 
ATOM     24  C   UNL     1     105.166 131.280 144.314  0.00  0.00    +0.000 C 
ATOM     25  C   UNL     1     104.005 130.572 144.755  0.00  0.00    +0.000 C 
ENDBRANCH  22  23
ENDBRANCH   9  21
TORSDOF 4
ENDMDL
MODEL 6
REMARK VINA RESULT:      -8.2      1.145      3.319
REMARK  Name = 15714484
REMARK  4 active torsions:
REMARK  status: ('A' for Active; 'I' for Inactive)
REMARK    1  A    between atoms: O_3  and  C_13
REMARK    2  A    between atoms: C_5  and  C_10
REMARK    3  A    between atoms: C_11  and  C_17
REMARK    4  A    between atoms: C_21  and  C_22
REMARK                            x       y       z     vdW  Elec       q    Type
REMARK                         _______ _______ _______ _____ _____    ______ ____
ROOT
ATOM      1  O   UNL     1     111.808 125.873 136.441  0.00  0.00    +0.000 OA
ATOM      2  O   UNL     1     111.890 123.341 136.454  0.00  0.00    +0.000 OA
ATOM      3  O   UNL     1     113.168 123.410 137.121  0.00  0.00    +0.000 OA
ATOM      4  C   UNL     1     111.157 125.428 136.097  0.00  0.00    +0.000 C 
ATOM      5  C   UNL     1     111.182 124.569 136.100  0.00  0.00    +0.000 C 
ATOM      6  C   UNL     1     112.498 124.627 136.787  0.00  0.00    +0.000 A 
ATOM      7  C   UNL     1     112.474 125.451 136.784  0.00  0.00    +0.000 A 
ATOM      8  C   UNL     1     111.858 124.166 136.447  0.00  0.00    +0.000 C 
ATOM      9  C   UNL     1     113.095 125.884 137.113  0.00  0.00    +0.000 A 
ATOM     10  C   UNL     1     113.143 124.234 137.119  0.00  0.00    +0.000 A 
ATOM     11  C   UNL     1     113.740 125.491 137.445  0.00  0.00    +0.000 A 
ATOM     12  C   UNL     1     113.764 124.666 137.447  0.00  0.00    +0.000 A 
ENDROOT
BRANCH   4  13
ATOM     13  C   UNL     1     110.513 125.824 135.766  0.00  0.00    +0.000 A 
ATOM     14  C   UNL     1     109.965 126.201 136.253  0.00  0.00    +0.000 A 
ATOM     15  C   UNL     1     110.418 125.843 134.946  0.00  0.00    +0.000 A 
ATOM     16  C   UNL     1     109.322 126.596 135.922  0.00  0.00    +0.000 A 
ATOM     17  C   UNL     1     109.775 126.239 134.615  0.00  0.00    +0.000 A 
ATOM     18  C   UNL     1     109.227 126.615 135.102  0.00  0.00    +0.000 A 
ENDBRANCH   4  13
BRANCH  11  19
ATOM     19  O   UNL     1     114.362 125.923 137.774  0.00  0.00    +0.000 OA
ATOM     20  C   UNL     1     114.860 125.570 138.329  0.00  0.00    +0.000 C 
ENDBRANCH  11  19
BRANCH   9  21
ATOM     21  C   UNL     1     113.071 126.708 137.110  0.00  0.00    +0.000 C 
ATOM     22  C   UNL     1     113.483 127.131 136.535  0.00  0.00    +0.000 C 
BRANCH  22  23
ATOM     23  C   UNL     1     113.459 127.955 136.532  0.00  0.00    +0.000 C 
ATOM     24  C   UNL     1     113.093 128.360 137.152  0.00  0.00    +0.000 C 
ATOM     25  C   UNL     1     113.801 128.376 135.910  0.00  0.00    +0.000 C 
ENDBRANCH  22  23
ENDBRANCH   9  21
TORSDOF 4
ENDMDL
MODEL 7
REMARK VINA RESULT:      -8.1      2.135      3.289
REMARK  Name = 15714484
REMARK  4 active torsions:
REMARK  status: ('A' for Active; 'I' for Inactive)
REMARK    1  A    between atoms: O_3  and  C_13
REMARK    2  A    between atoms: C_5  and  C_10
REMARK    3  A    between atoms: C_11  and  C_17
REMARK    4  A    between atoms: C_21  and  C_22
REMARK                            x       y       z     vdW  Elec       q    Type
REMARK                         _______ _______ _______ _____ _____    ______ ____
ROOT
ATOM      1  O   UNL     1     111.771 126.257 137.266  0.00  0.00    +0.000 OA
ATOM      2  O   UNL     1     109.942 126.622 138.980  0.00  0.00    +0.000 OA
ATOM      3  O   UNL     1     110.954 126.701 140.007  0.00  0.00    +0.000 OA
ATOM      4  C   UNL     1     110.950 126.275 137.010  0.00  0.00    +0.000 C 
ATOM      5  C   UNL     1     110.328 126.398 137.589  0.00  0.00    +0.000 C 
ATOM      6  C   UNL     1     111.359 126.482 138.655  0.00  0.00    +0.000 A 
ATOM      7  C   UNL     1     111.957 126.363 138.098  0.00  0.00    +0.000 A 
ATOM      8  C   UNL     1     110.534 126.503 138.417  0.00  0.00    +0.000 C 
ATOM      9  C   UNL     1     112.747 126.345 138.338  0.00  0.00    +0.000 A 
ATOM     10  C   UNL     1     111.551 126.582 139.451  0.00  0.00    +0.000 A 
ATOM     11  C   UNL     1     112.937 126.446 139.135  0.00  0.00    +0.000 A 
ATOM     12  C   UNL     1     112.340 126.564 139.691  0.00  0.00    +0.000 A 
ENDROOT
BRANCH   4  13
ATOM     13  C   UNL     1     110.762 126.174 136.213  0.00  0.00    +0.000 A 
ATOM     14  C   UNL     1     110.761 126.823 135.703  0.00  0.00    +0.000 A 
ATOM     15  C   UNL     1     110.576 125.423 135.925  0.00  0.00    +0.000 A 
ATOM     16  C   UNL     1     110.573 126.721 134.907  0.00  0.00    +0.000 A 
ATOM     17  C   UNL     1     110.388 125.321 135.129  0.00  0.00    +0.000 A 
ATOM     18  C   UNL     1     110.386 125.970 134.619  0.00  0.00    +0.000 A 
ENDBRANCH   4  13
BRANCH  11  19
ATOM     19  O   UNL     1     113.727 126.427 139.375  0.00  0.00    +0.000 OA
ATOM     20  C   UNL     1     113.945 126.758 140.098  0.00  0.00    +0.000 C 
ENDBRANCH  11  19
BRANCH   9  21
ATOM     21  C   UNL     1     113.344 126.226 137.782  0.00  0.00    +0.000 C 
ATOM     22  C   UNL     1     113.681 125.479 137.693  0.00  0.00    +0.000 C 
BRANCH  22  23
ATOM     23  C   UNL     1     114.279 125.360 137.136  0.00  0.00    +0.000 C 
ATOM     24  C   UNL     1     114.707 124.655 137.135  0.00  0.00    +0.000 C 
ATOM     25  C   UNL     1     114.449 125.947 136.581  0.00  0.00    +0.000 C 
ENDBRANCH  22  23
ENDBRANCH   9  21
TORSDOF 4
ENDMDL
MODEL 8
REMARK VINA RESULT:      -8.1      1.996      4.572
REMARK  Name = 15714484
REMARK  4 active torsions:
REMARK  status: ('A' for Active; 'I' for Inactive)
REMARK    1  A    between atoms: O_3  and  C_13
REMARK    2  A    between atoms: C_5  and  C_10
REMARK    3  A    between atoms: C_11  and  C_17
REMARK    4  A    between atoms: C_21  and  C_22
REMARK                            x       y       z     vdW  Elec       q    Type
REMARK                         _______ _______ _______ _____ _____    ______ ____
ROOT
ATOM      1  O   UNL     1     113.303 127.101 137.785  0.00  0.00    +0.000 OA
ATOM      2  O   UNL     1     113.294 127.055 140.318  0.00  0.00    +0.000 OA
ATOM      3  O   UNL     1     112.970 128.462 140.318  0.00  0.00    +0.000 OA
ATOM      4  C   UNL     1     113.470 126.363 138.195  0.00  0.00    +0.000 C 
ATOM      5  C   UNL     1     113.467 126.345 139.054  0.00  0.00    +0.000 C 
ATOM      6  C   UNL     1     113.134 127.792 139.067  0.00  0.00    +0.000 A 
ATOM      7  C   UNL     1     113.136 127.810 138.242  0.00  0.00    +0.000 A 
ATOM      8  C   UNL     1     113.298 127.064 139.493  0.00  0.00    +0.000 C 
ATOM      9  C   UNL     1     112.977 128.515 137.844  0.00  0.00    +0.000 A 
ATOM     10  C   UNL     1     112.972 128.480 139.493  0.00  0.00    +0.000 A 
ATOM     11  C   UNL     1     112.815 129.202 138.271  0.00  0.00    +0.000 A 
ATOM     12  C   UNL     1     112.813 129.184 139.096  0.00  0.00    +0.000 A 
ENDROOT
BRANCH   4  13
ATOM     13  C   UNL     1     113.631 125.677 137.765  0.00  0.00    +0.000 A 
ATOM     14  C   UNL     1     114.412 125.435 137.651  0.00  0.00    +0.000 A 
ATOM     15  C   UNL     1     113.011 125.234 137.449  0.00  0.00    +0.000 A 
ATOM     16  C   UNL     1     114.572 124.751 137.221  0.00  0.00    +0.000 A 
ATOM     17  C   UNL     1     113.172 124.549 137.018  0.00  0.00    +0.000 A 
ATOM     18  C   UNL     1     113.952 124.307 136.904  0.00  0.00    +0.000 A 
ENDBRANCH   4  13
BRANCH  11  19
ATOM     19  O   UNL     1     112.656 129.907 137.873  0.00  0.00    +0.000 OA
ATOM     20  C   UNL     1     112.343 130.550 138.284  0.00  0.00    +0.000 C 
ENDBRANCH  11  19
BRANCH   9  21
ATOM     21  C   UNL     1     112.979 128.533 137.019  0.00  0.00    +0.000 C 
ATOM     22  C   UNL     1     113.641 128.812 136.615  0.00  0.00    +0.000 C 
BRANCH  22  23
ATOM     23  C   UNL     1     113.643 128.830 135.790  0.00  0.00    +0.000 C 
ATOM     24  C   UNL     1     114.350 128.953 135.382  0.00  0.00    +0.000 C 
ATOM     25  C   UNL     1     112.940 128.725 135.373  0.00  0.00    +0.000 C 
ENDBRANCH  22  23
ENDBRANCH   9  21
TORSDOF 4
ENDMDL
MODEL 9
REMARK VINA RESULT:      -8.1      2.215      4.239
REMARK  Name = 15714484
REMARK  4 active torsions:
REMARK  status: ('A' for Active; 'I' for Inactive)
REMARK    1  A    between atoms: O_3  and  C_13
REMARK    2  A    between atoms: C_5  and  C_10
REMARK    3  A    between atoms: C_11  and  C_17
REMARK    4  A    between atoms: C_21  and  C_22
REMARK                            x       y       z     vdW  Elec       q    Type
REMARK                         _______ _______ _______ _____ _____    ______ ____
ROOT
ATOM      1  O   UNL     1     113.318 126.996 137.961  0.00  0.00    +0.000 OA
ATOM      2  O   UNL     1     113.197 128.416 135.867  0.00  0.00    +0.000 OA
ATOM      3  O   UNL     1     112.898 129.563 136.690  0.00  0.00    +0.000 OA
ATOM      4  C   UNL     1     113.454 126.630 137.194  0.00  0.00    +0.000 C 
ATOM      5  C   UNL     1     113.413 127.109 136.482  0.00  0.00    +0.000 C 
ATOM      6  C   UNL     1     113.105 128.297 137.319  0.00  0.00    +0.000 A 
ATOM      7  C   UNL     1     113.143 127.837 138.003  0.00  0.00    +0.000 A 
ATOM      8  C   UNL     1     113.238 127.949 136.545  0.00  0.00    +0.000 C 
ATOM      9  C   UNL     1     113.014 128.182 138.741  0.00  0.00    +0.000 A 
ATOM     10  C   UNL     1     112.937 129.103 137.374  0.00  0.00    +0.000 A 
ATOM     11  C   UNL     1     112.846 128.988 138.795  0.00  0.00    +0.000 A 
ATOM     12  C   UNL     1     112.807 129.448 138.111  0.00  0.00    +0.000 A 
ENDROOT
BRANCH   4  13
ATOM     13  C   UNL     1     113.622 125.824 137.144  0.00  0.00    +0.000 A 
ATOM     14  C   UNL     1     114.403 125.562 137.176  0.00  0.00    +0.000 A 
ATOM     15  C   UNL     1     113.007 125.279 137.061  0.00  0.00    +0.000 A 
ATOM     16  C   UNL     1     114.571 124.756 137.126  0.00  0.00    +0.000 A 
ATOM     17  C   UNL     1     113.174 124.473 137.010  0.00  0.00    +0.000 A 
ATOM     18  C   UNL     1     113.956 124.211 137.043  0.00  0.00    +0.000 A 
ENDBRANCH   4  13
BRANCH  11  19
ATOM     19  O   UNL     1     112.716 129.334 139.533  0.00  0.00    +0.000 OA
ATOM     20  C   UNL     1     112.394 130.092 139.582  0.00  0.00    +0.000 C 
ENDBRANCH  11  19
BRANCH   9  21
ATOM     21  C   UNL     1     113.052 127.722 139.425  0.00  0.00    +0.000 C 
ATOM     22  C   UNL     1     113.740 127.716 139.879  0.00  0.00    +0.000 C 
BRANCH  22  23
ATOM     23  C   UNL     1     113.778 127.256 140.563  0.00  0.00    +0.000 C 
ATOM     24  C   UNL     1     114.504 127.130 140.936  0.00  0.00    +0.000 C 
ATOM     25  C   UNL     1     113.092 126.921 140.875  0.00  0.00    +0.000 C 
ENDBRANCH  22  23
ENDBRANCH   9  21
TORSDOF 4
ENDMDL
MODEL 10
REMARK VINA RESULT:      -7.9     13.741     14.887
REMARK  Name = 15714484
REMARK  4 active torsions:
REMARK  status: ('A' for Active; 'I' for Inactive)
REMARK    1  A    between atoms: O_3  and  C_13
REMARK    2  A    between atoms: C_5  and  C_10
REMARK    3  A    between atoms: C_11  and  C_17
REMARK    4  A    between atoms: C_21  and  C_22
REMARK                            x       y       z     vdW  Elec       q    Type
REMARK                         _______ _______ _______ _____ _____    ______ ____
ROOT
ATOM      1  O   UNL     1     103.533 124.309 147.560  0.00  0.00    +0.000 OA
ATOM      2  O   UNL     1     104.826 123.797 145.443  0.00  0.00    +0.000 OA
ATOM      3  O   UNL     1     103.667 123.106 144.931  0.00  0.00    +0.000 OA
ATOM      4  C   UNL     1     104.344 124.584 147.484  0.00  0.00    +0.000 C 
ATOM      5  C   UNL     1     104.785 124.412 146.767  0.00  0.00    +0.000 C 
ATOM      6  C   UNL     1     103.599 123.699 146.229  0.00  0.00    +0.000 A 
ATOM      7  C   UNL     1     103.175 123.864 146.917  0.00  0.00    +0.000 A 
ATOM      8  C   UNL     1     104.410 123.966 146.135  0.00  0.00    +0.000 C 
ATOM      9  C   UNL     1     102.396 123.602 146.996  0.00  0.00    +0.000 A 
ATOM     10  C   UNL     1     103.243 123.271 145.619  0.00  0.00    +0.000 A 
ATOM     11  C   UNL     1     102.042 123.175 146.386  0.00  0.00    +0.000 A 
ATOM     12  C   UNL     1     102.466 123.009 145.698  0.00  0.00    +0.000 A 
ENDROOT
BRANCH   4  13
ATOM     13  C   UNL     1     104.696 125.012 148.096  0.00  0.00    +0.000 A 
ATOM     14  C   UNL     1     104.581 125.827 148.150  0.00  0.00    +0.000 A 
ATOM     15  C   UNL     1     105.164 124.623 148.654  0.00  0.00    +0.000 A 
ATOM     16  C   UNL     1     104.932 126.254 148.761  0.00  0.00    +0.000 A 
ATOM     17  C   UNL     1     105.516 125.050 149.266  0.00  0.00    +0.000 A 
ATOM     18  C   UNL     1     105.400 125.865 149.320  0.00  0.00    +0.000 A 
ENDBRANCH   4  13
BRANCH  11  19
ATOM     19  O   UNL     1     101.263 122.912 146.465  0.00  0.00    +0.000 OA
ATOM     20  C   UNL     1     100.817 122.739 145.793  0.00  0.00    +0.000 C 
ENDBRANCH  11  19
BRANCH   9  21
ATOM     21  C   UNL     1     101.973 123.767 147.685  0.00  0.00    +0.000 C 
ATOM     22  C   UNL     1     101.908 123.196 148.276  0.00  0.00    +0.000 C 
BRANCH  22  23
ATOM     23  C   UNL     1     101.485 123.362 148.964  0.00  0.00    +0.000 C 
ATOM     24  C   UNL     1     101.447 122.802 149.570  0.00  0.00    +0.000 C 
ATOM     25  C   UNL     1     101.099 124.086 149.048  0.00  0.00    +0.000 C 
ENDBRANCH  22  23
ENDBRANCH   9  21
TORSDOF 4
ENDMDL
