MODEL 1
REMARK VINA RESULT:      -9.2      0.000      0.000
REMARK  Name = 44258381
REMARK  5 active torsions:
REMARK  status: ('A' for Active; 'I' for Inactive)
REMARK    1  A    between atoms: O_7  and  C_20
REMARK    2  A    between atoms: O_10  and  C_31
REMARK    3  A    between atoms: C_14  and  C_17
REMARK    4  A    between atoms: C_16  and  C_18
REMARK    5  A    between atoms: C_25  and  C_27
REMARK                            x       y       z     vdW  Elec       q    Type
REMARK                         _______ _______ _______ _____ _____    ______ ____
ROOT
ATOM      1  O   UNL     1     110.425 127.748 136.022  0.00  0.00    +0.000 OA
ATOM      2  O   UNL     1     107.966 129.257 135.794  0.00  0.00    +0.000 OA
ATOM      3  O   UNL     1     107.904 127.815 135.792  0.00  0.00    +0.000 OA
ATOM      4  C   UNL     1     110.431 129.200 136.019  0.00  0.00    +0.000 A 
ATOM      5  C   UNL     1     110.003 128.495 135.982  0.00  0.00    +0.000 A 
ATOM      6  C   UNL     1     110.036 129.924 135.981  0.00  0.00    +0.000 A 
ATOM      7  C   UNL     1     109.182 128.514 135.907  0.00  0.00    +0.000 A 
ATOM      8  C   UNL     1     109.215 129.943 135.906  0.00  0.00    +0.000 A 
ATOM      9  C   UNL     1     108.788 129.238 135.869  0.00  0.00    +0.000 A 
ATOM     10  C   UNL     1     108.725 127.787 135.867  0.00  0.00    +0.000 A 
ATOM     11  C   UNL     1     109.986 127.010 135.984  0.00  0.00    +0.000 A 
ATOM     12  C   UNL     1     109.130 127.030 135.906  0.00  0.00    +0.000 A 
ENDROOT
BRANCH   4  19
ATOM     13  O   UNL     1     111.596 129.120 136.842  0.00  0.00    +0.000 OA
ATOM     14  O   UNL     1     111.383 129.285 134.675  0.00  0.00    +0.000 OA
ATOM     15  O   UNL     1     113.026 129.247 134.825  0.00  0.00    +0.000 OA
ATOM     16  O   UNL     1     113.716 129.124 136.319  0.00  0.00    +0.000 OA
ATOM     17  C   UNL     1     111.728 129.224 135.422  0.00  0.00    +0.000 C 
ATOM     18  C   UNL     1     112.550 129.205 135.497  0.00  0.00    +0.000 C 
ATOM     19  C   UNL     1     111.251 129.181 136.094  0.00  0.00    +0.000 C 
ATOM     20  C   UNL     1     112.894 129.143 136.244  0.00  0.00    +0.000 C 
ATOM     21  C   UNL     1     112.418 129.101 136.916  0.00  0.00    +0.000 C 
BRANCH  21  23
ATOM     22  O   UNL     1     112.293 129.104 138.340  0.00  0.00    +0.000 OA
ATOM     23  C   UNL     1     112.762 129.040 137.663  0.00  0.00    +0.000 C 
ENDBRANCH  21  23
ENDBRANCH   4  19
BRANCH  11  25
ATOM     24  O   UNL     1     111.572 124.121 136.137  0.00  0.00    +0.000 OA
ATOM     25  C   UNL     1     110.382 126.288 136.022  0.00  0.00    +0.000 A 
ATOM     26  C   UNL     1     110.590 125.969 136.754  0.00  0.00    +0.000 A 
ATOM     27  C   UNL     1     110.572 125.883 135.329  0.00  0.00    +0.000 A 
ATOM     28  C   UNL     1     110.986 125.247 136.793  0.00  0.00    +0.000 A 
ATOM     29  C   UNL     1     110.968 125.161 135.367  0.00  0.00    +0.000 A 
ATOM     30  C   UNL     1     111.176 124.843 136.099  0.00  0.00    +0.000 A 
BRANCH  28  31
ATOM     31  O   UNL     1     111.194 124.929 137.526  0.00  0.00    +0.000 OA
ATOM     32  C   UNL     1     111.447 125.425 138.134  0.00  0.00    +0.000 C 
ENDBRANCH  28  31
ENDBRANCH  11  25
BRANCH   6  33
ATOM     33  O   UNL     1     110.464 130.629 136.019  0.00  0.00    +0.000 OA
ATOM     34  C   UNL     1     110.068 131.345 136.124  0.00  0.00    +0.000 C 
ENDBRANCH   6  33
TORSDOF 5
ENDMDL
MODEL 2
REMARK VINA RESULT:      -9.1      1.791      5.278
REMARK  Name = 44258381
REMARK  5 active torsions:
REMARK  status: ('A' for Active; 'I' for Inactive)
REMARK    1  A    between atoms: O_7  and  C_20
REMARK    2  A    between atoms: O_10  and  C_31
REMARK    3  A    between atoms: C_14  and  C_17
REMARK    4  A    between atoms: C_16  and  C_18
REMARK    5  A    between atoms: C_25  and  C_27
REMARK                            x       y       z     vdW  Elec       q    Type
REMARK                         _______ _______ _______ _____ _____    ______ ____
ROOT
ATOM      1  O   UNL     1     112.623 126.657 136.711  0.00  0.00    +0.000 OA
ATOM      2  O   UNL     1     114.408 124.380 136.633  0.00  0.00    +0.000 OA
ATOM      3  O   UNL     1     114.951 125.703 136.432  0.00  0.00    +0.000 OA
ATOM      4  C   UNL     1     112.128 125.306 136.907  0.00  0.00    +0.000 A 
ATOM      5  C   UNL     1     112.765 125.812 136.763  0.00  0.00    +0.000 A 
ATOM      6  C   UNL     1     112.253 124.492 136.959  0.00  0.00    +0.000 A 
ATOM      7  C   UNL     1     113.524 125.503 136.672  0.00  0.00    +0.000 A 
ATOM      8  C   UNL     1     113.012 124.184 136.868  0.00  0.00    +0.000 A 
ATOM      9  C   UNL     1     113.648 124.689 136.724  0.00  0.00    +0.000 A 
ATOM     10  C   UNL     1     114.195 126.019 136.522  0.00  0.00    +0.000 A 
ATOM     11  C   UNL     1     113.281 127.189 136.561  0.00  0.00    +0.000 A 
ATOM     12  C   UNL     1     114.072 126.868 136.466  0.00  0.00    +0.000 A 
ENDROOT
BRANCH   4  19
ATOM     13  O   UNL     1     110.903 125.765 136.334  0.00  0.00    +0.000 OA
ATOM     14  O   UNL     1     111.542 125.620 138.417  0.00  0.00    +0.000 OA
ATOM     15  O   UNL     1     110.023 126.236 138.599  0.00  0.00    +0.000 OA
ATOM     16  O   UNL     1     109.089 126.539 137.272  0.00  0.00    +0.000 OA
ATOM     17  C   UNL     1     111.075 125.771 137.753  0.00  0.00    +0.000 C 
ATOM     18  C   UNL     1     110.316 126.079 137.844  0.00  0.00    +0.000 C 
ATOM     19  C   UNL     1     111.369 125.614 136.998  0.00  0.00    +0.000 C 
ATOM     20  C   UNL     1     109.850 126.231 137.181  0.00  0.00    +0.000 C 
ATOM     21  C   UNL     1     110.143 126.074 136.425  0.00  0.00    +0.000 C 
BRANCH  21  23
ATOM     22  O   UNL     1     109.775 125.773 135.077  0.00  0.00    +0.000 OA
ATOM     23  C   UNL     1     109.677 126.225 135.762  0.00  0.00    +0.000 C 
ENDBRANCH  21  23
ENDBRANCH   4  19
BRANCH  11  25
ATOM     24  O   UNL     1     112.774 130.443 136.353  0.00  0.00    +0.000 OA
ATOM     25  C   UNL     1     113.154 128.003 136.510  0.00  0.00    +0.000 A 
ATOM     26  C   UNL     1     112.892 128.335 135.802  0.00  0.00    +0.000 A 
ATOM     27  C   UNL     1     113.290 128.485 137.165  0.00  0.00    +0.000 A 
ATOM     28  C   UNL     1     112.765 129.148 135.748  0.00  0.00    +0.000 A 
ATOM     29  C   UNL     1     113.164 129.298 137.113  0.00  0.00    +0.000 A 
ATOM     30  C   UNL     1     112.901 129.631 136.405  0.00  0.00    +0.000 A 
BRANCH  28  31
ATOM     31  O   UNL     1     112.502 129.480 135.040  0.00  0.00    +0.000 OA
ATOM     32  C   UNL     1     111.899 129.115 134.612  0.00  0.00    +0.000 C 
ENDBRANCH  28  31
ENDBRANCH  11  25
BRANCH   6  33
ATOM     33  O   UNL     1     111.616 123.986 137.103  0.00  0.00    +0.000 OA
ATOM     34  C   UNL     1     111.727 123.169 137.083  0.00  0.00    +0.000 C 
ENDBRANCH   6  33
TORSDOF 5
ENDMDL
MODEL 3
REMARK VINA RESULT:      -9.1      1.941      4.459
REMARK  Name = 44258381
REMARK  5 active torsions:
REMARK  status: ('A' for Active; 'I' for Inactive)
REMARK    1  A    between atoms: O_7  and  C_20
REMARK    2  A    between atoms: O_10  and  C_31
REMARK    3  A    between atoms: C_14  and  C_17
REMARK    4  A    between atoms: C_16  and  C_18
REMARK    5  A    between atoms: C_25  and  C_27
REMARK                            x       y       z     vdW  Elec       q    Type
REMARK                         _______ _______ _______ _____ _____    ______ ____
ROOT
ATOM      1  O   UNL     1     112.414 126.920 136.318  0.00  0.00    +0.000 OA
ATOM      2  O   UNL     1     110.295 125.307 135.185  0.00  0.00    +0.000 OA
ATOM      3  O   UNL     1     110.396 126.695 134.805  0.00  0.00    +0.000 OA
ATOM      4  C   UNL     1     112.268 125.518 136.666  0.00  0.00    +0.000 A 
ATOM      5  C   UNL     1     112.000 126.172 136.239  0.00  0.00    +0.000 A 
ATOM      6  C   UNL     1     111.878 124.794 136.599  0.00  0.00    +0.000 A 
ATOM      7  C   UNL     1     111.342 126.102 135.746  0.00  0.00    +0.000 A 
ATOM      8  C   UNL     1     111.220 124.724 136.105  0.00  0.00    +0.000 A 
ATOM      9  C   UNL     1     110.953 125.377 135.679  0.00  0.00    +0.000 A 
ATOM     10  C   UNL     1     111.054 126.774 135.297  0.00  0.00    +0.000 A 
ATOM     11  C   UNL     1     112.140 127.605 135.876  0.00  0.00    +0.000 A 
ATOM     12  C   UNL     1     111.456 127.532 135.362  0.00  0.00    +0.000 A 
ENDROOT
BRANCH   4  19
ATOM     13  O   UNL     1     112.840 125.903 137.918  0.00  0.00    +0.000 OA
ATOM     14  O   UNL     1     113.752 125.029 136.137  0.00  0.00    +0.000 OA
ATOM     15  O   UNL     1     115.067 125.170 137.123  0.00  0.00    +0.000 OA
ATOM     16  O   UNL     1     114.897 125.800 138.640  0.00  0.00    +0.000 OA
ATOM     17  C   UNL     1     113.667 125.344 136.895  0.00  0.00    +0.000 C 
ATOM     18  C   UNL     1     114.324 125.415 137.389  0.00  0.00    +0.000 C 
ATOM     19  C   UNL     1     112.924 125.588 137.159  0.00  0.00    +0.000 C 
ATOM     20  C   UNL     1     114.239 125.729 138.146  0.00  0.00    +0.000 C 
ATOM     21  C   UNL     1     113.497 125.974 138.411  0.00  0.00    +0.000 C 
BRANCH  21  23
ATOM     22  O   UNL     1     112.674 126.276 139.540  0.00  0.00    +0.000 OA
ATOM     23  C   UNL     1     113.412 126.288 139.168  0.00  0.00    +0.000 C 
ENDBRANCH  21  23
ENDBRANCH   4  19
BRANCH  11  25
ATOM     24  O   UNL     1     113.706 130.496 136.152  0.00  0.00    +0.000 OA
ATOM     25  C   UNL     1     112.532 128.328 135.945  0.00  0.00    +0.000 A 
ATOM     26  C   UNL     1     112.322 128.856 136.543  0.00  0.00    +0.000 A 
ATOM     27  C   UNL     1     113.134 128.523 135.416  0.00  0.00    +0.000 A 
ATOM     28  C   UNL     1     112.712 129.578 136.613  0.00  0.00    +0.000 A 
ATOM     29  C   UNL     1     113.526 129.246 135.485  0.00  0.00    +0.000 A 
ATOM     30  C   UNL     1     113.315 129.774 136.083  0.00  0.00    +0.000 A 
BRANCH  28  31
ATOM     31  O   UNL     1     112.502 130.106 137.211  0.00  0.00    +0.000 OA
ATOM     32  C   UNL     1     112.319 129.824 137.964  0.00  0.00    +0.000 C 
ENDBRANCH  28  31
ENDBRANCH  11  25
BRANCH   6  33
ATOM     33  O   UNL     1     112.146 124.140 137.026  0.00  0.00    +0.000 OA
ATOM     34  C   UNL     1     111.707 123.442 137.028  0.00  0.00    +0.000 C 
ENDBRANCH   6  33
TORSDOF 5
ENDMDL
MODEL 4
REMARK VINA RESULT:      -9.0      1.723      2.715
REMARK  Name = 44258381
REMARK  5 active torsions:
REMARK  status: ('A' for Active; 'I' for Inactive)
REMARK    1  A    between atoms: O_7  and  C_20
REMARK    2  A    between atoms: O_10  and  C_31
REMARK    3  A    between atoms: C_14  and  C_17
REMARK    4  A    between atoms: C_16  and  C_18
REMARK    5  A    between atoms: C_25  and  C_27
REMARK                            x       y       z     vdW  Elec       q    Type
REMARK                         _______ _______ _______ _____ _____    ______ ____
ROOT
ATOM      1  O   UNL     1     112.093 126.746 136.248  0.00  0.00    +0.000 OA
ATOM      2  O   UNL     1     109.689 125.996 134.823  0.00  0.00    +0.000 OA
ATOM      3  O   UNL     1     110.548 124.958 135.339  0.00  0.00    +0.000 OA
ATOM      4  C   UNL     1     111.194 127.751 135.708  0.00  0.00    +0.000 A 
ATOM      5  C   UNL     1     111.377 126.954 135.821  0.00  0.00    +0.000 A 
ATOM      6  C   UNL     1     110.509 127.962 135.300  0.00  0.00    +0.000 A 
ATOM      7  C   UNL     1     110.876 126.369 135.526  0.00  0.00    +0.000 A 
ATOM      8  C   UNL     1     110.008 127.377 135.005  0.00  0.00    +0.000 A 
ATOM      9  C   UNL     1     110.191 126.581 135.118  0.00  0.00    +0.000 A 
ATOM     10  C   UNL     1     111.055 125.536 135.638  0.00  0.00    +0.000 A 
ATOM     11  C   UNL     1     112.290 125.918 136.369  0.00  0.00    +0.000 A 
ATOM     12  C   UNL     1     111.768 125.309 136.062  0.00  0.00    +0.000 A 
ENDROOT
BRANCH   4  19
ATOM     13  O   UNL     1     112.362 128.562 135.573  0.00  0.00    +0.000 OA
ATOM     14  O   UNL     1     110.863 128.466 137.157  0.00  0.00    +0.000 OA
ATOM     15  O   UNL     1     111.867 129.635 137.747  0.00  0.00    +0.000 OA
ATOM     16  O   UNL     1     113.201 130.090 136.888  0.00  0.00    +0.000 OA
ATOM     17  C   UNL     1     111.531 128.693 136.727  0.00  0.00    +0.000 C 
ATOM     18  C   UNL     1     112.032 129.278 137.022  0.00  0.00    +0.000 C 
ATOM     19  C   UNL     1     111.695 128.335 136.003  0.00  0.00    +0.000 C 
ATOM     20  C   UNL     1     112.699 129.504 136.593  0.00  0.00    +0.000 C 
ATOM     21  C   UNL     1     112.864 129.147 135.868  0.00  0.00    +0.000 C 
BRANCH  21  23
ATOM     22  O   UNL     1     113.508 129.373 134.612  0.00  0.00    +0.000 OA
ATOM     23  C   UNL     1     113.530 129.373 135.438  0.00  0.00    +0.000 C 
ENDBRANCH  21  23
ENDBRANCH   4  19
BRANCH  11  25
ATOM     24  O   UNL     1     115.031 125.083 138.005  0.00  0.00    +0.000 OA
ATOM     25  C   UNL     1     112.976 125.709 136.778  0.00  0.00    +0.000 A 
ATOM     26  C   UNL     1     113.040 125.871 137.585  0.00  0.00    +0.000 A 
ATOM     27  C   UNL     1     113.596 125.339 136.381  0.00  0.00    +0.000 A 
ATOM     28  C   UNL     1     113.725 125.663 137.994  0.00  0.00    +0.000 A 
ATOM     29  C   UNL     1     114.282 125.130 136.790  0.00  0.00    +0.000 A 
ATOM     30  C   UNL     1     114.347 125.292 137.596  0.00  0.00    +0.000 A 
BRANCH  28  31
ATOM     31  O   UNL     1     113.790 125.825 138.801  0.00  0.00    +0.000 OA
ATOM     32  C   UNL     1     113.476 126.523 139.108  0.00  0.00    +0.000 C 
ENDBRANCH  28  31
ENDBRANCH  11  25
BRANCH   6  33
ATOM     33  O   UNL     1     110.326 128.759 135.186  0.00  0.00    +0.000 OA
ATOM     34  C   UNL     1     109.717 128.972 134.672  0.00  0.00    +0.000 C 
ENDBRANCH   6  33
TORSDOF 5
ENDMDL
MODEL 5
REMARK VINA RESULT:      -8.9      2.145      4.594
REMARK  Name = 44258381
REMARK  5 active torsions:
REMARK  status: ('A' for Active; 'I' for Inactive)
REMARK    1  A    between atoms: O_7  and  C_20
REMARK    2  A    between atoms: O_10  and  C_31
REMARK    3  A    between atoms: C_14  and  C_17
REMARK    4  A    between atoms: C_16  and  C_18
REMARK    5  A    between atoms: C_25  and  C_27
REMARK                            x       y       z     vdW  Elec       q    Type
REMARK                         _______ _______ _______ _____ _____    ______ ____
ROOT
ATOM      1  O   UNL     1     112.229 126.152 137.403  0.00  0.00    +0.000 OA
ATOM      2  O   UNL     1     114.927 125.294 138.006  0.00  0.00    +0.000 OA
ATOM      3  O   UNL     1     114.332 124.901 136.751  0.00  0.00    +0.000 OA
ATOM      4  C   UNL     1     112.874 126.519 138.651  0.00  0.00    +0.000 A 
ATOM      5  C   UNL     1     112.910 126.127 137.926  0.00  0.00    +0.000 A 
ATOM      6  C   UNL     1     113.522 126.502 139.161  0.00  0.00    +0.000 A 
ATOM      7  C   UNL     1     113.594 125.719 137.711  0.00  0.00    +0.000 A 
ATOM      8  C   UNL     1     114.206 126.094 138.946  0.00  0.00    +0.000 A 
ATOM      9  C   UNL     1     114.242 125.703 138.222  0.00  0.00    +0.000 A 
ATOM     10  C   UNL     1     113.644 125.307 136.959  0.00  0.00    +0.000 A 
ATOM     11  C   UNL     1     112.260 125.746 136.646  0.00  0.00    +0.000 A 
ATOM     12  C   UNL     1     112.972 125.321 136.422  0.00  0.00    +0.000 A 
ENDROOT
BRANCH   4  19
ATOM     13  O   UNL     1     112.086 127.710 138.629  0.00  0.00    +0.000 OA
ATOM     14  O   UNL     1     111.716 125.768 139.555  0.00  0.00    +0.000 OA
ATOM     15  O   UNL     1     110.348 126.585 139.985  0.00  0.00    +0.000 OA
ATOM     16  O   UNL     1     110.138 128.152 139.511  0.00  0.00    +0.000 OA
ATOM     17  C   UNL     1     111.611 126.552 139.318  0.00  0.00    +0.000 C 
ATOM     18  C   UNL     1     110.927 126.960 139.533  0.00  0.00    +0.000 C 
ATOM     19  C   UNL     1     112.191 126.927 138.866  0.00  0.00    +0.000 C 
ATOM     20  C   UNL     1     110.823 127.743 139.296  0.00  0.00    +0.000 C 
ATOM     21  C   UNL     1     111.402 128.119 138.844  0.00  0.00    +0.000 C 
BRANCH  21  23
ATOM     22  O   UNL     1     111.902 129.295 138.204  0.00  0.00    +0.000 OA
ATOM     23  C   UNL     1     111.298 128.901 138.607  0.00  0.00    +0.000 C 
ENDBRANCH  21  23
ENDBRANCH   4  19
BRANCH  11  25
ATOM     24  O   UNL     1     109.663 125.820 134.612  0.00  0.00    +0.000 OA
ATOM     25  C   UNL     1     111.611 125.764 136.138  0.00  0.00    +0.000 A 
ATOM     26  C   UNL     1     111.482 126.421 135.656  0.00  0.00    +0.000 A 
ATOM     27  C   UNL     1     111.090 125.125 136.110  0.00  0.00    +0.000 A 
ATOM     28  C   UNL     1     110.833 126.441 135.148  0.00  0.00    +0.000 A 
ATOM     29  C   UNL     1     110.441 125.143 135.601  0.00  0.00    +0.000 A 
ATOM     30  C   UNL     1     110.312 125.801 135.120  0.00  0.00    +0.000 A 
BRANCH  28  31
ATOM     31  O   UNL     1     110.705 127.098 134.666  0.00  0.00    +0.000 OA
ATOM     32  C   UNL     1     110.883 127.854 134.945  0.00  0.00    +0.000 C 
ENDBRANCH  28  31
ENDBRANCH  11  25
BRANCH   6  33
ATOM     33  O   UNL     1     113.486 126.894 139.887  0.00  0.00    +0.000 OA
ATOM     34  C   UNL     1     114.159 126.945 140.361  0.00  0.00    +0.000 C 
ENDBRANCH   6  33
TORSDOF 5
ENDMDL
MODEL 6
REMARK VINA RESULT:      -8.8      1.505      4.189
REMARK  Name = 44258381
REMARK  5 active torsions:
REMARK  status: ('A' for Active; 'I' for Inactive)
REMARK    1  A    between atoms: O_7  and  C_20
REMARK    2  A    between atoms: O_10  and  C_31
REMARK    3  A    between atoms: C_14  and  C_17
REMARK    4  A    between atoms: C_16  and  C_18
REMARK    5  A    between atoms: C_25  and  C_27
REMARK                            x       y       z     vdW  Elec       q    Type
REMARK                         _______ _______ _______ _____ _____    ______ ____
ROOT
ATOM      1  O   UNL     1     111.507 126.310 136.601  0.00  0.00    +0.000 OA
ATOM      2  O   UNL     1     112.628 123.653 136.349  0.00  0.00    +0.000 OA
ATOM      3  O   UNL     1     111.318 123.915 135.802  0.00  0.00    +0.000 OA
ATOM      4  C   UNL     1     112.821 125.994 137.133  0.00  0.00    +0.000 A 
ATOM      5  C   UNL     1     112.141 125.746 136.736  0.00  0.00    +0.000 A 
ATOM      6  C   UNL     1     113.436 125.461 137.268  0.00  0.00    +0.000 A 
ATOM      7  C   UNL     1     112.076 124.966 136.474  0.00  0.00    +0.000 A 
ATOM      8  C   UNL     1     113.371 124.681 137.007  0.00  0.00    +0.000 A 
ATOM      9  C   UNL     1     112.692 124.434 136.610  0.00  0.00    +0.000 A 
ATOM     10  C   UNL     1     111.374 124.697 136.060  0.00  0.00    +0.000 A 
ATOM     11  C   UNL     1     110.796 126.059 136.188  0.00  0.00    +0.000 A 
ATOM     12  C   UNL     1     110.729 125.247 135.916  0.00  0.00    +0.000 A 
ENDROOT
BRANCH   4  19
ATOM     13  O   UNL     1     113.169 127.357 136.884  0.00  0.00    +0.000 OA
ATOM     14  O   UNL     1     112.383 126.385 138.675  0.00  0.00    +0.000 OA
ATOM     15  O   UNL     1     112.512 127.945 139.198  0.00  0.00    +0.000 OA
ATOM     16  O   UNL     1     113.079 129.113 138.179  0.00  0.00    +0.000 OA
ATOM     17  C   UNL     1     112.667 126.969 138.165  0.00  0.00    +0.000 C 
ATOM     18  C   UNL     1     112.731 127.749 138.426  0.00  0.00    +0.000 C 
ATOM     19  C   UNL     1     112.885 126.773 137.394  0.00  0.00    +0.000 C 
ATOM     20  C   UNL     1     113.014 128.332 137.917  0.00  0.00    +0.000 C 
ATOM     21  C   UNL     1     113.233 128.137 137.146  0.00  0.00    +0.000 C 
BRANCH  21  23
ATOM     22  O   UNL     1     113.744 128.522 135.868  0.00  0.00    +0.000 OA
ATOM     23  C   UNL     1     113.516 128.720 136.636  0.00  0.00    +0.000 C 
ENDBRANCH  21  23
ENDBRANCH   4  19
BRANCH  11  25
ATOM     24  O   UNL     1     108.342 128.198 135.651  0.00  0.00    +0.000 OA
ATOM     25  C   UNL     1     110.183 126.594 136.054  0.00  0.00    +0.000 A 
ATOM     26  C   UNL     1     110.243 127.147 135.445  0.00  0.00    +0.000 A 
ATOM     27  C   UNL     1     109.508 126.576 136.528  0.00  0.00    +0.000 A 
ATOM     28  C   UNL     1     109.630 127.682 135.310  0.00  0.00    +0.000 A 
ATOM     29  C   UNL     1     108.894 127.110 136.394  0.00  0.00    +0.000 A 
ATOM     30  C   UNL     1     108.955 127.664 135.785  0.00  0.00    +0.000 A 
BRANCH  28  31
ATOM     31  O   UNL     1     109.691 128.235 134.701  0.00  0.00    +0.000 OA
ATOM     32  C   UNL     1     110.381 128.680 134.615  0.00  0.00    +0.000 C 
ENDBRANCH  28  31
ENDBRANCH  11  25
BRANCH   6  33
ATOM     33  O   UNL     1     114.116 125.708 137.665  0.00  0.00    +0.000 OA
ATOM     34  C   UNL     1     114.768 125.206 137.718  0.00  0.00    +0.000 C 
ENDBRANCH   6  33
TORSDOF 5
ENDMDL
MODEL 7
REMARK VINA RESULT:      -8.8      2.188      5.355
REMARK  Name = 44258381
REMARK  5 active torsions:
REMARK  status: ('A' for Active; 'I' for Inactive)
REMARK    1  A    between atoms: O_7  and  C_20
REMARK    2  A    between atoms: O_10  and  C_31
REMARK    3  A    between atoms: C_14  and  C_17
REMARK    4  A    between atoms: C_16  and  C_18
REMARK    5  A    between atoms: C_25  and  C_27
REMARK                            x       y       z     vdW  Elec       q    Type
REMARK                         _______ _______ _______ _____ _____    ______ ____
ROOT
ATOM      1  O   UNL     1     112.703 126.382 138.514  0.00  0.00    +0.000 OA
ATOM      2  O   UNL     1     113.966 124.422 136.800  0.00  0.00    +0.000 OA
ATOM      3  O   UNL     1     114.770 125.121 137.774  0.00  0.00    +0.000 OA
ATOM      4  C   UNL     1     111.940 125.651 137.518  0.00  0.00    +0.000 A 
ATOM      5  C   UNL     1     112.665 125.799 137.885  0.00  0.00    +0.000 A 
ATOM      6  C   UNL     1     111.892 125.093 136.913  0.00  0.00    +0.000 A 
ATOM      7  C   UNL     1     113.340 125.390 137.646  0.00  0.00    +0.000 A 
ATOM      8  C   UNL     1     112.567 124.683 136.673  0.00  0.00    +0.000 A 
ATOM      9  C   UNL     1     113.290 124.832 137.040  0.00  0.00    +0.000 A 
ATOM     10  C   UNL     1     114.100 125.535 138.019  0.00  0.00    +0.000 A 
ATOM     11  C   UNL     1     113.455 126.542 138.900  0.00  0.00    +0.000 A 
ATOM     12  C   UNL     1     114.158 126.115 138.651  0.00  0.00    +0.000 A 
ENDROOT
BRANCH   4  19
ATOM     13  O   UNL     1     111.085 126.790 137.418  0.00  0.00    +0.000 OA
ATOM     14  O   UNL     1     110.954 125.009 138.674  0.00  0.00    +0.000 OA
ATOM     15  O   UNL     1     109.604 125.828 139.152  0.00  0.00    +0.000 OA
ATOM     16  O   UNL     1     109.240 127.289 138.475  0.00  0.00    +0.000 OA
ATOM     17  C   UNL     1     110.772 125.740 138.335  0.00  0.00    +0.000 C 
ATOM     18  C   UNL     1     110.097 126.149 138.574  0.00  0.00    +0.000 C 
ATOM     19  C   UNL     1     111.266 126.060 137.757  0.00  0.00    +0.000 C 
ATOM     20  C   UNL     1     109.916 126.879 138.236  0.00  0.00    +0.000 C 
ATOM     21  C   UNL     1     110.409 127.200 137.658  0.00  0.00    +0.000 C 
BRANCH  21  23
ATOM     22  O   UNL     1     110.749 128.274 136.778  0.00  0.00    +0.000 OA
ATOM     23  C   UNL     1     110.228 127.929 137.319  0.00  0.00    +0.000 C 
ENDBRANCH  21  23
ENDBRANCH   4  19
BRANCH  11  25
ATOM     24  O   UNL     1     113.639 128.777 141.321  0.00  0.00    +0.000 OA
ATOM     25  C   UNL     1     113.501 127.100 139.506  0.00  0.00    +0.000 A 
ATOM     26  C   UNL     1     113.524 127.905 139.324  0.00  0.00    +0.000 A 
ATOM     27  C   UNL     1     113.524 126.855 140.293  0.00  0.00    +0.000 A 
ATOM     28  C   UNL     1     113.570 128.464 139.928  0.00  0.00    +0.000 A 
ATOM     29  C   UNL     1     113.570 127.414 140.898  0.00  0.00    +0.000 A 
ATOM     30  C   UNL     1     113.593 128.218 140.716  0.00  0.00    +0.000 A 
BRANCH  28  31
ATOM     31  O   UNL     1     113.593 129.268 139.746  0.00  0.00    +0.000 OA
ATOM     32  C   UNL     1     113.168 129.558 139.101  0.00  0.00    +0.000 C 
ENDBRANCH  28  31
ENDBRANCH  11  25
BRANCH   6  33
ATOM     33  O   UNL     1     111.167 124.944 136.546  0.00  0.00    +0.000 OA
ATOM     34  C   UNL     1     111.145 124.545 135.824  0.00  0.00    +0.000 C 
ENDBRANCH   6  33
TORSDOF 5
ENDMDL
MODEL 8
REMARK VINA RESULT:      -8.7      1.954      3.754
REMARK  Name = 44258381
REMARK  5 active torsions:
REMARK  status: ('A' for Active; 'I' for Inactive)
REMARK    1  A    between atoms: O_7  and  C_20
REMARK    2  A    between atoms: O_10  and  C_31
REMARK    3  A    between atoms: C_14  and  C_17
REMARK    4  A    between atoms: C_16  and  C_18
REMARK    5  A    between atoms: C_25  and  C_27
REMARK                            x       y       z     vdW  Elec       q    Type
REMARK                         _______ _______ _______ _____ _____    ______ ____
ROOT
ATOM      1  O   UNL     1     113.190 127.178 137.912  0.00  0.00    +0.000 OA
ATOM      2  O   UNL     1     113.407 128.441 140.507  0.00  0.00    +0.000 OA
ATOM      3  O   UNL     1     113.610 127.016 140.403  0.00  0.00    +0.000 OA
ATOM      4  C   UNL     1     112.995 128.608 138.071  0.00  0.00    +0.000 A 
ATOM      5  C   UNL     1     113.162 127.875 138.413  0.00  0.00    +0.000 A 
ATOM      6  C   UNL     1     112.966 129.284 138.542  0.00  0.00    +0.000 A 
ATOM      7  C   UNL     1     113.299 127.819 139.224  0.00  0.00    +0.000 A 
ATOM      8  C   UNL     1     113.103 129.229 139.354  0.00  0.00    +0.000 A 
ATOM      9  C   UNL     1     113.269 128.497 139.694  0.00  0.00    +0.000 A 
ATOM     10  C   UNL     1     113.474 127.062 139.591  0.00  0.00    +0.000 A 
ATOM     11  C   UNL     1     113.364 126.411 138.261  0.00  0.00    +0.000 A 
ATOM     12  C   UNL     1     113.506 126.353 139.106  0.00  0.00    +0.000 A 
ENDROOT
BRANCH   4  19
ATOM     13  O   UNL     1     113.494 128.740 136.739  0.00  0.00    +0.000 OA
ATOM     14  O   UNL     1     111.451 128.566 137.492  0.00  0.00    +0.000 OA
ATOM     15  O   UNL     1     111.177 128.677 135.868  0.00  0.00    +0.000 OA
ATOM     16  O   UNL     1     112.447 128.831 134.825  0.00  0.00    +0.000 OA
ATOM     17  C   UNL     1     112.087 128.643 136.970  0.00  0.00    +0.000 C 
ATOM     18  C   UNL     1     111.950 128.698 136.158  0.00  0.00    +0.000 C 
ATOM     19  C   UNL     1     112.858 128.664 137.261  0.00  0.00    +0.000 C 
ATOM     20  C   UNL     1     112.584 128.775 135.637  0.00  0.00    +0.000 C 
ATOM     21  C   UNL     1     113.356 128.796 135.927  0.00  0.00    +0.000 C 
BRANCH  21  23
ATOM     22  O   UNL     1     114.678 129.263 135.647  0.00  0.00    +0.000 OA
ATOM     23  C   UNL     1     113.991 128.873 135.406  0.00  0.00    +0.000 C 
ENDBRANCH  21  23
ENDBRANCH   4  19
BRANCH  11  25
ATOM     24  O   UNL     1     113.478 123.711 136.369  0.00  0.00    +0.000 OA
ATOM     25  C   UNL     1     113.393 125.736 137.788  0.00  0.00    +0.000 A 
ATOM     26  C   UNL     1     112.695 125.348 137.580  0.00  0.00    +0.000 A 
ATOM     27  C   UNL     1     114.118 125.449 137.522  0.00  0.00    +0.000 A 
ATOM     28  C   UNL     1     112.723 124.673 137.107  0.00  0.00    +0.000 A 
ATOM     29  C   UNL     1     114.148 124.774 137.049  0.00  0.00    +0.000 A 
ATOM     30  C   UNL     1     113.450 124.385 136.841  0.00  0.00    +0.000 A 
BRANCH  28  31
ATOM     31  O   UNL     1     112.025 124.284 136.900  0.00  0.00    +0.000 OA
ATOM     32  C   UNL     1     111.371 124.718 136.645  0.00  0.00    +0.000 C 
ENDBRANCH  28  31
ENDBRANCH  11  25
BRANCH   6  33
ATOM     33  O   UNL     1     112.799 130.017 138.201  0.00  0.00    +0.000 OA
ATOM     34  C   UNL     1     112.887 130.707 138.644  0.00  0.00    +0.000 C 
ENDBRANCH   6  33
TORSDOF 5
ENDMDL
MODEL 9
REMARK VINA RESULT:      -8.7      1.755      4.126
REMARK  Name = 44258381
REMARK  5 active torsions:
REMARK  status: ('A' for Active; 'I' for Inactive)
REMARK    1  A    between atoms: O_7  and  C_20
REMARK    2  A    between atoms: O_10  and  C_31
REMARK    3  A    between atoms: C_14  and  C_17
REMARK    4  A    between atoms: C_16  and  C_18
REMARK    5  A    between atoms: C_25  and  C_27
REMARK                            x       y       z     vdW  Elec       q    Type
REMARK                         _______ _______ _______ _____ _____    ______ ____
ROOT
ATOM      1  O   UNL     1     111.860 126.224 137.626  0.00  0.00    +0.000 OA
ATOM      2  O   UNL     1     111.597 123.929 135.883  0.00  0.00    +0.000 OA
ATOM      3  O   UNL     1     112.472 123.841 137.028  0.00  0.00    +0.000 OA
ATOM      4  C   UNL     1     110.993 126.259 136.462  0.00  0.00    +0.000 A 
ATOM      5  C   UNL     1     111.524 125.840 136.936  0.00  0.00    +0.000 A 
ATOM      6  C   UNL     1     110.664 125.900 135.796  0.00  0.00    +0.000 A 
ATOM      7  C   UNL     1     111.725 125.064 136.743  0.00  0.00    +0.000 A 
ATOM      8  C   UNL     1     110.865 125.124 135.603  0.00  0.00    +0.000 A 
ATOM      9  C   UNL     1     111.395 124.706 136.076  0.00  0.00    +0.000 A 
ATOM     10  C   UNL     1     112.276 124.618 137.228  0.00  0.00    +0.000 A 
ATOM     11  C   UNL     1     112.414 125.794 138.124  0.00  0.00    +0.000 A 
ATOM     12  C   UNL     1     112.623 124.985 137.923  0.00  0.00    +0.000 A 
ENDROOT
BRANCH   4  19
ATOM     13  O   UNL     1     111.268 127.660 136.401  0.00  0.00    +0.000 OA
ATOM     14  O   UNL     1     109.639 126.562 137.354  0.00  0.00    +0.000 OA
ATOM     15  O   UNL     1     109.236 128.115 137.739  0.00  0.00    +0.000 OA
ATOM     16  O   UNL     1     110.188 129.365 137.233  0.00  0.00    +0.000 OA
ATOM     17  C   UNL     1     110.115 127.187 137.100  0.00  0.00    +0.000 C 
ATOM     18  C   UNL     1     109.914 127.964 137.293  0.00  0.00    +0.000 C 
ATOM     19  C   UNL     1     110.792 127.035 136.655  0.00  0.00    +0.000 C 
ATOM     20  C   UNL     1     110.390 128.588 137.040  0.00  0.00    +0.000 C 
ATOM     21  C   UNL     1     111.067 128.436 136.594  0.00  0.00    +0.000 C 
BRANCH  21  23
ATOM     22  O   UNL     1     112.062 128.953 135.707  0.00  0.00    +0.000 OA
ATOM     23  C   UNL     1     111.543 129.060 136.341  0.00  0.00    +0.000 C 
ENDBRANCH  21  23
ENDBRANCH   4  19
BRANCH  11  25
ATOM     24  O   UNL     1     113.724 127.236 140.787  0.00  0.00    +0.000 OA
ATOM     25  C   UNL     1     112.741 126.154 138.790  0.00  0.00    +0.000 A 
ATOM     26  C   UNL     1     112.322 126.169 139.500  0.00  0.00    +0.000 A 
ATOM     27  C   UNL     1     113.488 126.501 138.746  0.00  0.00    +0.000 A 
ATOM     28  C   UNL     1     112.649 126.529 140.166  0.00  0.00    +0.000 A 
ATOM     29  C   UNL     1     113.816 126.862 139.411  0.00  0.00    +0.000 A 
ATOM     30  C   UNL     1     113.397 126.876 140.122  0.00  0.00    +0.000 A 
BRANCH  28  31
ATOM     31  O   UNL     1     112.229 126.543 140.876  0.00  0.00    +0.000 OA
ATOM     32  C   UNL     1     111.423 126.721 140.876  0.00  0.00    +0.000 C 
ENDBRANCH  28  31
ENDBRANCH  11  25
BRANCH   6  33
ATOM     33  O   UNL     1     110.133 126.319 135.322  0.00  0.00    +0.000 OA
ATOM     34  C   UNL     1     109.868 125.992 134.613  0.00  0.00    +0.000 C 
ENDBRANCH   6  33
TORSDOF 5
ENDMDL
MODEL 10
REMARK VINA RESULT:      -8.6      2.682      4.050
REMARK  Name = 44258381
REMARK  5 active torsions:
REMARK  status: ('A' for Active; 'I' for Inactive)
REMARK    1  A    between atoms: O_7  and  C_20
REMARK    2  A    between atoms: O_10  and  C_31
REMARK    3  A    between atoms: C_14  and  C_17
REMARK    4  A    between atoms: C_16  and  C_18
REMARK    5  A    between atoms: C_25  and  C_27
REMARK                            x       y       z     vdW  Elec       q    Type
REMARK                         _______ _______ _______ _____ _____    ______ ____
ROOT
ATOM      1  O   UNL     1     113.111 127.250 137.713  0.00  0.00    +0.000 OA
ATOM      2  O   UNL     1     113.459 129.935 136.689  0.00  0.00    +0.000 OA
ATOM      3  O   UNL     1     113.627 128.816 135.792  0.00  0.00    +0.000 OA
ATOM      4  C   UNL     1     112.954 128.410 138.573  0.00  0.00    +0.000 A 
ATOM      5  C   UNL     1     113.118 128.101 137.825  0.00  0.00    +0.000 A 
ATOM      6  C   UNL     1     112.958 129.226 138.692  0.00  0.00    +0.000 A 
ATOM      7  C   UNL     1     113.287 128.610 137.197  0.00  0.00    +0.000 A 
ATOM      8  C   UNL     1     113.127 129.734 138.064  0.00  0.00    +0.000 A 
ATOM      9  C   UNL     1     113.291 129.426 137.318  0.00  0.00    +0.000 A 
ATOM     10  C   UNL     1     113.459 128.301 136.414  0.00  0.00    +0.000 A 
ATOM     11  C   UNL     1     113.281 126.922 136.937  0.00  0.00    +0.000 A 
ATOM     12  C   UNL     1     113.456 127.451 136.283  0.00  0.00    +0.000 A 
ENDROOT
BRANCH   4  19
ATOM     13  O   UNL     1     113.400 127.585 139.651  0.00  0.00    +0.000 OA
ATOM     14  O   UNL     1     111.389 128.028 138.927  0.00  0.00    +0.000 OA
ATOM     15  O   UNL     1     111.052 127.011 140.182  0.00  0.00    +0.000 OA
ATOM     16  O   UNL     1     112.280 126.377 141.084  0.00  0.00    +0.000 OA
ATOM     17  C   UNL     1     112.003 127.710 139.378  0.00  0.00    +0.000 C 
ATOM     18  C   UNL     1     111.835 127.202 140.006  0.00  0.00    +0.000 C 
ATOM     19  C   UNL     1     112.786 127.902 139.200  0.00  0.00    +0.000 C 
ATOM     20  C   UNL     1     112.449 126.886 140.456  0.00  0.00    +0.000 C 
ATOM     21  C   UNL     1     113.232 127.077 140.279  0.00  0.00    +0.000 C 
BRANCH  21  23
ATOM     22  O   UNL     1     114.581 127.137 140.748  0.00  0.00    +0.000 OA
ATOM     23  C   UNL     1     113.846 126.761 140.729  0.00  0.00    +0.000 C 
ENDBRANCH  21  23
ENDBRANCH   4  19
BRANCH  11  25
ATOM     24  O   UNL     1     113.260 123.656 136.469  0.00  0.00    +0.000 OA
ATOM     25  C   UNL     1     113.276 126.106 136.820  0.00  0.00    +0.000 A 
ATOM     26  C   UNL     1     112.572 125.721 136.627  0.00  0.00    +0.000 A 
ATOM     27  C   UNL     1     113.974 125.673 136.896  0.00  0.00    +0.000 A 
ATOM     28  C   UNL     1     112.566 124.905 136.510  0.00  0.00    +0.000 A 
ATOM     29  C   UNL     1     113.969 124.857 136.779  0.00  0.00    +0.000 A 
ATOM     30  C   UNL     1     113.265 124.472 136.586  0.00  0.00    +0.000 A 
BRANCH  28  31
ATOM     31  O   UNL     1     111.862 124.520 136.317  0.00  0.00    +0.000 OA
ATOM     32  C   UNL     1     111.214 124.955 136.050  0.00  0.00    +0.000 C 
ENDBRANCH  28  31
ENDBRANCH  11  25
BRANCH   6  33
ATOM     33  O   UNL     1     112.794 129.534 139.440  0.00  0.00    +0.000 OA
ATOM     34  C   UNL     1     112.920 130.335 139.593  0.00  0.00    +0.000 C 
ENDBRANCH   6  33
TORSDOF 5
ENDMDL
