MODEL 1
REMARK VINA RESULT:      -9.9      0.000      0.000
REMARK  Name = 44259069
REMARK  7 active torsions:
REMARK  status: ('A' for Active; 'I' for Inactive)
REMARK    1  A    between atoms: O_2  and  C_16
REMARK    2  A    between atoms: O_2  and  C_18
REMARK    3  A    between atoms: O_11  and  C_37
REMARK    4  A    between atoms: C_19  and  C_20
REMARK    5  A    between atoms: C_19  and  C_21
REMARK    6  A    between atoms: C_21  and  C_22
REMARK    7  A    between atoms: C_25  and  C_31
REMARK                            x       y       z     vdW  Elec       q    Type
REMARK                         _______ _______ _______ _____ _____    ______ ____
ROOT
ATOM      1  O   UNL     1     112.623 126.831 136.426  0.00  0.00    +0.000 OA
ATOM      2  O   UNL     1     110.423 127.011 135.308  0.00  0.00    +0.000 OA
ATOM      3  O   UNL     1     112.291 123.948 136.661  0.00  0.00    +0.000 OA
ATOM      4  O   UNL     1     110.224 125.585 135.407  0.00  0.00    +0.000 OA
ATOM      5  C   UNL     1     111.609 127.628 135.812  0.00  0.00    +0.000 A 
ATOM      6  C   UNL     1     112.474 125.392 136.552  0.00  0.00    +0.000 A 
ATOM      7  C   UNL     1     112.171 126.154 136.295  0.00  0.00    +0.000 A 
ATOM      8  C   UNL     1     111.437 126.214 135.922  0.00  0.00    +0.000 A 
ATOM      9  C   UNL     1     112.342 127.569 136.184  0.00  0.00    +0.000 A 
ATOM     10  C   UNL     1     111.156 126.951 135.681  0.00  0.00    +0.000 A 
ATOM     11  C   UNL     1     112.007 124.684 136.418  0.00  0.00    +0.000 A 
ATOM     12  C   UNL     1     110.957 125.517 135.781  0.00  0.00    +0.000 A 
ATOM     13  C   UNL     1     111.244 124.745 136.030  0.00  0.00    +0.000 A 
ENDROOT
BRANCH   9  14
ATOM     14  C   UNL     1     112.796 128.245 136.315  0.00  0.00    +0.000 A 
ATOM     15  C   UNL     1     112.850 128.564 137.074  0.00  0.00    +0.000 A 
ATOM     16  C   UNL     1     113.195 128.603 135.689  0.00  0.00    +0.000 A 
ATOM     17  C   UNL     1     113.302 129.241 137.207  0.00  0.00    +0.000 A 
ATOM     18  C   UNL     1     113.648 129.280 135.820  0.00  0.00    +0.000 A 
ATOM     19  C   UNL     1     113.702 129.599 136.579  0.00  0.00    +0.000 A 
BRANCH  19  20
ATOM     20  O   UNL     1     114.154 130.276 136.711  0.00  0.00    +0.000 OA
ATOM     21  C   UNL     1     113.783 131.000 136.849  0.00  0.00    +0.000 C 
ENDBRANCH  19  20
ENDBRANCH   9  14
BRANCH   5  22
ATOM     22  O   UNL     1     111.328 128.365 135.570  0.00  0.00    +0.000 OA
BRANCH  22  31
ATOM     23  O   UNL     1     110.399 128.489 136.648  0.00  0.00    +0.000 OA
ATOM     24  O   UNL     1     108.913 129.850 135.212  0.00  0.00    +0.000 OA
ATOM     25  O   UNL     1     108.479 129.520 136.769  0.00  0.00    +0.000 OA
ATOM     26  O   UNL     1     110.337 129.272 134.612  0.00  0.00    +0.000 OA
ATOM     27  C   UNL     1     109.408 129.396 135.691  0.00  0.00    +0.000 C 
ATOM     28  C   UNL     1     109.191 129.231 136.469  0.00  0.00    +0.000 C 
ATOM     29  C   UNL     1     110.120 129.108 135.391  0.00  0.00    +0.000 C 
ATOM     30  C   UNL     1     109.687 128.778 136.948  0.00  0.00    +0.000 C 
ATOM     31  C   UNL     1     110.615 128.654 135.870  0.00  0.00    +0.000 C 
ATOM     32  C   UNL     1     109.470 128.613 137.727  0.00  0.00    +0.000 C 
ENDBRANCH  22  31
ENDBRANCH   5  22
BRANCH   6  33
ATOM     33  C   UNL     1     113.209 125.342 136.924  0.00  0.00    +0.000 C 
BRANCH  33  34
ATOM     34  C   UNL     1     113.818 124.907 136.577  0.00  0.00    +0.000 C 
BRANCH  34  36
ATOM     35  O   UNL     1     115.355 125.026 137.165  0.00  0.00    +0.000 OA
ATOM     36  C   UNL     1     114.587 124.966 136.870  0.00  0.00    +0.000 C 
ATOM     37  C   UNL     1     114.301 124.875 137.639  0.00  0.00    +0.000 C 
ATOM     38  C   UNL     1     114.873 125.058 136.102  0.00  0.00    +0.000 C 
ENDBRANCH  34  36
ENDBRANCH  33  34
ENDBRANCH   6  33
TORSDOF 7
ENDMDL
MODEL 2
REMARK VINA RESULT:      -9.3      2.402      3.878
REMARK  Name = 44259069
REMARK  7 active torsions:
REMARK  status: ('A' for Active; 'I' for Inactive)
REMARK    1  A    between atoms: O_2  and  C_16
REMARK    2  A    between atoms: O_2  and  C_18
REMARK    3  A    between atoms: O_11  and  C_37
REMARK    4  A    between atoms: C_19  and  C_20
REMARK    5  A    between atoms: C_19  and  C_21
REMARK    6  A    between atoms: C_21  and  C_22
REMARK    7  A    between atoms: C_25  and  C_31
REMARK                            x       y       z     vdW  Elec       q    Type
REMARK                         _______ _______ _______ _____ _____    ______ ____
ROOT
ATOM      1  O   UNL     1     112.768 126.087 138.705  0.00  0.00    +0.000 OA
ATOM      2  O   UNL     1     110.497 125.682 137.811  0.00  0.00    +0.000 OA
ATOM      3  O   UNL     1     111.631 127.044 141.211  0.00  0.00    +0.000 OA
ATOM      4  O   UNL     1     109.898 126.150 139.038  0.00  0.00    +0.000 OA
ATOM      5  C   UNL     1     111.916 125.651 137.645  0.00  0.00    +0.000 A 
ATOM      6  C   UNL     1     112.219 126.567 139.961  0.00  0.00    +0.000 A 
ATOM      7  C   UNL     1     112.106 126.254 139.169  0.00  0.00    +0.000 A 
ATOM      8  C   UNL     1     111.349 126.119 138.871  0.00  0.00    +0.000 A 
ATOM      9  C   UNL     1     112.672 125.786 137.943  0.00  0.00    +0.000 A 
ATOM     10  C   UNL     1     111.253 125.817 138.109  0.00  0.00    +0.000 A 
ATOM     11  C   UNL     1     111.533 126.742 140.449  0.00  0.00    +0.000 A 
ATOM     12  C   UNL     1     110.652 126.288 139.343  0.00  0.00    +0.000 A 
ATOM     13  C   UNL     1     110.745 126.602 140.139  0.00  0.00    +0.000 A 
ENDROOT
BRANCH   9  14
ATOM     14  C   UNL     1     113.335 125.620 137.480  0.00  0.00    +0.000 A 
ATOM     15  C   UNL     1     113.748 126.235 137.117  0.00  0.00    +0.000 A 
ATOM     16  C   UNL     1     113.583 124.841 137.379  0.00  0.00    +0.000 A 
ATOM     17  C   UNL     1     114.411 126.070 136.654  0.00  0.00    +0.000 A 
ATOM     18  C   UNL     1     114.246 124.675 136.916  0.00  0.00    +0.000 A 
ATOM     19  C   UNL     1     114.659 125.289 136.553  0.00  0.00    +0.000 A 
BRANCH  19  20
ATOM     20  O   UNL     1     115.322 125.125 136.090  0.00  0.00    +0.000 OA
ATOM     21  C   UNL     1     115.492 125.594 135.433  0.00  0.00    +0.000 C 
ENDBRANCH  19  20
ENDBRANCH   9  14
BRANCH   5  22
ATOM     22  O   UNL     1     111.820 125.350 136.883  0.00  0.00    +0.000 OA
BRANCH  22  31
ATOM     23  O   UNL     1     111.421 126.599 136.317  0.00  0.00    +0.000 OA
ATOM     24  O   UNL     1     110.035 125.401 134.652  0.00  0.00    +0.000 OA
ATOM     25  O   UNL     1     110.097 127.050 134.640  0.00  0.00    +0.000 OA
ATOM     26  O   UNL     1     110.897 124.551 135.773  0.00  0.00    +0.000 OA
ATOM     27  C   UNL     1     110.497 125.801 135.207  0.00  0.00    +0.000 C 
ATOM     28  C   UNL     1     110.528 126.624 135.201  0.00  0.00    +0.000 C 
ATOM     29  C   UNL     1     110.927 125.376 135.767  0.00  0.00    +0.000 C 
ATOM     30  C   UNL     1     110.990 127.024 135.756  0.00  0.00    +0.000 C 
ATOM     31  C   UNL     1     111.389 125.775 136.322  0.00  0.00    +0.000 C 
ATOM     32  C   UNL     1     111.021 127.849 135.750  0.00  0.00    +0.000 C 
ENDBRANCH  22  31
ENDBRANCH   5  22
BRANCH   6  33
ATOM     33  C   UNL     1     112.979 126.699 140.251  0.00  0.00    +0.000 C 
BRANCH  33  34
ATOM     34  C   UNL     1     113.193 127.448 140.523  0.00  0.00    +0.000 C 
BRANCH  34  36
ATOM     35  O   UNL     1     114.779 127.797 140.820  0.00  0.00    +0.000 OA
ATOM     36  C   UNL     1     113.986 127.623 140.671  0.00  0.00    +0.000 C 
ATOM     37  C   UNL     1     114.072 126.901 141.062  0.00  0.00    +0.000 C 
ATOM     38  C   UNL     1     113.900 128.344 140.281  0.00  0.00    +0.000 C 
ENDBRANCH  34  36
ENDBRANCH  33  34
ENDBRANCH   6  33
TORSDOF 7
ENDMDL
MODEL 3
REMARK VINA RESULT:      -9.2     12.132     14.128
REMARK  Name = 44259069
REMARK  7 active torsions:
REMARK  status: ('A' for Active; 'I' for Inactive)
REMARK    1  A    between atoms: O_2  and  C_16
REMARK    2  A    between atoms: O_2  and  C_18
REMARK    3  A    between atoms: O_11  and  C_37
REMARK    4  A    between atoms: C_19  and  C_20
REMARK    5  A    between atoms: C_19  and  C_21
REMARK    6  A    between atoms: C_21  and  C_22
REMARK    7  A    between atoms: C_25  and  C_31
REMARK                            x       y       z     vdW  Elec       q    Type
REMARK                         _______ _______ _______ _____ _____    ______ ____
ROOT
ATOM      1  O   UNL     1     103.669 125.226 147.261  0.00  0.00    +0.000 OA
ATOM      2  O   UNL     1     105.766 124.474 146.184  0.00  0.00    +0.000 OA
ATOM      3  O   UNL     1     102.262 122.917 146.180  0.00  0.00    +0.000 OA
ATOM      4  O   UNL     1     105.102 123.319 145.631  0.00  0.00    +0.000 OA
ATOM      5  C   UNL     1     105.059 125.418 146.990  0.00  0.00    +0.000 A 
ATOM      6  C   UNL     1     102.952 124.081 146.730  0.00  0.00    +0.000 A 
ATOM      7  C   UNL     1     103.677 124.533 146.814  0.00  0.00    +0.000 A 
ATOM      8  C   UNL     1     104.377 124.282 146.455  0.00  0.00    +0.000 A 
ATOM      9  C   UNL     1     104.360 125.669 147.349  0.00  0.00    +0.000 A 
ATOM     10  C   UNL     1     105.068 124.725 146.543  0.00  0.00    +0.000 A 
ATOM     11  C   UNL     1     102.954 123.358 146.266  0.00  0.00    +0.000 A 
ATOM     12  C   UNL     1     104.398 123.562 145.987  0.00  0.00    +0.000 A 
ATOM     13  C   UNL     1     103.682 123.096 145.892  0.00  0.00    +0.000 A 
ENDROOT
BRANCH   9  14
ATOM     14  C   UNL     1     104.351 126.362 147.796  0.00  0.00    +0.000 A 
ATOM     15  C   UNL     1     104.376 127.096 147.420  0.00  0.00    +0.000 A 
ATOM     16  C   UNL     1     104.317 126.323 148.619  0.00  0.00    +0.000 A 
ATOM     17  C   UNL     1     104.367 127.790 147.865  0.00  0.00    +0.000 A 
ATOM     18  C   UNL     1     104.308 127.016 149.066  0.00  0.00    +0.000 A 
ATOM     19  C   UNL     1     104.333 127.750 148.689  0.00  0.00    +0.000 A 
BRANCH  19  20
ATOM     20  O   UNL     1     104.324 128.443 149.135  0.00  0.00    +0.000 OA
ATOM     21  C   UNL     1     104.865 129.046 148.972  0.00  0.00    +0.000 C 
ENDBRANCH  19  20
ENDBRANCH   9  14
BRANCH   5  22
ATOM     22  O   UNL     1     105.749 125.861 147.078  0.00  0.00    +0.000 OA
BRANCH  22  31
ATOM     23  O   UNL     1     106.296 125.008 148.086  0.00  0.00    +0.000 OA
ATOM     24  O   UNL     1     108.582 125.598 147.344  0.00  0.00    +0.000 OA
ATOM     25  O   UNL     1     108.367 124.549 148.599  0.00  0.00    +0.000 OA
ATOM     26  O   UNL     1     107.273 126.254 146.584  0.00  0.00    +0.000 OA
ATOM     27  C   UNL     1     107.820 125.401 147.592  0.00  0.00    +0.000 C 
ATOM     28  C   UNL     1     107.713 124.877 148.219  0.00  0.00    +0.000 C 
ATOM     29  C   UNL     1     107.166 125.729 147.211  0.00  0.00    +0.000 C 
ATOM     30  C   UNL     1     106.951 124.680 148.466  0.00  0.00    +0.000 C 
ATOM     31  C   UNL     1     106.404 125.533 147.459  0.00  0.00    +0.000 C 
ATOM     32  C   UNL     1     106.843 124.155 149.094  0.00  0.00    +0.000 C 
ENDBRANCH  22  31
ENDBRANCH   5  22
BRANCH   6  33
ATOM     33  C   UNL     1     102.257 124.339 147.093  0.00  0.00    +0.000 C 
BRANCH  33  34
ATOM     34  C   UNL     1     101.869 123.853 147.635  0.00  0.00    +0.000 C 
BRANCH  34  36
ATOM     35  O   UNL     1     100.711 124.483 148.627  0.00  0.00    +0.000 OA
ATOM     36  C   UNL     1     101.290 124.168 148.131  0.00  0.00    +0.000 C 
ATOM     37  C   UNL     1     101.617 123.762 148.771  0.00  0.00    +0.000 C 
ATOM     38  C   UNL     1     100.964 124.574 147.491  0.00  0.00    +0.000 C 
ENDBRANCH  34  36
ENDBRANCH  33  34
ENDBRANCH   6  33
TORSDOF 7
ENDMDL
MODEL 4
REMARK VINA RESULT:      -9.2      2.002      3.192
REMARK  Name = 44259069
REMARK  7 active torsions:
REMARK  status: ('A' for Active; 'I' for Inactive)
REMARK    1  A    between atoms: O_2  and  C_16
REMARK    2  A    between atoms: O_2  and  C_18
REMARK    3  A    between atoms: O_11  and  C_37
REMARK    4  A    between atoms: C_19  and  C_20
REMARK    5  A    between atoms: C_19  and  C_21
REMARK    6  A    between atoms: C_21  and  C_22
REMARK    7  A    between atoms: C_25  and  C_31
REMARK                            x       y       z     vdW  Elec       q    Type
REMARK                         _______ _______ _______ _____ _____    ______ ____
ROOT
ATOM      1  O   UNL     1     111.883 126.356 137.778  0.00  0.00    +0.000 OA
ATOM      2  O   UNL     1     110.912 128.506 137.031  0.00  0.00    +0.000 OA
ATOM      3  O   UNL     1     110.727 125.009 135.470  0.00  0.00    +0.000 OA
ATOM      4  O   UNL     1     110.325 127.872 135.876  0.00  0.00    +0.000 OA
ATOM      5  C   UNL     1     111.683 127.757 137.973  0.00  0.00    +0.000 A 
ATOM      6  C   UNL     1     111.314 125.668 136.633  0.00  0.00    +0.000 A 
ATOM      7  C   UNL     1     111.436 126.388 137.086  0.00  0.00    +0.000 A 
ATOM      8  C   UNL     1     111.112 127.105 136.837  0.00  0.00    +0.000 A 
ATOM      9  C   UNL     1     112.007 127.041 138.222  0.00  0.00    +0.000 A 
ATOM     10  C   UNL     1     111.236 127.790 137.280  0.00  0.00    +0.000 A 
ATOM     11  C   UNL     1     110.849 125.695 135.911  0.00  0.00    +0.000 A 
ATOM     12  C   UNL     1     110.645 127.151 136.118  0.00  0.00    +0.000 A 
ATOM     13  C   UNL     1     110.512 126.441 135.651  0.00  0.00    +0.000 A 
ENDROOT
BRANCH   9  14
ATOM     14  C   UNL     1     112.454 127.008 138.914  0.00  0.00    +0.000 A 
ATOM     15  C   UNL     1     112.079 127.025 139.649  0.00  0.00    +0.000 A 
ATOM     16  C   UNL     1     113.276 126.959 138.873  0.00  0.00    +0.000 A 
ATOM     17  C   UNL     1     112.525 126.992 140.342  0.00  0.00    +0.000 A 
ATOM     18  C   UNL     1     113.724 126.926 139.565  0.00  0.00    +0.000 A 
ATOM     19  C   UNL     1     113.348 126.943 140.300  0.00  0.00    +0.000 A 
BRANCH  19  20
ATOM     20  O   UNL     1     113.794 126.910 140.993  0.00  0.00    +0.000 OA
ATOM     21  C   UNL     1     114.573 127.184 140.995  0.00  0.00    +0.000 C 
ENDBRANCH  19  20
ENDBRANCH   9  14
BRANCH   5  22
ATOM     22  O   UNL     1     111.807 128.442 138.416  0.00  0.00    +0.000 OA
BRANCH  22  31
ATOM     23  O   UNL     1     112.763 128.986 137.504  0.00  0.00    +0.000 OA
ATOM     24  O   UNL     1     112.103 131.274 138.176  0.00  0.00    +0.000 OA
ATOM     25  O   UNL     1     113.279 131.055 137.040  0.00  0.00    +0.000 OA
ATOM     26  O   UNL     1     111.367 129.967 138.864  0.00  0.00    +0.000 OA
ATOM     27  C   UNL     1     112.323 130.511 137.952  0.00  0.00    +0.000 C 
ATOM     28  C   UNL     1     112.910 130.402 137.384  0.00  0.00    +0.000 C 
ATOM     29  C   UNL     1     111.955 129.859 138.296  0.00  0.00    +0.000 C 
ATOM     30  C   UNL     1     113.130 129.639 137.160  0.00  0.00    +0.000 C 
ATOM     31  C   UNL     1     112.175 129.096 138.072  0.00  0.00    +0.000 C 
ATOM     32  C   UNL     1     113.719 129.530 136.591  0.00  0.00    +0.000 C 
ENDBRANCH  22  31
ENDBRANCH   5  22
BRANCH   6  33
ATOM     33  C   UNL     1     111.642 124.956 136.890  0.00  0.00    +0.000 C 
BRANCH  33  34
ATOM     34  C   UNL     1     112.177 124.550 136.410  0.00  0.00    +0.000 C 
BRANCH  34  36
ATOM     35  O   UNL     1     113.083 123.323 137.038  0.00  0.00    +0.000 OA
ATOM     36  C   UNL     1     112.630 123.937 136.723  0.00  0.00    +0.000 C 
ATOM     37  C   UNL     1     111.950 123.597 137.044  0.00  0.00    +0.000 C 
ATOM     38  C   UNL     1     113.310 124.277 136.403  0.00  0.00    +0.000 C 
ENDBRANCH  34  36
ENDBRANCH  33  34
ENDBRANCH   6  33
TORSDOF 7
ENDMDL
MODEL 5
REMARK VINA RESULT:      -9.1      1.618      1.995
REMARK  Name = 44259069
REMARK  7 active torsions:
REMARK  status: ('A' for Active; 'I' for Inactive)
REMARK    1  A    between atoms: O_2  and  C_16
REMARK    2  A    between atoms: O_2  and  C_18
REMARK    3  A    between atoms: O_11  and  C_37
REMARK    4  A    between atoms: C_19  and  C_20
REMARK    5  A    between atoms: C_19  and  C_21
REMARK    6  A    between atoms: C_21  and  C_22
REMARK    7  A    between atoms: C_25  and  C_31
REMARK                            x       y       z     vdW  Elec       q    Type
REMARK                         _______ _______ _______ _____ _____    ______ ____
ROOT
ATOM      1  O   UNL     1     112.707 127.400 136.375  0.00  0.00    +0.000 OA
ATOM      2  O   UNL     1     110.609 128.532 137.039  0.00  0.00    +0.000 OA
ATOM      3  O   UNL     1     111.721 124.888 137.473  0.00  0.00    +0.000 OA
ATOM      4  O   UNL     1     110.088 127.306 137.593  0.00  0.00    +0.000 OA
ATOM      5  C   UNL     1     111.904 128.579 136.437  0.00  0.00    +0.000 A 
ATOM      6  C   UNL     1     112.231 126.139 136.918  0.00  0.00    +0.000 A 
ATOM      7  C   UNL     1     112.112 126.974 136.756  0.00  0.00    +0.000 A 
ATOM      8  C   UNL     1     111.412 127.352 136.978  0.00  0.00    +0.000 A 
ATOM      9  C   UNL     1     112.603 128.202 136.215  0.00  0.00    +0.000 A 
ATOM     10  C   UNL     1     111.308 128.155 136.818  0.00  0.00    +0.000 A 
ATOM     11  C   UNL     1     111.615 125.691 137.314  0.00  0.00    +0.000 A 
ATOM     12  C   UNL     1     110.785 126.921 137.375  0.00  0.00    +0.000 A 
ATOM     13  C   UNL     1     110.887 126.084 137.545  0.00  0.00    +0.000 A 
ENDROOT
BRANCH   9  14
ATOM     14  C   UNL     1     113.199 128.627 135.834  0.00  0.00    +0.000 A 
ATOM     15  C   UNL     1     113.108 128.845 135.044  0.00  0.00    +0.000 A 
ATOM     16  C   UNL     1     113.885 128.833 136.242  0.00  0.00    +0.000 A 
ATOM     17  C   UNL     1     113.703 129.269 134.661  0.00  0.00    +0.000 A 
ATOM     18  C   UNL     1     114.481 129.258 135.861  0.00  0.00    +0.000 A 
ATOM     19  C   UNL     1     114.390 129.476 135.071  0.00  0.00    +0.000 A 
BRANCH  19  20
ATOM     20  O   UNL     1     114.985 129.900 134.688  0.00  0.00    +0.000 OA
ATOM     21  C   UNL     1     115.182 130.659 134.948  0.00  0.00    +0.000 C 
ENDBRANCH  19  20
ENDBRANCH   9  14
BRANCH   5  22
ATOM     22  O   UNL     1     111.800 129.382 136.277  0.00  0.00    +0.000 OA
BRANCH  22  31
ATOM     23  O   UNL     1     112.034 129.788 137.627  0.00  0.00    +0.000 OA
ATOM     24  O   UNL     1     110.568 131.754 137.288  0.00  0.00    +0.000 OA
ATOM     25  O   UNL     1     111.290 131.505 138.751  0.00  0.00    +0.000 OA
ATOM     26  O   UNL     1     110.823 130.693 136.051  0.00  0.00    +0.000 OA
ATOM     27  C   UNL     1     111.057 131.099 137.401  0.00  0.00    +0.000 C 
ATOM     28  C   UNL     1     111.417 130.975 138.132  0.00  0.00    +0.000 C 
ATOM     29  C   UNL     1     111.184 130.569 136.783  0.00  0.00    +0.000 C 
ATOM     30  C   UNL     1     111.906 130.319 138.245  0.00  0.00    +0.000 C 
ATOM     31  C   UNL     1     111.673 129.913 136.896  0.00  0.00    +0.000 C 
ATOM     32  C   UNL     1     112.267 130.195 138.977  0.00  0.00    +0.000 C 
ENDBRANCH  22  31
ENDBRANCH   5  22
BRANCH   6  33
ATOM     33  C   UNL     1     112.934 125.770 136.693  0.00  0.00    +0.000 C 
BRANCH  33  34
ATOM     34  C   UNL     1     113.381 125.359 137.251  0.00  0.00    +0.000 C 
BRANCH  34  36
ATOM     35  O   UNL     1     114.922 124.890 136.892  0.00  0.00    +0.000 OA
ATOM     36  C   UNL     1     114.151 125.124 137.071  0.00  0.00    +0.000 C 
ATOM     37  C   UNL     1     114.417 125.449 137.782  0.00  0.00    +0.000 C 
ATOM     38  C   UNL     1     113.886 124.800 136.361  0.00  0.00    +0.000 C 
ENDBRANCH  34  36
ENDBRANCH  33  34
ENDBRANCH   6  33
TORSDOF 7
ENDMDL
MODEL 6
REMARK VINA RESULT:      -8.9      2.314      4.474
REMARK  Name = 44259069
REMARK  7 active torsions:
REMARK  status: ('A' for Active; 'I' for Inactive)
REMARK    1  A    between atoms: O_2  and  C_16
REMARK    2  A    between atoms: O_2  and  C_18
REMARK    3  A    between atoms: O_11  and  C_37
REMARK    4  A    between atoms: C_19  and  C_20
REMARK    5  A    between atoms: C_19  and  C_21
REMARK    6  A    between atoms: C_21  and  C_22
REMARK    7  A    between atoms: C_25  and  C_31
REMARK                            x       y       z     vdW  Elec       q    Type
REMARK                         _______ _______ _______ _____ _____    ______ ____
ROOT
ATOM      1  O   UNL     1     113.109 128.059 138.496  0.00  0.00    +0.000 OA
ATOM      2  O   UNL     1     111.787 125.974 138.664  0.00  0.00    +0.000 OA
ATOM      3  O   UNL     1     113.454 128.097 141.388  0.00  0.00    +0.000 OA
ATOM      4  O   UNL     1     111.938 125.960 140.099  0.00  0.00    +0.000 OA
ATOM      5  C   UNL     1     112.367 127.011 137.870  0.00  0.00    +0.000 A 
ATOM      6  C   UNL     1     113.291 128.094 139.937  0.00  0.00    +0.000 A 
ATOM      7  C   UNL     1     112.971 127.717 139.234  0.00  0.00    +0.000 A 
ATOM      8  C   UNL     1     112.530 127.021 139.290  0.00  0.00    +0.000 A 
ATOM      9  C   UNL     1     112.807 127.706 137.814  0.00  0.00    +0.000 A 
ATOM     10  C   UNL     1     112.228 126.669 138.608  0.00  0.00    +0.000 A 
ATOM     11  C   UNL     1     113.150 127.742 140.708  0.00  0.00    +0.000 A 
ATOM     12  C   UNL     1     112.379 126.656 140.052  0.00  0.00    +0.000 A 
ATOM     13  C   UNL     1     112.691 127.018 140.766  0.00  0.00    +0.000 A 
ENDROOT
BRANCH   9  14
ATOM     14  C   UNL     1     112.946 128.049 137.077  0.00  0.00    +0.000 A 
ATOM     15  C   UNL     1     112.345 128.469 136.698  0.00  0.00    +0.000 A 
ATOM     16  C   UNL     1     113.684 127.972 136.718  0.00  0.00    +0.000 A 
ATOM     17  C   UNL     1     112.483 128.813 135.961  0.00  0.00    +0.000 A 
ATOM     18  C   UNL     1     113.823 128.315 135.980  0.00  0.00    +0.000 A 
ATOM     19  C   UNL     1     113.222 128.735 135.602  0.00  0.00    +0.000 A 
BRANCH  19  20
ATOM     20  O   UNL     1     113.360 129.078 134.864  0.00  0.00    +0.000 OA
ATOM     21  C   UNL     1     114.064 129.486 134.724  0.00  0.00    +0.000 C 
ENDBRANCH  19  20
ENDBRANCH   9  14
BRANCH   5  22
ATOM     22  O   UNL     1     112.064 126.659 137.189  0.00  0.00    +0.000 OA
BRANCH  22  31
ATOM     23  O   UNL     1     113.035 125.610 137.167  0.00  0.00    +0.000 OA
ATOM     24  O   UNL     1     111.392 124.112 136.079  0.00  0.00    +0.000 OA
ATOM     25  O   UNL     1     112.910 123.563 136.419  0.00  0.00    +0.000 OA
ATOM     26  O   UNL     1     110.969 125.660 136.464  0.00  0.00    +0.000 OA
ATOM     27  C   UNL     1     111.939 124.611 136.442  0.00  0.00    +0.000 C 
ATOM     28  C   UNL     1     112.698 124.337 136.612  0.00  0.00    +0.000 C 
ATOM     29  C   UNL     1     111.728 125.385 136.634  0.00  0.00    +0.000 C 
ATOM     30  C   UNL     1     113.245 124.836 136.974  0.00  0.00    +0.000 C 
ATOM     31  C   UNL     1     112.276 125.884 136.996  0.00  0.00    +0.000 C 
ATOM     32  C   UNL     1     114.005 124.561 137.144  0.00  0.00    +0.000 C 
ENDBRANCH  22  31
ENDBRANCH   5  22
BRANCH   6  33
ATOM     33  C   UNL     1     113.731 128.789 139.871  0.00  0.00    +0.000 C 
BRANCH  33  34
ATOM     34  C   UNL     1     113.491 129.468 140.273  0.00  0.00    +0.000 C 
BRANCH  34  36
ATOM     35  O   UNL     1     114.167 130.928 139.904  0.00  0.00    +0.000 OA
ATOM     36  C   UNL     1     113.829 130.198 140.089  0.00  0.00    +0.000 C 
ATOM     37  C   UNL     1     113.081 130.501 139.914  0.00  0.00    +0.000 C 
ATOM     38  C   UNL     1     114.576 129.895 140.262  0.00  0.00    +0.000 C 
ENDBRANCH  34  36
ENDBRANCH  33  34
ENDBRANCH   6  33
TORSDOF 7
ENDMDL
MODEL 7
REMARK VINA RESULT:      -8.8      1.867      3.197
REMARK  Name = 44259069
REMARK  7 active torsions:
REMARK  status: ('A' for Active; 'I' for Inactive)
REMARK    1  A    between atoms: O_2  and  C_16
REMARK    2  A    between atoms: O_2  and  C_18
REMARK    3  A    between atoms: O_11  and  C_37
REMARK    4  A    between atoms: C_19  and  C_20
REMARK    5  A    between atoms: C_19  and  C_21
REMARK    6  A    between atoms: C_21  and  C_22
REMARK    7  A    between atoms: C_25  and  C_31
REMARK                            x       y       z     vdW  Elec       q    Type
REMARK                         _______ _______ _______ _____ _____    ______ ____
ROOT
ATOM      1  O   UNL     1     112.411 126.835 137.670  0.00  0.00    +0.000 OA
ATOM      2  O   UNL     1     111.609 128.968 136.706  0.00  0.00    +0.000 OA
ATOM      3  O   UNL     1     114.741 126.899 135.924  0.00  0.00    +0.000 OA
ATOM      4  O   UNL     1     112.751 129.033 135.826  0.00  0.00    +0.000 OA
ATOM      5  C   UNL     1     111.440 127.881 137.618  0.00  0.00    +0.000 A 
ATOM      6  C   UNL     1     113.579 126.850 136.807  0.00  0.00    +0.000 A 
ATOM      7  C   UNL     1     112.848 127.210 137.079  0.00  0.00    +0.000 A 
ATOM      8  C   UNL     1     112.580 127.922 136.758  0.00  0.00    +0.000 A 
ATOM      9  C   UNL     1     111.707 127.171 137.940  0.00  0.00    +0.000 A 
ATOM     10  C   UNL     1     111.876 128.257 137.027  0.00  0.00    +0.000 A 
ATOM     11  C   UNL     1     114.037 127.237 136.191  0.00  0.00    +0.000 A 
ATOM     12  C   UNL     1     113.025 128.322 136.142  0.00  0.00    +0.000 A 
ATOM     13  C   UNL     1     113.759 127.977 135.856  0.00  0.00    +0.000 A 
ENDROOT
BRANCH   9  14
ATOM     14  C   UNL     1     111.272 126.795 138.531  0.00  0.00    +0.000 A 
ATOM     15  C   UNL     1     111.292 127.082 139.304  0.00  0.00    +0.000 A 
ATOM     16  C   UNL     1     110.816 126.132 138.350  0.00  0.00    +0.000 A 
ATOM     17  C   UNL     1     110.857 126.707 139.896  0.00  0.00    +0.000 A 
ATOM     18  C   UNL     1     110.380 125.756 138.941  0.00  0.00    +0.000 A 
ATOM     19  C   UNL     1     110.400 126.044 139.714  0.00  0.00    +0.000 A 
BRANCH  19  20
ATOM     20  O   UNL     1     109.965 125.669 140.306  0.00  0.00    +0.000 OA
ATOM     21  C   UNL     1     109.175 125.873 140.428  0.00  0.00    +0.000 C 
ENDBRANCH  19  20
ENDBRANCH   9  14
BRANCH   5  22
ATOM     22  O   UNL     1     110.737 128.217 137.888  0.00  0.00    +0.000 OA
BRANCH  22  31
ATOM     23  O   UNL     1     109.979 127.836 136.738  0.00  0.00    +0.000 OA
ATOM     24  O   UNL     1     108.543 129.831 137.022  0.00  0.00    +0.000 OA
ATOM     25  O   UNL     1     108.264 128.785 135.777  0.00  0.00    +0.000 OA
ATOM     26  O   UNL     1     109.779 129.547 138.078  0.00  0.00    +0.000 OA
ATOM     27  C   UNL     1     109.022 129.166 136.928  0.00  0.00    +0.000 C 
ATOM     28  C   UNL     1     108.882 128.644 136.305  0.00  0.00    +0.000 C 
ATOM     29  C   UNL     1     109.639 129.025 137.455  0.00  0.00    +0.000 C 
ATOM     30  C   UNL     1     109.361 127.978 136.211  0.00  0.00    +0.000 C 
ATOM     31  C   UNL     1     110.118 128.359 137.360  0.00  0.00    +0.000 C 
ATOM     32  C   UNL     1     109.222 127.455 135.588  0.00  0.00    +0.000 C 
ENDBRANCH  22  31
ENDBRANCH   5  22
BRANCH   6  33
ATOM     33  C   UNL     1     113.839 126.139 137.134  0.00  0.00    +0.000 C 
BRANCH  33  34
ATOM     34  C   UNL     1     113.957 125.481 136.650  0.00  0.00    +0.000 C 
BRANCH  34  36
ATOM     35  O   UNL     1     114.158 123.988 137.322  0.00  0.00    +0.000 OA
ATOM     36  C   UNL     1     114.058 124.735 136.986  0.00  0.00    +0.000 C 
ATOM     37  C   UNL     1     113.497 124.424 136.466  0.00  0.00    +0.000 C 
ATOM     38  C   UNL     1     114.618 125.045 137.507  0.00  0.00    +0.000 C 
ENDBRANCH  34  36
ENDBRANCH  33  34
ENDBRANCH   6  33
TORSDOF 7
ENDMDL
MODEL 8
REMARK VINA RESULT:      -8.8      2.361      4.760
REMARK  Name = 44259069
REMARK  7 active torsions:
REMARK  status: ('A' for Active; 'I' for Inactive)
REMARK    1  A    between atoms: O_2  and  C_16
REMARK    2  A    between atoms: O_2  and  C_18
REMARK    3  A    between atoms: O_11  and  C_37
REMARK    4  A    between atoms: C_19  and  C_20
REMARK    5  A    between atoms: C_19  and  C_21
REMARK    6  A    between atoms: C_21  and  C_22
REMARK    7  A    between atoms: C_25  and  C_31
REMARK                            x       y       z     vdW  Elec       q    Type
REMARK                         _______ _______ _______ _____ _____    ______ ____
ROOT
ATOM      1  O   UNL     1     113.078 128.212 137.196  0.00  0.00    +0.000 OA
ATOM      2  O   UNL     1     111.298 128.491 138.891  0.00  0.00    +0.000 OA
ATOM      3  O   UNL     1     113.457 131.098 137.091  0.00  0.00    +0.000 OA
ATOM      4  O   UNL     1     111.458 129.925 138.866  0.00  0.00    +0.000 OA
ATOM      5  C   UNL     1     112.099 127.643 138.066  0.00  0.00    +0.000 A 
ATOM      6  C   UNL     1     113.281 129.649 137.130  0.00  0.00    +0.000 A 
ATOM      7  C   UNL     1     112.871 128.967 137.455  0.00  0.00    +0.000 A 
ATOM      8  C   UNL     1     112.277 129.060 138.021  0.00  0.00    +0.000 A 
ATOM      9  C   UNL     1     112.692 127.550 137.501  0.00  0.00    +0.000 A 
ATOM     10  C   UNL     1     111.891 128.398 138.326  0.00  0.00    +0.000 A 
ATOM     11  C   UNL     1     113.069 130.438 137.398  0.00  0.00    +0.000 A 
ATOM     12  C   UNL     1     112.052 129.841 138.300  0.00  0.00    +0.000 A 
ATOM     13  C   UNL     1     112.451 130.535 137.986  0.00  0.00    +0.000 A 
ENDROOT
BRANCH   9  14
ATOM     14  C   UNL     1     112.900 126.796 137.240  0.00  0.00    +0.000 A 
ATOM     15  C   UNL     1     112.405 126.388 136.720  0.00  0.00    +0.000 A 
ATOM     16  C   UNL     1     113.602 126.448 137.498  0.00  0.00    +0.000 A 
ATOM     17  C   UNL     1     112.612 125.634 136.459  0.00  0.00    +0.000 A 
ATOM     18  C   UNL     1     113.809 125.693 137.237  0.00  0.00    +0.000 A 
ATOM     19  C   UNL     1     113.315 125.286 136.718  0.00  0.00    +0.000 A 
BRANCH  19  20
ATOM     20  O   UNL     1     113.521 124.532 136.456  0.00  0.00    +0.000 OA
ATOM     21  C   UNL     1     113.101 123.873 136.724  0.00  0.00    +0.000 C 
ENDBRANCH  19  20
ENDBRANCH   9  14
BRANCH   5  22
ATOM     22  O   UNL     1     111.713 126.981 138.371  0.00  0.00    +0.000 OA
BRANCH  22  31
ATOM     23  O   UNL     1     112.404 127.024 139.621  0.00  0.00    +0.000 OA
ATOM     24  O   UNL     1     110.455 125.980 140.734  0.00  0.00    +0.000 OA
ATOM     25  O   UNL     1     111.795 126.371 141.613  0.00  0.00    +0.000 OA
ATOM     26  O   UNL     1     110.414 126.285 139.113  0.00  0.00    +0.000 OA
ATOM     27  C   UNL     1     111.104 126.328 140.363  0.00  0.00    +0.000 C 
ATOM     28  C   UNL     1     111.774 126.523 140.802  0.00  0.00    +0.000 C 
ATOM     29  C   UNL     1     111.084 126.481 139.553  0.00  0.00    +0.000 C 
ATOM     30  C   UNL     1     112.424 126.871 140.431  0.00  0.00    +0.000 C 
ATOM     31  C   UNL     1     111.733 126.828 139.182  0.00  0.00    +0.000 C 
ATOM     32  C   UNL     1     113.094 127.067 140.871  0.00  0.00    +0.000 C 
ENDBRANCH  22  31
ENDBRANCH   5  22
BRANCH   6  33
ATOM     33  C   UNL     1     113.873 129.547 136.565  0.00  0.00    +0.000 C 
BRANCH  33  34
ATOM     34  C   UNL     1     113.791 129.882 135.816  0.00  0.00    +0.000 C 
BRANCH  34  36
ATOM     35  O   UNL     1     114.845 129.479 134.612  0.00  0.00    +0.000 OA
ATOM     36  C   UNL     1     114.317 129.681 135.214  0.00  0.00    +0.000 C 
ATOM     37  C   UNL     1     114.952 129.888 135.699  0.00  0.00    +0.000 C 
ATOM     38  C   UNL     1     113.683 129.473 134.729  0.00  0.00    +0.000 C 
ENDBRANCH  34  36
ENDBRANCH  33  34
ENDBRANCH   6  33
TORSDOF 7
ENDMDL
