MODEL 1
REMARK VINA RESULT:      -8.0      0.000      0.000
REMARK  Name = 466268
REMARK  2 active torsions:
REMARK  status: ('A' for Active; 'I' for Inactive)
REMARK    1  A    between atoms: O_2  and  C_12
REMARK    2  A    between atoms: C_6  and  C_8
REMARK                            x       y       z     vdW  Elec       q    Type
REMARK                         _______ _______ _______ _____ _____    ______ ____
ROOT
ATOM      1  O   UNL     1     112.088 125.579 136.059  0.00  0.00    +0.000 OA
ATOM      2  O   UNL     1     111.802 123.377 137.154  0.00  0.00    +0.000 OA
ATOM      3  C   UNL     1     112.646 124.454 136.743  0.00  0.00    +0.000 A 
ATOM      4  C   UNL     1     112.741 125.188 136.378  0.00  0.00    +0.000 A 
ATOM      5  C   UNL     1     111.339 125.235 136.106  0.00  0.00    +0.000 A 
ATOM      6  C   UNL     1     111.898 124.111 136.789  0.00  0.00    +0.000 A 
ATOM      7  C   UNL     1     111.244 124.501 136.471  0.00  0.00    +0.000 A 
ATOM      8  C   UNL     1     113.516 125.556 136.323  0.00  0.00    +0.000 A 
ATOM      9  C   UNL     1     113.319 124.038 137.078  0.00  0.00    +0.000 A 
ATOM     10  C   UNL     1     114.200 125.154 136.653  0.00  0.00    +0.000 A 
ATOM     11  C   UNL     1     114.101 124.390 137.033  0.00  0.00    +0.000 A 
ENDROOT
BRANCH   5  12
ATOM     12  C   UNL     1     110.686 125.625 135.787  0.00  0.00    +0.000 A 
ATOM     13  C   UNL     1     110.500 125.536 134.988  0.00  0.00    +0.000 A 
ATOM     14  C   UNL     1     110.219 126.107 136.268  0.00  0.00    +0.000 A 
ATOM     15  C   UNL     1     109.847 125.927 134.671  0.00  0.00    +0.000 A 
ATOM     16  C   UNL     1     109.566 126.497 135.950  0.00  0.00    +0.000 A 
ATOM     17  C   UNL     1     109.380 126.408 135.151  0.00  0.00    +0.000 A 
ENDBRANCH   5  12
BRANCH  10  18
ATOM     18  O   UNL     1     114.948 125.501 136.605  0.00  0.00    +0.000 OA
ATOM     19  C   UNL     1     115.375 125.462 135.900  0.00  0.00    +0.000 C 
ENDBRANCH  10  18
TORSDOF 2
ENDMDL
MODEL 2
REMARK VINA RESULT:      -8.0     12.599     13.806
REMARK  Name = 466268
REMARK  2 active torsions:
REMARK  status: ('A' for Active; 'I' for Inactive)
REMARK    1  A    between atoms: O_2  and  C_12
REMARK    2  A    between atoms: C_6  and  C_8
REMARK                            x       y       z     vdW  Elec       q    Type
REMARK                         _______ _______ _______ _____ _____    ______ ____
ROOT
ATOM      1  O   UNL     1     105.531 124.351 147.301  0.00  0.00    +0.000 OA
ATOM      2  O   UNL     1     103.901 125.581 148.699  0.00  0.00    +0.000 OA
ATOM      3  C   UNL     1     104.188 124.759 147.567  0.00  0.00    +0.000 A 
ATOM      4  C   UNL     1     104.731 124.349 147.101  0.00  0.00    +0.000 A 
ATOM      5  C   UNL     1     105.788 124.763 147.969  0.00  0.00    +0.000 A 
ATOM      6  C   UNL     1     104.444 125.171 148.233  0.00  0.00    +0.000 A 
ATOM      7  C   UNL     1     105.244 125.173 148.435  0.00  0.00    +0.000 A 
ATOM      8  C   UNL     1     104.476 123.916 146.403  0.00  0.00    +0.000 A 
ATOM      9  C   UNL     1     103.351 124.765 147.367  0.00  0.00    +0.000 A 
ATOM     10  C   UNL     1     103.644 123.910 146.189  0.00  0.00    +0.000 A 
ATOM     11  C   UNL     1     103.078 124.337 146.674  0.00  0.00    +0.000 A 
ENDROOT
BRANCH   5  12
ATOM     12  C   UNL     1     106.588 124.765 148.170  0.00  0.00    +0.000 A 
ATOM     13  C   UNL     1     107.134 125.152 147.688  0.00  0.00    +0.000 A 
ATOM     14  C   UNL     1     106.842 124.378 148.853  0.00  0.00    +0.000 A 
ATOM     15  C   UNL     1     107.934 125.153 147.889  0.00  0.00    +0.000 A 
ATOM     16  C   UNL     1     107.642 124.379 149.054  0.00  0.00    +0.000 A 
ATOM     17  C   UNL     1     108.188 124.767 148.572  0.00  0.00    +0.000 A 
ENDBRANCH   5  12
BRANCH  10  18
ATOM     18  O   UNL     1     103.391 123.497 145.521  0.00  0.00    +0.000 OA
ATOM     19  C   UNL     1     102.941 122.811 145.607  0.00  0.00    +0.000 C 
ENDBRANCH  10  18
TORSDOF 2
ENDMDL
MODEL 3
REMARK VINA RESULT:      -7.9      8.109      9.111
REMARK  Name = 466268
REMARK  2 active torsions:
REMARK  status: ('A' for Active; 'I' for Inactive)
REMARK    1  A    between atoms: O_2  and  C_12
REMARK    2  A    between atoms: C_6  and  C_8
REMARK                            x       y       z     vdW  Elec       q    Type
REMARK                         _______ _______ _______ _____ _____    ______ ____
ROOT
ATOM      1  O   UNL     1     104.367 123.607 138.037  0.00  0.00    +0.000 OA
ATOM      2  O   UNL     1     101.900 123.566 138.230  0.00  0.00    +0.000 OA
ATOM      3  C   UNL     1     103.083 123.406 137.444  0.00  0.00    +0.000 A 
ATOM      4  C   UNL     1     103.905 123.420 137.380  0.00  0.00    +0.000 A 
ATOM      5  C   UNL     1     104.007 123.781 138.759  0.00  0.00    +0.000 A 
ATOM      6  C   UNL     1     102.723 123.580 138.165  0.00  0.00    +0.000 A 
ATOM      7  C   UNL     1     103.184 123.767 138.823  0.00  0.00    +0.000 A 
ATOM      8  C   UNL     1     104.292 123.240 136.634  0.00  0.00    +0.000 A 
ATOM      9  C   UNL     1     102.590 123.212 136.767  0.00  0.00    +0.000 A 
ATOM     10  C   UNL     1     103.816 123.044 135.946  0.00  0.00    +0.000 A 
ATOM     11  C   UNL     1     102.960 123.030 136.013  0.00  0.00    +0.000 A 
ENDROOT
BRANCH   5  12
ATOM     12  C   UNL     1     104.469 123.968 139.416  0.00  0.00    +0.000 A 
ATOM     13  C   UNL     1     104.654 123.386 139.971  0.00  0.00    +0.000 A 
ATOM     14  C   UNL     1     104.747 124.739 139.518  0.00  0.00    +0.000 A 
ATOM     15  C   UNL     1     105.117 123.575 140.627  0.00  0.00    +0.000 A 
ATOM     16  C   UNL     1     105.210 124.926 140.174  0.00  0.00    +0.000 A 
ATOM     17  C   UNL     1     105.394 124.344 140.729  0.00  0.00    +0.000 A 
ENDBRANCH   5  12
BRANCH  10  18
ATOM     18  O   UNL     1     104.180 122.871 135.226  0.00  0.00    +0.000 OA
ATOM     19  C   UNL     1     104.247 123.455 134.647  0.00  0.00    +0.000 C 
ENDBRANCH  10  18
TORSDOF 2
ENDMDL
MODEL 4
REMARK VINA RESULT:      -7.8      1.294      3.855
REMARK  Name = 466268
REMARK  2 active torsions:
REMARK  status: ('A' for Active; 'I' for Inactive)
REMARK    1  A    between atoms: O_2  and  C_12
REMARK    2  A    between atoms: C_6  and  C_8
REMARK                            x       y       z     vdW  Elec       q    Type
REMARK                         _______ _______ _______ _____ _____    ______ ____
ROOT
ATOM      1  O   UNL     1     112.351 126.225 136.147  0.00  0.00    +0.000 OA
ATOM      2  O   UNL     1     110.878 124.256 135.866  0.00  0.00    +0.000 OA
ATOM      3  C   UNL     1     111.154 125.638 135.632  0.00  0.00    +0.000 A 
ATOM      4  C   UNL     1     111.645 126.294 135.726  0.00  0.00    +0.000 A 
ATOM      5  C   UNL     1     112.566 125.498 136.475  0.00  0.00    +0.000 A 
ATOM      6  C   UNL     1     111.369 124.912 135.959  0.00  0.00    +0.000 A 
ATOM      7  C   UNL     1     112.075 124.842 136.381  0.00  0.00    +0.000 A 
ATOM      8  C   UNL     1     111.432 127.056 135.389  0.00  0.00    +0.000 A 
ATOM      9  C   UNL     1     110.416 125.697 135.195  0.00  0.00    +0.000 A 
ATOM     10  C   UNL     1     110.698 127.134 134.949  0.00  0.00    +0.000 A 
ATOM     11  C   UNL     1     110.187 126.451 134.852  0.00  0.00    +0.000 A 
ENDROOT
BRANCH   5  12
ATOM     12  C   UNL     1     113.272 125.430 136.896  0.00  0.00    +0.000 A 
ATOM     13  C   UNL     1     113.308 125.673 137.683  0.00  0.00    +0.000 A 
ATOM     14  C   UNL     1     113.942 125.117 136.529  0.00  0.00    +0.000 A 
ATOM     15  C   UNL     1     114.015 125.603 138.104  0.00  0.00    +0.000 A 
ATOM     16  C   UNL     1     114.648 125.048 136.950  0.00  0.00    +0.000 A 
ATOM     17  C   UNL     1     114.685 125.291 137.737  0.00  0.00    +0.000 A 
ENDBRANCH   5  12
BRANCH  10  18
ATOM     18  O   UNL     1     110.486 127.862 134.623  0.00  0.00    +0.000 OA
ATOM     19  C   UNL     1     109.855 128.288 134.941  0.00  0.00    +0.000 C 
ENDBRANCH  10  18
TORSDOF 2
ENDMDL
MODEL 5
REMARK VINA RESULT:      -7.6     10.175     11.997
REMARK  Name = 466268
REMARK  2 active torsions:
REMARK  status: ('A' for Active; 'I' for Inactive)
REMARK    1  A    between atoms: O_2  and  C_12
REMARK    2  A    between atoms: C_6  and  C_8
REMARK                            x       y       z     vdW  Elec       q    Type
REMARK                         _______ _______ _______ _____ _____    ______ ____
ROOT
ATOM      1  O   UNL     1     102.872 130.496 142.143  0.00  0.00    +0.000 OA
ATOM      2  O   UNL     1     102.707 129.373 139.944  0.00  0.00    +0.000 OA
ATOM      3  C   UNL     1     103.263 129.445 141.257  0.00  0.00    +0.000 A 
ATOM      4  C   UNL     1     103.318 129.819 141.990  0.00  0.00    +0.000 A 
ATOM      5  C   UNL     1     102.371 130.799 141.561  0.00  0.00    +0.000 A 
ATOM      6  C   UNL     1     102.762 129.747 140.677  0.00  0.00    +0.000 A 
ATOM      7  C   UNL     1     102.316 130.425 140.828  0.00  0.00    +0.000 A 
ATOM      8  C   UNL     1     103.836 129.513 142.604  0.00  0.00    +0.000 A 
ATOM      9  C   UNL     1     103.722 128.738 141.087  0.00  0.00    +0.000 A 
ATOM     10  C   UNL     1     104.303 128.808 142.452  0.00  0.00    +0.000 A 
ATOM     11  C   UNL     1     104.246 128.419 141.689  0.00  0.00    +0.000 A 
ENDROOT
BRANCH   5  12
ATOM     12  C   UNL     1     101.925 131.477 141.713  0.00  0.00    +0.000 A 
ATOM     13  C   UNL     1     102.246 132.223 141.570  0.00  0.00    +0.000 A 
ATOM     14  C   UNL     1     101.157 131.407 142.009  0.00  0.00    +0.000 A 
ATOM     15  C   UNL     1     101.799 132.900 141.723  0.00  0.00    +0.000 A 
ATOM     16  C   UNL     1     100.712 132.084 142.162  0.00  0.00    +0.000 A 
ATOM     17  C   UNL     1     101.033 132.830 142.018  0.00  0.00    +0.000 A 
ENDBRANCH   5  12
BRANCH  10  18
ATOM     18  O   UNL     1     104.803 128.508 143.036  0.00  0.00    +0.000 OA
ATOM     19  C   UNL     1     105.376 127.947 142.839  0.00  0.00    +0.000 C 
ENDBRANCH  10  18
TORSDOF 2
ENDMDL
MODEL 6
REMARK VINA RESULT:      -7.6      1.504      4.097
REMARK  Name = 466268
REMARK  2 active torsions:
REMARK  status: ('A' for Active; 'I' for Inactive)
REMARK    1  A    between atoms: O_2  and  C_12
REMARK    2  A    between atoms: C_6  and  C_8
REMARK                            x       y       z     vdW  Elec       q    Type
REMARK                         _______ _______ _______ _____ _____    ______ ____
ROOT
ATOM      1  O   UNL     1     110.896 126.026 136.710  0.00  0.00    +0.000 OA
ATOM      2  O   UNL     1     109.672 125.543 134.614  0.00  0.00    +0.000 OA
ATOM      3  C   UNL     1     109.849 126.337 135.789  0.00  0.00    +0.000 A 
ATOM      4  C   UNL     1     110.257 126.497 136.487  0.00  0.00    +0.000 A 
ATOM      5  C   UNL     1     111.128 125.393 136.233  0.00  0.00    +0.000 A 
ATOM      6  C   UNL     1     110.080 125.704 135.313  0.00  0.00    +0.000 A 
ATOM      7  C   UNL     1     110.719 125.232 135.535  0.00  0.00    +0.000 A 
ATOM      8  C   UNL     1     110.026 127.154 136.992  0.00  0.00    +0.000 A 
ATOM      9  C   UNL     1     109.182 126.821 135.546  0.00  0.00    +0.000 A 
ATOM     10  C   UNL     1     109.361 127.649 136.766  0.00  0.00    +0.000 A 
ATOM     11  C   UNL     1     108.936 127.481 136.038  0.00  0.00    +0.000 A 
ENDROOT
BRANCH   5  12
ATOM     12  C   UNL     1     111.767 124.921 136.456  0.00  0.00    +0.000 A 
ATOM     13  C   UNL     1     111.637 124.212 136.856  0.00  0.00    +0.000 A 
ATOM     14  C   UNL     1     112.537 125.161 136.279  0.00  0.00    +0.000 A 
ATOM     15  C   UNL     1     112.277 123.741 137.078  0.00  0.00    +0.000 A 
ATOM     16  C   UNL     1     113.176 124.689 136.502  0.00  0.00    +0.000 A 
ATOM     17  C   UNL     1     113.046 123.979 136.901  0.00  0.00    +0.000 A 
ENDBRANCH   5  12
BRANCH  10  18
ATOM     18  O   UNL     1     109.133 128.281 137.245  0.00  0.00    +0.000 OA
ATOM     19  C   UNL     1     109.428 129.037 137.097  0.00  0.00    +0.000 C 
ENDBRANCH  10  18
TORSDOF 2
ENDMDL
MODEL 7
REMARK VINA RESULT:      -7.6     11.230     12.369
REMARK  Name = 466268
REMARK  2 active torsions:
REMARK  status: ('A' for Active; 'I' for Inactive)
REMARK    1  A    between atoms: O_2  and  C_12
REMARK    2  A    between atoms: C_6  and  C_8
REMARK                            x       y       z     vdW  Elec       q    Type
REMARK                         _______ _______ _______ _____ _____    ______ ____
ROOT
ATOM      1  O   UNL     1     106.571 124.944 146.784  0.00  0.00    +0.000 OA
ATOM      2  O   UNL     1     106.890 127.385 146.528  0.00  0.00    +0.000 OA
ATOM      3  C   UNL     1     106.458 126.132 145.997  0.00  0.00    +0.000 A 
ATOM      4  C   UNL     1     106.351 125.318 146.083  0.00  0.00    +0.000 A 
ATOM      5  C   UNL     1     106.897 125.385 147.401  0.00  0.00    +0.000 A 
ATOM      6  C   UNL     1     106.784 126.571 146.613  0.00  0.00    +0.000 A 
ATOM      7  C   UNL     1     107.004 126.199 147.316  0.00  0.00    +0.000 A 
ATOM      8  C   UNL     1     106.012 124.848 145.447  0.00  0.00    +0.000 A 
ATOM      9  C   UNL     1     106.232 126.532 145.270  0.00  0.00    +0.000 A 
ATOM     10  C   UNL     1     105.781 125.231 144.714  0.00  0.00    +0.000 A 
ATOM     11  C   UNL     1     105.892 126.078 144.625  0.00  0.00    +0.000 A 
ENDROOT
BRANCH   5  12
ATOM     12  C   UNL     1     107.117 125.011 148.103  0.00  0.00    +0.000 A 
ATOM     13  C   UNL     1     106.540 124.777 148.645  0.00  0.00    +0.000 A 
ATOM     14  C   UNL     1     107.915 124.872 148.264  0.00  0.00    +0.000 A 
ATOM     15  C   UNL     1     106.761 124.403 149.346  0.00  0.00    +0.000 A 
ATOM     16  C   UNL     1     108.135 124.498 148.965  0.00  0.00    +0.000 A 
ATOM     17  C   UNL     1     107.558 124.264 149.507  0.00  0.00    +0.000 A 
ENDBRANCH   5  12
BRANCH  10  18
ATOM     18  O   UNL     1     105.455 124.788 144.099  0.00  0.00    +0.000 OA
ATOM     19  C   UNL     1     105.824 124.772 143.361  0.00  0.00    +0.000 C 
ENDBRANCH  10  18
TORSDOF 2
ENDMDL
MODEL 8
REMARK VINA RESULT:      -7.5     12.113     12.927
REMARK  Name = 466268
REMARK  2 active torsions:
REMARK  status: ('A' for Active; 'I' for Inactive)
REMARK    1  A    between atoms: O_2  and  C_12
REMARK    2  A    between atoms: C_6  and  C_8
REMARK                            x       y       z     vdW  Elec       q    Type
REMARK                         _______ _______ _______ _____ _____    ______ ____
ROOT
ATOM      1  O   UNL     1     105.145 124.425 147.437  0.00  0.00    +0.000 OA
ATOM      2  O   UNL     1     106.477 125.299 145.543  0.00  0.00    +0.000 OA
ATOM      3  C   UNL     1     106.357 124.988 146.932  0.00  0.00    +0.000 A 
ATOM      4  C   UNL     1     105.913 124.696 147.563  0.00  0.00    +0.000 A 
ATOM      5  C   UNL     1     104.820 124.446 146.678  0.00  0.00    +0.000 A 
ATOM      6  C   UNL     1     106.033 125.008 146.175  0.00  0.00    +0.000 A 
ATOM      7  C   UNL     1     105.264 124.737 146.047  0.00  0.00    +0.000 A 
ATOM      8  C   UNL     1     106.240 124.670 148.358  0.00  0.00    +0.000 A 
ATOM      9  C   UNL     1     107.160 125.273 147.052  0.00  0.00    +0.000 A 
ATOM     10  C   UNL     1     107.040 124.950 148.496  0.00  0.00    +0.000 A 
ATOM     11  C   UNL     1     107.503 125.254 147.839  0.00  0.00    +0.000 A 
ENDROOT
BRANCH   5  12
ATOM     12  C   UNL     1     104.051 124.174 146.551  0.00  0.00    +0.000 A 
ATOM     13  C   UNL     1     103.924 123.470 146.141  0.00  0.00    +0.000 A 
ATOM     14  C   UNL     1     103.409 124.609 146.835  0.00  0.00    +0.000 A 
ATOM     15  C   UNL     1     103.154 123.200 146.015  0.00  0.00    +0.000 A 
ATOM     16  C   UNL     1     102.640 124.338 146.709  0.00  0.00    +0.000 A 
ATOM     17  C   UNL     1     102.513 123.633 146.299  0.00  0.00    +0.000 A 
ENDBRANCH   5  12
BRANCH  10  18
ATOM     18  O   UNL     1     107.362 124.929 149.256  0.00  0.00    +0.000 OA
ATOM     19  C   UNL     1     107.883 124.324 149.466  0.00  0.00    +0.000 C 
ENDBRANCH  10  18
TORSDOF 2
ENDMDL
MODEL 9
REMARK VINA RESULT:      -7.4      2.728      4.176
REMARK  Name = 466268
REMARK  2 active torsions:
REMARK  status: ('A' for Active; 'I' for Inactive)
REMARK    1  A    between atoms: O_2  and  C_12
REMARK    2  A    between atoms: C_6  and  C_8
REMARK                            x       y       z     vdW  Elec       q    Type
REMARK                         _______ _______ _______ _____ _____    ______ ____
ROOT
ATOM      1  O   UNL     1     113.968 127.151 136.224  0.00  0.00    +0.000 OA
ATOM      2  O   UNL     1     112.435 128.307 137.785  0.00  0.00    +0.000 OA
ATOM      3  C   UNL     1     113.335 128.349 136.677  0.00  0.00    +0.000 A 
ATOM      4  C   UNL     1     113.846 127.964 136.157  0.00  0.00    +0.000 A 
ATOM      5  C   UNL     1     113.578 126.723 136.813  0.00  0.00    +0.000 A 
ATOM      6  C   UNL     1     112.946 127.922 137.265  0.00  0.00    +0.000 A 
ATOM      7  C   UNL     1     113.067 127.108 137.333  0.00  0.00    +0.000 A 
ATOM      8  C   UNL     1     114.258 128.399 135.540  0.00  0.00    +0.000 A 
ATOM      9  C   UNL     1     113.201 129.196 136.617  0.00  0.00    +0.000 A 
ATOM     10  C   UNL     1     114.136 129.245 135.465  0.00  0.00    +0.000 A 
ATOM     11  C   UNL     1     113.603 129.647 136.007  0.00  0.00    +0.000 A 
ENDROOT
BRANCH   5  12
ATOM     12  C   UNL     1     113.700 125.910 136.880  0.00  0.00    +0.000 A 
ATOM     13  C   UNL     1     113.181 125.383 136.515  0.00  0.00    +0.000 A 
ATOM     14  C   UNL     1     114.343 125.624 137.312  0.00  0.00    +0.000 A 
ATOM     15  C   UNL     1     113.304 124.569 136.583  0.00  0.00    +0.000 A 
ATOM     16  C   UNL     1     114.465 124.811 137.379  0.00  0.00    +0.000 A 
ATOM     17  C   UNL     1     113.945 124.283 137.015  0.00  0.00    +0.000 A 
ENDBRANCH   5  12
BRANCH  10  18
ATOM     18  O   UNL     1     114.527 129.670 134.875  0.00  0.00    +0.000 OA
ATOM     19  C   UNL     1     115.046 130.278 135.081  0.00  0.00    +0.000 C 
ENDBRANCH  10  18
TORSDOF 2
ENDMDL
MODEL 10
REMARK VINA RESULT:      -7.3      1.452      4.202
REMARK  Name = 466268
REMARK  2 active torsions:
REMARK  status: ('A' for Active; 'I' for Inactive)
REMARK    1  A    between atoms: O_2  and  C_12
REMARK    2  A    between atoms: C_6  and  C_8
REMARK                            x       y       z     vdW  Elec       q    Type
REMARK                         _______ _______ _______ _____ _____    ______ ____
ROOT
ATOM      1  O   UNL     1     112.292 125.825 136.160  0.00  0.00    +0.000 OA
ATOM      2  O   UNL     1     112.359 128.292 135.978  0.00  0.00    +0.000 OA
ATOM      3  C   UNL     1     111.707 127.050 135.713  0.00  0.00    +0.000 A 
ATOM      4  C   UNL     1     111.684 126.227 135.773  0.00  0.00    +0.000 A 
ATOM      5  C   UNL     1     112.922 126.246 136.487  0.00  0.00    +0.000 A 
ATOM      6  C   UNL     1     112.337 127.470 136.039  0.00  0.00    +0.000 A 
ATOM      7  C   UNL     1     112.945 127.069 136.426  0.00  0.00    +0.000 A 
ATOM      8  C   UNL     1     111.033 125.778 135.437  0.00  0.00    +0.000 A 
ATOM      9  C   UNL     1     111.079 127.480 135.312  0.00  0.00    +0.000 A 
ATOM     10  C   UNL     1     110.397 126.191 135.033  0.00  0.00    +0.000 A 
ATOM     11  C   UNL     1     110.421 127.047 134.970  0.00  0.00    +0.000 A 
ENDROOT
BRANCH   5  12
ATOM     12  C   UNL     1     113.530 125.844 136.873  0.00  0.00    +0.000 A 
ATOM     13  C   UNL     1     114.106 125.447 136.436  0.00  0.00    +0.000 A 
ATOM     14  C   UNL     1     113.560 125.838 137.698  0.00  0.00    +0.000 A 
ATOM     15  C   UNL     1     114.714 125.045 136.825  0.00  0.00    +0.000 A 
ATOM     16  C   UNL     1     114.167 125.435 138.085  0.00  0.00    +0.000 A 
ATOM     17  C   UNL     1     114.744 125.039 137.648  0.00  0.00    +0.000 A 
ENDBRANCH   5  12
BRANCH  10  18
ATOM     18  O   UNL     1     109.768 125.767 134.708  0.00  0.00    +0.000 OA
ATOM     19  C   UNL     1     108.992 125.956 134.916  0.00  0.00    +0.000 C 
ENDBRANCH  10  18
TORSDOF 2
ENDMDL
