MODEL 1
REMARK VINA RESULT:     -10.5      0.000      0.000
REMARK  Name = 74978214
REMARK  7 active torsions:
REMARK  status: ('A' for Active; 'I' for Inactive)
REMARK    1  A    between atoms: O_3  and  C_17
REMARK    2  A    between atoms: O_3  and  C_31
REMARK    3  A    between atoms: O_4  and  C_21
REMARK    4  A    between atoms: O_4  and  C_29
REMARK    5  A    between atoms: O_7  and  C_26
REMARK    6  A    between atoms: O_7  and  C_30
REMARK    7  A    between atoms: C_34  and  C_39
REMARK                            x       y       z     vdW  Elec       q    Type
REMARK                         _______ _______ _______ _____ _____    ______ ____
ROOT
ATOM      1  O   UNL     1     113.440 126.250 138.766  0.00  0.00    +0.000 OA
ATOM      2  O   UNL     1     111.038 125.821 138.348  0.00  0.00    +0.000 OA
ATOM      3  O   UNL     1     110.684 126.397 139.622  0.00  0.00    +0.000 OA
ATOM      4  C   UNL     1     112.401 125.747 137.923  0.00  0.00    +0.000 A 
ATOM      5  C   UNL     1     112.559 127.069 140.649  0.00  0.00    +0.000 A 
ATOM      6  C   UNL     1     112.078 126.324 139.191  0.00  0.00    +0.000 A 
ATOM      7  C   UNL     1     111.839 125.964 138.488  0.00  0.00    +0.000 A 
ATOM      8  C   UNL     1     113.202 125.891 138.063  0.00  0.00    +0.000 A 
ATOM      9  C   UNL     1     112.878 126.467 139.330  0.00  0.00    +0.000 A 
ATOM     10  C   UNL     1     113.139 126.841 140.057  0.00  0.00    +0.000 A 
ATOM     11  C   UNL     1     111.724 126.919 140.504  0.00  0.00    +0.000 A 
ATOM     12  C   UNL     1     111.483 126.545 139.770  0.00  0.00    +0.000 A 
ENDROOT
BRANCH   8  15
ATOM     13  O   UNL     1     114.949 126.595 135.914  0.00  0.00    +0.000 OA
ATOM     14  O   UNL     1     115.448 125.026 135.805  0.00  0.00    +0.000 OA
ATOM     15  C   UNL     1     113.763 125.674 137.499  0.00  0.00    +0.000 A 
ATOM     16  C   UNL     1     114.076 126.243 136.988  0.00  0.00    +0.000 A 
ATOM     17  C   UNL     1     114.012 124.889 137.444  0.00  0.00    +0.000 A 
ATOM     18  C   UNL     1     114.637 126.026 136.424  0.00  0.00    +0.000 A 
ATOM     19  C   UNL     1     114.574 124.674 136.880  0.00  0.00    +0.000 A 
ATOM     20  C   UNL     1     114.886 125.241 136.370  0.00  0.00    +0.000 A 
ENDBRANCH   8  15
BRANCH   4  21
ATOM     21  O   UNL     1     112.162 125.387 137.220  0.00  0.00    +0.000 OA
BRANCH  21  29
ATOM     22  O   UNL     1     111.651 126.603 136.669  0.00  0.00    +0.000 OA
ATOM     23  O   UNL     1     110.073 125.306 135.272  0.00  0.00    +0.000 OA
ATOM     24  O   UNL     1     111.110 124.523 136.289  0.00  0.00    +0.000 OA
ATOM     25  C   UNL     1     110.607 126.562 135.695  0.00  0.00    +0.000 C 
ATOM     26  C   UNL     1     110.599 125.738 135.738  0.00  0.00    +0.000 C 
ATOM     27  C   UNL     1     111.118 125.346 136.247  0.00  0.00    +0.000 C 
ATOM     28  C   UNL     1     111.133 126.994 136.161  0.00  0.00    +0.000 C 
ATOM     29  C   UNL     1     111.644 125.779 136.712  0.00  0.00    +0.000 C 
ATOM     30  C   UNL     1     111.140 127.818 136.118  0.00  0.00    +0.000 C 
BRANCH  25  31
ATOM     31  O   UNL     1     110.088 126.954 135.187  0.00  0.00    +0.000 OA
BRANCH  31  33
ATOM     32  O   UNL     1     108.850 126.819 135.886  0.00  0.00    +0.000 OA
ATOM     33  C   UNL     1     109.395 127.289 135.482  0.00  0.00    +0.000 C 
ATOM     34  C   UNL     1     109.247 128.093 135.374  0.00  0.00    +0.000 C 
ENDBRANCH  31  33
ENDBRANCH  25  31
ENDBRANCH  21  29
ENDBRANCH   4  21
BRANCH   5  35
ATOM     35  O   UNL     1     112.800 127.428 141.351  0.00  0.00    +0.000 OA
BRANCH  35  44
ATOM     36  O   UNL     1     113.260 128.682 140.842  0.00  0.00    +0.000 OA
ATOM     37  O   UNL     1     112.089 129.858 142.677  0.00  0.00    +0.000 OA
ATOM     38  O   UNL     1     112.940 130.719 141.556  0.00  0.00    +0.000 OA
ATOM     39  O   UNL     1     112.019 128.212 142.575  0.00  0.00    +0.000 OA
ATOM     40  C   UNL     1     112.479 129.466 142.065  0.00  0.00    +0.000 C 
ATOM     41  C   UNL     1     112.905 129.897 141.505  0.00  0.00    +0.000 C 
ATOM     42  C   UNL     1     112.444 128.643 142.015  0.00  0.00    +0.000 C 
ATOM     43  C   UNL     1     113.295 129.504 140.894  0.00  0.00    +0.000 C 
ATOM     44  C   UNL     1     112.835 128.251 141.403  0.00  0.00    +0.000 C 
ATOM     45  C   UNL     1     113.721 129.935 140.333  0.00  0.00    +0.000 C 
ENDBRANCH  35  44
ENDBRANCH   5  35
TORSDOF 7
ENDMDL
MODEL 2
REMARK VINA RESULT:     -10.5      1.939      5.201
REMARK  Name = 74978214
REMARK  7 active torsions:
REMARK  status: ('A' for Active; 'I' for Inactive)
REMARK    1  A    between atoms: O_3  and  C_17
REMARK    2  A    between atoms: O_3  and  C_31
REMARK    3  A    between atoms: O_4  and  C_21
REMARK    4  A    between atoms: O_4  and  C_29
REMARK    5  A    between atoms: O_7  and  C_26
REMARK    6  A    between atoms: O_7  and  C_30
REMARK    7  A    between atoms: C_34  and  C_39
REMARK                            x       y       z     vdW  Elec       q    Type
REMARK                         _______ _______ _______ _____ _____    ______ ____
ROOT
ATOM      1  O   UNL     1     109.822 127.178 137.868  0.00  0.00    +0.000 OA
ATOM      2  O   UNL     1     110.406 125.377 136.272  0.00  0.00    +0.000 OA
ATOM      3  O   UNL     1     109.667 126.031 135.220  0.00  0.00    +0.000 OA
ATOM      4  C   UNL     1     110.483 125.943 137.582  0.00  0.00    +0.000 A 
ATOM      5  C   UNL     1     108.778 127.919 136.036  0.00  0.00    +0.000 A 
ATOM      6  C   UNL     1     109.744 126.612 136.558  0.00  0.00    +0.000 A 
ATOM      7  C   UNL     1     110.211 125.978 136.804  0.00  0.00    +0.000 A 
ATOM      8  C   UNL     1     110.289 126.544 138.114  0.00  0.00    +0.000 A 
ATOM      9  C   UNL     1     109.550 127.212 137.089  0.00  0.00    +0.000 A 
ATOM     10  C   UNL     1     109.065 127.878 136.846  0.00  0.00    +0.000 A 
ATOM     11  C   UNL     1     108.981 127.294 135.482  0.00  0.00    +0.000 A 
ATOM     12  C   UNL     1     109.467 126.636 135.745  0.00  0.00    +0.000 A 
ENDROOT
BRANCH   8  15
ATOM     13  O   UNL     1     110.078 125.497 140.765  0.00  0.00    +0.000 OA
ATOM     14  O   UNL     1     111.377 126.404 141.227  0.00  0.00    +0.000 OA
ATOM     15  C   UNL     1     110.561 126.509 138.892  0.00  0.00    +0.000 A 
ATOM     16  C   UNL     1     110.183 126.020 139.440  0.00  0.00    +0.000 A 
ATOM     17  C   UNL     1     111.211 126.963 139.123  0.00  0.00    +0.000 A 
ATOM     18  C   UNL     1     110.456 125.986 140.217  0.00  0.00    +0.000 A 
ATOM     19  C   UNL     1     111.482 126.927 139.901  0.00  0.00    +0.000 A 
ATOM     20  C   UNL     1     111.105 126.439 140.448  0.00  0.00    +0.000 A 
ENDBRANCH   8  15
BRANCH   4  21
ATOM     21  O   UNL     1     110.950 125.309 137.829  0.00  0.00    +0.000 OA
BRANCH  21  29
ATOM     22  O   UNL     1     112.114 125.772 137.141  0.00  0.00    +0.000 OA
ATOM     23  O   UNL     1     112.917 123.440 136.930  0.00  0.00    +0.000 OA
ATOM     24  O   UNL     1     111.485 123.755 137.688  0.00  0.00    +0.000 OA
ATOM     25  C   UNL     1     113.097 124.838 136.692  0.00  0.00    +0.000 C 
ATOM     26  C   UNL     1     112.649 124.218 137.001  0.00  0.00    +0.000 C 
ATOM     27  C   UNL     1     111.933 124.375 137.380  0.00  0.00    +0.000 C 
ATOM     28  C   UNL     1     112.829 125.615 136.763  0.00  0.00    +0.000 C 
ATOM     29  C   UNL     1     111.665 125.152 137.450  0.00  0.00    +0.000 C 
ATOM     30  C   UNL     1     113.278 126.235 136.454  0.00  0.00    +0.000 C 
BRANCH  25  31
ATOM     31  O   UNL     1     113.813 124.681 136.313  0.00  0.00    +0.000 OA
BRANCH  31  33
ATOM     32  O   UNL     1     114.656 124.525 137.457  0.00  0.00    +0.000 OA
ATOM     33  C   UNL     1     114.526 124.829 136.701  0.00  0.00    +0.000 C 
ATOM     34  C   UNL     1     115.109 125.280 136.332  0.00  0.00    +0.000 C 
ENDBRANCH  31  33
ENDBRANCH  25  31
ENDBRANCH  21  29
ENDBRANCH   4  21
BRANCH   5  35
ATOM     35  O   UNL     1     108.312 128.555 135.793  0.00  0.00    +0.000 OA
BRANCH  35  44
ATOM     36  O   UNL     1     109.388 129.309 135.231  0.00  0.00    +0.000 OA
ATOM     37  O   UNL     1     108.263 131.411 135.897  0.00  0.00    +0.000 OA
ATOM     38  O   UNL     1     109.714 131.464 135.113  0.00  0.00    +0.000 OA
ATOM     39  O   UNL     1     107.562 129.956 136.237  0.00  0.00    +0.000 OA
ATOM     40  C   UNL     1     108.638 130.710 135.675  0.00  0.00    +0.000 C 
ATOM     41  C   UNL     1     109.363 130.737 135.283  0.00  0.00    +0.000 C 
ATOM     42  C   UNL     1     108.287 129.983 135.845  0.00  0.00    +0.000 C 
ATOM     43  C   UNL     1     109.738 130.037 135.061  0.00  0.00    +0.000 C 
ATOM     44  C   UNL     1     108.662 129.282 135.623  0.00  0.00    +0.000 C 
ATOM     45  C   UNL     1     110.463 130.064 134.669  0.00  0.00    +0.000 C 
ENDBRANCH  35  44
ENDBRANCH   5  35
TORSDOF 7
ENDMDL
MODEL 3
REMARK VINA RESULT:     -10.2      1.935      6.148
REMARK  Name = 74978214
REMARK  7 active torsions:
REMARK  status: ('A' for Active; 'I' for Inactive)
REMARK    1  A    between atoms: O_3  and  C_17
REMARK    2  A    between atoms: O_3  and  C_31
REMARK    3  A    between atoms: O_4  and  C_21
REMARK    4  A    between atoms: O_4  and  C_29
REMARK    5  A    between atoms: O_7  and  C_26
REMARK    6  A    between atoms: O_7  and  C_30
REMARK    7  A    between atoms: C_34  and  C_39
REMARK                            x       y       z     vdW  Elec       q    Type
REMARK                         _______ _______ _______ _____ _____    ______ ____
ROOT
ATOM      1  O   UNL     1     112.296 128.490 138.433  0.00  0.00    +0.000 OA
ATOM      2  O   UNL     1     113.671 128.596 140.490  0.00  0.00    +0.000 OA
ATOM      3  O   UNL     1     113.616 127.161 140.634  0.00  0.00    +0.000 OA
ATOM      4  C   UNL     1     113.019 129.254 139.402  0.00  0.00    +0.000 A 
ATOM      5  C   UNL     1     112.408 126.318 138.946  0.00  0.00    +0.000 A 
ATOM      6  C   UNL     1     112.948 127.832 139.521  0.00  0.00    +0.000 A 
ATOM      7  C   UNL     1     113.212 128.561 139.804  0.00  0.00    +0.000 A 
ATOM      8  C   UNL     1     112.560 129.219 138.716  0.00  0.00    +0.000 A 
ATOM      9  C   UNL     1     112.491 127.797 138.837  0.00  0.00    +0.000 A 
ATOM     10  C   UNL     1     112.209 127.045 138.531  0.00  0.00    +0.000 A 
ATOM     11  C   UNL     1     112.886 126.355 139.661  0.00  0.00    +0.000 A 
ATOM     12  C   UNL     1     113.157 127.117 139.950  0.00  0.00    +0.000 A 
ENDROOT
BRANCH   8  15
ATOM     13  O   UNL     1     110.647 131.227 138.027  0.00  0.00    +0.000 OA
ATOM     14  O   UNL     1     111.783 131.994 137.109  0.00  0.00    +0.000 OA
ATOM     15  C   UNL     1     112.367 129.913 138.314  0.00  0.00    +0.000 A 
ATOM     16  C   UNL     1     111.604 130.223 138.372  0.00  0.00    +0.000 A 
ATOM     17  C   UNL     1     112.935 130.296 137.855  0.00  0.00    +0.000 A 
ATOM     18  C   UNL     1     111.410 130.917 137.970  0.00  0.00    +0.000 A 
ATOM     19  C   UNL     1     112.740 130.990 137.453  0.00  0.00    +0.000 A 
ATOM     20  C   UNL     1     111.978 131.300 137.511  0.00  0.00    +0.000 A 
ENDBRANCH   8  15
BRANCH   4  21
ATOM     21  O   UNL     1     113.283 129.983 139.685  0.00  0.00    +0.000 OA
BRANCH  21  29
ATOM     22  O   UNL     1     112.342 130.018 140.759  0.00  0.00    +0.000 OA
ATOM     23  O   UNL     1     113.904 131.408 142.083  0.00  0.00    +0.000 OA
ATOM     24  O   UNL     1     114.324 130.910 140.567  0.00  0.00    +0.000 OA
ATOM     25  C   UNL     1     112.652 130.730 141.958  0.00  0.00    +0.000 C 
ATOM     26  C   UNL     1     113.383 130.945 141.642  0.00  0.00    +0.000 C 
ATOM     27  C   UNL     1     113.593 130.695 140.883  0.00  0.00    +0.000 C 
ATOM     28  C   UNL     1     112.131 130.267 141.517  0.00  0.00    +0.000 C 
ATOM     29  C   UNL     1     113.073 130.232 140.442  0.00  0.00    +0.000 C 
ATOM     30  C   UNL     1     111.400 130.053 141.834  0.00  0.00    +0.000 C 
BRANCH  25  31
ATOM     31  O   UNL     1     112.442 130.979 142.716  0.00  0.00    +0.000 OA
BRANCH  31  33
ATOM     32  O   UNL     1     111.580 132.050 142.326  0.00  0.00    +0.000 OA
ATOM     33  C   UNL     1     112.153 131.743 142.834  0.00  0.00    +0.000 C 
ATOM     34  C   UNL     1     112.437 132.199 143.460  0.00  0.00    +0.000 C 
ENDBRANCH  31  33
ENDBRANCH  25  31
ENDBRANCH  21  29
ENDBRANCH   4  21
BRANCH   5  35
ATOM     35  O   UNL     1     112.143 125.591 138.661  0.00  0.00    +0.000 OA
BRANCH  35  44
ATOM     36  O   UNL     1     113.344 125.272 137.956  0.00  0.00    +0.000 OA
ATOM     37  O   UNL     1     112.019 124.097 136.228  0.00  0.00    +0.000 OA
ATOM     38  O   UNL     1     113.662 124.170 136.099  0.00  0.00    +0.000 OA
ATOM     39  O   UNL     1     111.258 124.807 137.509  0.00  0.00    +0.000 OA
ATOM     40  C   UNL     1     112.461 124.489 136.804  0.00  0.00    +0.000 C 
ATOM     41  C   UNL     1     113.282 124.525 136.739  0.00  0.00    +0.000 C 
ATOM     42  C   UNL     1     112.080 124.844 137.445  0.00  0.00    +0.000 C 
ATOM     43  C   UNL     1     113.723 124.917 137.316  0.00  0.00    +0.000 C 
ATOM     44  C   UNL     1     112.522 125.236 138.021  0.00  0.00    +0.000 C 
ATOM     45  C   UNL     1     114.545 124.953 137.251  0.00  0.00    +0.000 C 
ENDBRANCH  35  44
ENDBRANCH   5  35
TORSDOF 7
ENDMDL
MODEL 4
REMARK VINA RESULT:     -10.1      2.869      5.164
REMARK  Name = 74978214
REMARK  7 active torsions:
REMARK  status: ('A' for Active; 'I' for Inactive)
REMARK    1  A    between atoms: O_3  and  C_17
REMARK    2  A    between atoms: O_3  and  C_31
REMARK    3  A    between atoms: O_4  and  C_21
REMARK    4  A    between atoms: O_4  and  C_29
REMARK    5  A    between atoms: O_7  and  C_26
REMARK    6  A    between atoms: O_7  and  C_30
REMARK    7  A    between atoms: C_34  and  C_39
REMARK                            x       y       z     vdW  Elec       q    Type
REMARK                         _______ _______ _______ _____ _____    ______ ____
ROOT
ATOM      1  O   UNL     1     111.964 129.726 135.428  0.00  0.00    +0.000 OA
ATOM      2  O   UNL     1     111.426 127.470 136.296  0.00  0.00    +0.000 OA
ATOM      3  O   UNL     1     110.016 127.777 136.299  0.00  0.00    +0.000 OA
ATOM      4  C   UNL     1     112.390 128.433 135.865  0.00  0.00    +0.000 A 
ATOM      5  C   UNL     1     109.738 129.873 135.557  0.00  0.00    +0.000 A 
ATOM      6  C   UNL     1     111.000 128.763 135.859  0.00  0.00    +0.000 A 
ATOM      7  C   UNL     1     111.605 128.223 136.006  0.00  0.00    +0.000 A 
ATOM      8  C   UNL     1     112.569 129.185 135.576  0.00  0.00    +0.000 A 
ATOM      9  C   UNL     1     111.179 129.514 135.570  0.00  0.00    +0.000 A 
ATOM     10  C   UNL     1     110.558 130.086 135.412  0.00  0.00    +0.000 A 
ATOM     11  C   UNL     1     109.551 129.089 135.859  0.00  0.00    +0.000 A 
ATOM     12  C   UNL     1     110.186 128.531 136.010  0.00  0.00    +0.000 A 
ENDROOT
BRANCH   8  15
ATOM     13  O   UNL     1     114.929 130.601 136.349  0.00  0.00    +0.000 OA
ATOM     14  O   UNL     1     115.710 130.029 135.013  0.00  0.00    +0.000 OA
ATOM     15  C   UNL     1     113.354 129.396 135.435  0.00  0.00    +0.000 A 
ATOM     16  C   UNL     1     113.749 129.893 135.962  0.00  0.00    +0.000 A 
ATOM     17  C   UNL     1     113.745 129.110 134.767  0.00  0.00    +0.000 A 
ATOM     18  C   UNL     1     114.534 130.104 135.821  0.00  0.00    +0.000 A 
ATOM     19  C   UNL     1     114.530 129.321 134.627  0.00  0.00    +0.000 A 
ATOM     20  C   UNL     1     114.925 129.818 135.153  0.00  0.00    +0.000 A 
ENDBRANCH   8  15
BRANCH   4  21
ATOM     21  O   UNL     1     112.996 127.893 136.013  0.00  0.00    +0.000 OA
BRANCH  21  29
ATOM     22  O   UNL     1     112.940 128.041 137.433  0.00  0.00    +0.000 OA
ATOM     23  O   UNL     1     113.673 125.692 137.706  0.00  0.00    +0.000 OA
ATOM     24  O   UNL     1     113.484 126.327 136.195  0.00  0.00    +0.000 OA
ATOM     25  C   UNL     1     113.279 126.941 138.279  0.00  0.00    +0.000 C 
ATOM     26  C   UNL     1     113.429 126.475 137.615  0.00  0.00    +0.000 C 
ATOM     27  C   UNL     1     113.334 126.793 136.859  0.00  0.00    +0.000 C 
ATOM     28  C   UNL     1     113.034 127.724 138.188  0.00  0.00    +0.000 C 
ATOM     29  C   UNL     1     113.090 127.576 136.768  0.00  0.00    +0.000 C 
ATOM     30  C   UNL     1     112.884 128.188 138.853  0.00  0.00    +0.000 C 
BRANCH  25  31
ATOM     31  O   UNL     1     113.373 126.623 139.035  0.00  0.00    +0.000 OA
BRANCH  31  33
ATOM     32  O   UNL     1     112.165 125.875 139.190  0.00  0.00    +0.000 OA
ATOM     33  C   UNL     1     112.711 126.420 139.484  0.00  0.00    +0.000 C 
ATOM     34  C   UNL     1     112.594 126.763 140.224  0.00  0.00    +0.000 C 
ENDBRANCH  31  33
ENDBRANCH  25  31
ENDBRANCH  21  29
ENDBRANCH   4  21
BRANCH   5  35
ATOM     35  O   UNL     1     109.134 130.415 135.408  0.00  0.00    +0.000 OA
BRANCH  35  44
ATOM     36  O   UNL     1     109.299 131.067 136.670  0.00  0.00    +0.000 OA
ATOM     37  O   UNL     1     106.941 131.815 136.591  0.00  0.00    +0.000 OA
ATOM     38  O   UNL     1     107.891 132.217 137.879  0.00  0.00    +0.000 OA
ATOM     39  O   UNL     1     107.562 130.914 135.356  0.00  0.00    +0.000 OA
ATOM     40  C   UNL     1     107.727 131.566 136.617  0.00  0.00    +0.000 C 
ATOM     41  C   UNL     1     108.202 131.767 137.261  0.00  0.00    +0.000 C 
ATOM     42  C   UNL     1     108.037 131.115 135.999  0.00  0.00    +0.000 C 
ATOM     43  C   UNL     1     108.988 131.517 137.287  0.00  0.00    +0.000 C 
ATOM     44  C   UNL     1     108.824 130.866 136.026  0.00  0.00    +0.000 C 
ATOM     45  C   UNL     1     109.463 131.718 137.931  0.00  0.00    +0.000 C 
ENDBRANCH  35  44
ENDBRANCH   5  35
TORSDOF 7
ENDMDL
MODEL 5
REMARK VINA RESULT:     -10.1      2.870      4.837
REMARK  Name = 74978214
REMARK  7 active torsions:
REMARK  status: ('A' for Active; 'I' for Inactive)
REMARK    1  A    between atoms: O_3  and  C_17
REMARK    2  A    between atoms: O_3  and  C_31
REMARK    3  A    between atoms: O_4  and  C_21
REMARK    4  A    between atoms: O_4  and  C_29
REMARK    5  A    between atoms: O_7  and  C_26
REMARK    6  A    between atoms: O_7  and  C_30
REMARK    7  A    between atoms: C_34  and  C_39
REMARK                            x       y       z     vdW  Elec       q    Type
REMARK                         _______ _______ _______ _____ _____    ______ ____
ROOT
ATOM      1  O   UNL     1     113.409 128.725 137.302  0.00  0.00    +0.000 OA
ATOM      2  O   UNL     1     111.158 129.509 137.971  0.00  0.00    +0.000 OA
ATOM      3  O   UNL     1     110.895 128.264 138.650  0.00  0.00    +0.000 OA
ATOM      4  C   UNL     1     112.401 129.738 137.303  0.00  0.00    +0.000 A 
ATOM      5  C   UNL     1     112.688 126.938 138.433  0.00  0.00    +0.000 A 
ATOM      6  C   UNL     1     112.167 128.496 137.969  0.00  0.00    +0.000 A 
ATOM      7  C   UNL     1     111.909 129.247 137.747  0.00  0.00    +0.000 A 
ATOM      8  C   UNL     1     113.152 129.477 137.080  0.00  0.00    +0.000 A 
ATOM      9  C   UNL     1     112.916 128.235 137.746  0.00  0.00    +0.000 A 
ATOM     10  C   UNL     1     113.197 127.454 137.970  0.00  0.00    +0.000 A 
ATOM     11  C   UNL     1     111.906 127.210 138.665  0.00  0.00    +0.000 A 
ATOM     12  C   UNL     1     111.644 127.994 138.432  0.00  0.00    +0.000 A 
ENDROOT
BRANCH   8  15
ATOM     13  O   UNL     1     114.454 130.095 134.613  0.00  0.00    +0.000 OA
ATOM     14  O   UNL     1     115.119 131.439 135.301  0.00  0.00    +0.000 OA
ATOM     15  C   UNL     1     113.643 129.968 136.636  0.00  0.00    +0.000 A 
ATOM     16  C   UNL     1     113.803 129.786 135.846  0.00  0.00    +0.000 A 
ATOM     17  C   UNL     1     113.976 130.640 136.980  0.00  0.00    +0.000 A 
ATOM     18  C   UNL     1     114.295 130.277 135.402  0.00  0.00    +0.000 A 
ATOM     19  C   UNL     1     114.468 131.130 136.534  0.00  0.00    +0.000 A 
ATOM     20  C   UNL     1     114.627 130.949 135.746  0.00  0.00    +0.000 A 
ENDBRANCH   8  15
BRANCH   4  21
ATOM     21  O   UNL     1     112.143 130.490 137.082  0.00  0.00    +0.000 OA
BRANCH  21  29
ATOM     22  O   UNL     1     111.263 130.016 136.061  0.00  0.00    +0.000 OA
ATOM     23  O   UNL     1     109.769 131.950 136.450  0.00  0.00    +0.000 OA
ATOM     24  O   UNL     1     111.147 131.780 137.342  0.00  0.00    +0.000 OA
ATOM     25  C   UNL     1     110.076 130.746 135.745  0.00  0.00    +0.000 C 
ATOM     26  C   UNL     1     110.267 131.306 136.321  0.00  0.00    +0.000 C 
ATOM     27  C   UNL     1     110.957 131.220 136.766  0.00  0.00    +0.000 C 
ATOM     28  C   UNL     1     110.574 130.101 135.616  0.00  0.00    +0.000 C 
ATOM     29  C   UNL     1     111.455 130.575 136.637  0.00  0.00    +0.000 C 
ATOM     30  C   UNL     1     110.383 129.542 135.040  0.00  0.00    +0.000 C 
BRANCH  25  31
ATOM     31  O   UNL     1     109.387 130.831 135.300  0.00  0.00    +0.000 OA
BRANCH  31  33
ATOM     32  O   UNL     1     108.540 129.823 135.853  0.00  0.00    +0.000 OA
ATOM     33  C   UNL     1     108.660 130.604 135.617  0.00  0.00    +0.000 C 
ATOM     34  C   UNL     1     108.054 131.157 135.697  0.00  0.00    +0.000 C 
ENDBRANCH  31  33
ENDBRANCH  25  31
ENDBRANCH  21  29
ENDBRANCH   4  21
BRANCH   5  35
ATOM     35  O   UNL     1     112.949 126.186 138.653  0.00  0.00    +0.000 OA
BRANCH  35  44
ATOM     36  O   UNL     1     112.376 125.359 137.638  0.00  0.00    +0.000 OA
ATOM     37  O   UNL     1     114.577 124.292 137.265  0.00  0.00    +0.000 OA
ATOM     38  O   UNL     1     113.270 123.820 136.375  0.00  0.00    +0.000 OA
ATOM     39  O   UNL     1     114.417 125.475 138.404  0.00  0.00    +0.000 OA
ATOM     40  C   UNL     1     113.843 124.647 137.389  0.00  0.00    +0.000 C 
ATOM     41  C   UNL     1     113.190 124.412 136.944  0.00  0.00    +0.000 C 
ATOM     42  C   UNL     1     113.763 125.239 137.959  0.00  0.00    +0.000 C 
ATOM     43  C   UNL     1     112.457 124.768 137.069  0.00  0.00    +0.000 C 
ATOM     44  C   UNL     1     113.029 125.595 138.083  0.00  0.00    +0.000 C 
ATOM     45  C   UNL     1     111.803 124.532 136.624  0.00  0.00    +0.000 C 
ENDBRANCH  35  44
ENDBRANCH   5  35
TORSDOF 7
ENDMDL
MODEL 6
REMARK VINA RESULT:     -10.0      1.384      3.268
REMARK  Name = 74978214
REMARK  7 active torsions:
REMARK  status: ('A' for Active; 'I' for Inactive)
REMARK    1  A    between atoms: O_3  and  C_17
REMARK    2  A    between atoms: O_3  and  C_31
REMARK    3  A    between atoms: O_4  and  C_21
REMARK    4  A    between atoms: O_4  and  C_29
REMARK    5  A    between atoms: O_7  and  C_26
REMARK    6  A    between atoms: O_7  and  C_30
REMARK    7  A    between atoms: C_34  and  C_39
REMARK                            x       y       z     vdW  Elec       q    Type
REMARK                         _______ _______ _______ _____ _____    ______ ____
ROOT
ATOM      1  O   UNL     1     111.222 128.621 138.955  0.00  0.00    +0.000 OA
ATOM      2  O   UNL     1     111.814 126.219 139.036  0.00  0.00    +0.000 OA
ATOM      3  O   UNL     1     112.405 126.379 140.343  0.00  0.00    +0.000 OA
ATOM      4  C   UNL     1     111.228 127.326 138.349  0.00  0.00    +0.000 A 
ATOM      5  C   UNL     1     112.207 128.524 140.958  0.00  0.00    +0.000 A 
ATOM      6  C   UNL     1     111.807 127.513 139.642  0.00  0.00    +0.000 A 
ATOM      7  C   UNL     1     111.616 127.020 139.009  0.00  0.00    +0.000 A 
ATOM      8  C   UNL     1     111.031 128.128 138.322  0.00  0.00    +0.000 A 
ATOM      9  C   UNL     1     111.610 128.313 139.615  0.00  0.00    +0.000 A 
ATOM     10  C   UNL     1     111.803 128.838 140.268  0.00  0.00    +0.000 A 
ATOM     11  C   UNL     1     112.413 127.690 140.987  0.00  0.00    +0.000 A 
ATOM     12  C   UNL     1     112.211 127.181 140.324  0.00  0.00    +0.000 A 
ENDROOT
BRANCH   8  15
ATOM     13  O   UNL     1     111.082 129.674 135.919  0.00  0.00    +0.000 OA
ATOM     14  O   UNL     1     109.481 129.355 135.680  0.00  0.00    +0.000 OA
ATOM     15  C   UNL     1     110.643 128.434 137.662  0.00  0.00    +0.000 A 
ATOM     16  C   UNL     1     111.057 128.901 137.121  0.00  0.00    +0.000 A 
ATOM     17  C   UNL     1     109.842 128.275 137.542  0.00  0.00    +0.000 A 
ATOM     18  C   UNL     1     110.669 129.207 136.460  0.00  0.00    +0.000 A 
ATOM     19  C   UNL     1     109.455 128.582 136.881  0.00  0.00    +0.000 A 
ATOM     20  C   UNL     1     109.868 129.048 136.341  0.00  0.00    +0.000 A 
ENDBRANCH   8  15
BRANCH   4  21
ATOM     21  O   UNL     1     111.038 126.833 137.716  0.00  0.00    +0.000 OA
BRANCH  21  29
ATOM     22  O   UNL     1     112.375 126.757 137.217  0.00  0.00    +0.000 OA
ATOM     23  O   UNL     1     111.930 124.473 136.373  0.00  0.00    +0.000 OA
ATOM     24  O   UNL     1     110.741 125.310 137.154  0.00  0.00    +0.000 OA
ATOM     25  C   UNL     1     112.820 125.578 136.546  0.00  0.00    +0.000 C 
ATOM     26  C   UNL     1     112.078 125.234 136.654  0.00  0.00    +0.000 C 
ATOM     27  C   UNL     1     111.483 125.653 137.045  0.00  0.00    +0.000 C 
ATOM     28  C   UNL     1     112.968 126.339 136.827  0.00  0.00    +0.000 C 
ATOM     29  C   UNL     1     111.632 126.415 137.326  0.00  0.00    +0.000 C 
ATOM     30  C   UNL     1     113.711 126.681 136.717  0.00  0.00    +0.000 C 
BRANCH  25  31
ATOM     31  O   UNL     1     113.415 125.159 136.155  0.00  0.00    +0.000 OA
BRANCH  31  33
ATOM     32  O   UNL     1     113.787 124.163 137.110  0.00  0.00    +0.000 OA
ATOM     33  C   UNL     1     113.997 124.767 136.589  0.00  0.00    +0.000 C 
ATOM     34  C   UNL     1     114.789 124.981 136.502  0.00  0.00    +0.000 C 
ENDBRANCH  31  33
ENDBRANCH  25  31
ENDBRANCH  21  29
ENDBRANCH   4  21
BRANCH   5  35
ATOM     35  O   UNL     1     112.396 129.020 141.590  0.00  0.00    +0.000 OA
BRANCH  35  44
ATOM     36  O   UNL     1     113.637 129.459 141.033  0.00  0.00    +0.000 OA
ATOM     37  O   UNL     1     113.362 131.652 142.146  0.00  0.00    +0.000 OA
ATOM     38  O   UNL     1     114.694 131.360 141.218  0.00  0.00    +0.000 OA
ATOM     39  O   UNL     1     112.212 130.482 142.333  0.00  0.00    +0.000 OA
ATOM     40  C   UNL     1     113.454 130.921 141.775  0.00  0.00    +0.000 C 
ATOM     41  C   UNL     1     114.120 130.775 141.311  0.00  0.00    +0.000 C 
ATOM     42  C   UNL     1     112.879 130.336 141.869  0.00  0.00    +0.000 C 
ATOM     43  C   UNL     1     114.211 130.044 140.941  0.00  0.00    +0.000 C 
ATOM     44  C   UNL     1     112.971 129.605 141.497  0.00  0.00    +0.000 C 
ATOM     45  C   UNL     1     114.878 129.898 140.477  0.00  0.00    +0.000 C 
ENDBRANCH  35  44
ENDBRANCH   5  35
TORSDOF 7
ENDMDL
MODEL 7
REMARK VINA RESULT:     -10.0      1.748      5.123
REMARK  Name = 74978214
REMARK  7 active torsions:
REMARK  status: ('A' for Active; 'I' for Inactive)
REMARK    1  A    between atoms: O_3  and  C_17
REMARK    2  A    between atoms: O_3  and  C_31
REMARK    3  A    between atoms: O_4  and  C_21
REMARK    4  A    between atoms: O_4  and  C_29
REMARK    5  A    between atoms: O_7  and  C_26
REMARK    6  A    between atoms: O_7  and  C_30
REMARK    7  A    between atoms: C_34  and  C_39
REMARK                            x       y       z     vdW  Elec       q    Type
REMARK                         _______ _______ _______ _____ _____    ______ ____
ROOT
ATOM      1  O   UNL     1     112.264 127.033 136.526  0.00  0.00    +0.000 OA
ATOM      2  O   UNL     1     113.071 128.333 138.472  0.00  0.00    +0.000 OA
ATOM      3  O   UNL     1     112.518 129.548 137.925  0.00  0.00    +0.000 OA
ATOM      4  C   UNL     1     112.946 127.088 137.781  0.00  0.00    +0.000 A 
ATOM      5  C   UNL     1     111.536 129.071 135.969  0.00  0.00    +0.000 A 
ATOM      6  C   UNL     1     112.389 128.277 137.217  0.00  0.00    +0.000 A 
ATOM      7  C   UNL     1     112.802 127.899 137.823  0.00  0.00    +0.000 A 
ATOM      8  C   UNL     1     112.677 126.655 137.132  0.00  0.00    +0.000 A 
ATOM      9  C   UNL     1     112.120 127.844 136.569  0.00  0.00    +0.000 A 
ATOM     10  C   UNL     1     111.689 128.225 135.931  0.00  0.00    +0.000 A 
ATOM     11  C   UNL     1     111.817 129.522 136.645  0.00  0.00    +0.000 A 
ATOM     12  C   UNL     1     112.246 129.123 137.273  0.00  0.00    +0.000 A 
ENDROOT
BRANCH   8  15
ATOM     13  O   UNL     1     111.736 123.962 137.318  0.00  0.00    +0.000 OA
ATOM     14  O   UNL     1     113.251 123.409 136.965  0.00  0.00    +0.000 OA
ATOM     15  C   UNL     1     112.821 125.843 137.090  0.00  0.00    +0.000 A 
ATOM     16  C   UNL     1     112.207 125.308 137.225  0.00  0.00    +0.000 A 
ATOM     17  C   UNL     1     113.578 125.567 136.914  0.00  0.00    +0.000 A 
ATOM     18  C   UNL     1     112.351 124.497 137.183  0.00  0.00    +0.000 A 
ATOM     19  C   UNL     1     113.721 124.755 136.873  0.00  0.00    +0.000 A 
ATOM     20  C   UNL     1     113.108 124.221 137.007  0.00  0.00    +0.000 A 
ENDBRANCH   8  15
BRANCH   4  21
ATOM     21  O   UNL     1     113.358 126.710 138.387  0.00  0.00    +0.000 OA
BRANCH  21  29
ATOM     22  O   UNL     1     112.267 126.731 139.309  0.00  0.00    +0.000 OA
ATOM     23  O   UNL     1     113.861 126.891 141.195  0.00  0.00    +0.000 OA
ATOM     24  O   UNL     1     114.422 126.817 139.645  0.00  0.00    +0.000 OA
ATOM     25  C   UNL     1     112.518 126.821 140.712  0.00  0.00    +0.000 C 
ATOM     26  C   UNL     1     113.330 126.837 140.566  0.00  0.00    +0.000 C 
ATOM     27  C   UNL     1     113.610 126.800 139.790  0.00  0.00    +0.000 C 
ATOM     28  C   UNL     1     111.987 126.767 140.083  0.00  0.00    +0.000 C 
ATOM     29  C   UNL     1     113.078 126.747 139.162  0.00  0.00    +0.000 C 
ATOM     30  C   UNL     1     111.175 126.751 140.231  0.00  0.00    +0.000 C 
BRANCH  25  31
ATOM     31  O   UNL     1     112.238 126.858 141.488  0.00  0.00    +0.000 OA
BRANCH  31  33
ATOM     32  O   UNL     1     112.520 128.209 141.858  0.00  0.00    +0.000 OA
ATOM     33  C   UNL     1     111.990 127.579 141.803  0.00  0.00    +0.000 C 
ATOM     34  C   UNL     1     111.213 127.669 142.063  0.00  0.00    +0.000 C 
ENDBRANCH  31  33
ENDBRANCH  25  31
ENDBRANCH  21  29
ENDBRANCH   4  21
BRANCH   5  35
ATOM     35  O   UNL     1     111.123 129.446 135.361  0.00  0.00    +0.000 OA
BRANCH  35  44
ATOM     36  O   UNL     1     109.824 128.909 135.614  0.00  0.00    +0.000 OA
ATOM     37  O   UNL     1     108.823 131.135 135.206  0.00  0.00    +0.000 OA
ATOM     38  O   UNL     1     107.857 129.856 135.595  0.00  0.00    +0.000 OA
ATOM     39  O   UNL     1     110.457 130.931 135.089  0.00  0.00    +0.000 OA
ATOM     40  C   UNL     1     109.156 130.393 135.342  0.00  0.00    +0.000 C 
ATOM     41  C   UNL     1     108.673 129.753 135.537  0.00  0.00    +0.000 C 
ATOM     42  C   UNL     1     109.974 130.291 135.284  0.00  0.00    +0.000 C 
ATOM     43  C   UNL     1     109.007 129.011 135.672  0.00  0.00    +0.000 C 
ATOM     44  C   UNL     1     110.307 129.549 135.420  0.00  0.00    +0.000 C 
ATOM     45  C   UNL     1     108.524 128.371 135.866  0.00  0.00    +0.000 C 
ENDBRANCH  35  44
ENDBRANCH   5  35
TORSDOF 7
ENDMDL
MODEL 8
REMARK VINA RESULT:     -10.0      2.314      3.787
REMARK  Name = 74978214
REMARK  7 active torsions:
REMARK  status: ('A' for Active; 'I' for Inactive)
REMARK    1  A    between atoms: O_3  and  C_17
REMARK    2  A    between atoms: O_3  and  C_31
REMARK    3  A    between atoms: O_4  and  C_21
REMARK    4  A    between atoms: O_4  and  C_29
REMARK    5  A    between atoms: O_7  and  C_26
REMARK    6  A    between atoms: O_7  and  C_30
REMARK    7  A    between atoms: C_34  and  C_39
REMARK                            x       y       z     vdW  Elec       q    Type
REMARK                         _______ _______ _______ _____ _____    ______ ____
ROOT
ATOM      1  O   UNL     1     112.443 128.360 137.619  0.00  0.00    +0.000 OA
ATOM      2  O   UNL     1     111.726 130.404 136.420  0.00  0.00    +0.000 OA
ATOM      3  O   UNL     1     112.578 131.223 137.247  0.00  0.00    +0.000 OA
ATOM      4  C   UNL     1     111.659 128.988 136.602  0.00  0.00    +0.000 A 
ATOM      5  C   UNL     1     113.640 129.899 138.710  0.00  0.00    +0.000 A 
ATOM      6  C   UNL     1     112.511 129.776 137.436  0.00  0.00    +0.000 A 
ATOM      7  C   UNL     1     111.965 129.722 136.820  0.00  0.00    +0.000 A 
ATOM      8  C   UNL     1     111.898 128.307 137.003  0.00  0.00    +0.000 A 
ATOM      9  C   UNL     1     112.749 129.095 137.836  0.00  0.00    +0.000 A 
ATOM     10  C   UNL     1     113.317 129.137 138.479  0.00  0.00    +0.000 A 
ATOM     11  C   UNL     1     113.391 130.610 138.294  0.00  0.00    +0.000 A 
ATOM     12  C   UNL     1     112.823 130.547 137.653  0.00  0.00    +0.000 A 
ENDROOT
BRANCH   8  15
ATOM     13  O   UNL     1     110.146 126.107 137.516  0.00  0.00    +0.000 OA
ATOM     14  O   UNL     1     110.668 125.370 136.135  0.00  0.00    +0.000 OA
ATOM     15  C   UNL     1     111.591 127.573 136.785  0.00  0.00    +0.000 A 
ATOM     16  C   UNL     1     111.022 127.207 137.259  0.00  0.00    +0.000 A 
ATOM     17  C   UNL     1     111.852 127.204 136.095  0.00  0.00    +0.000 A 
ATOM     18  C   UNL     1     110.715 126.473 137.042  0.00  0.00    +0.000 A 
ATOM     19  C   UNL     1     111.544 126.469 135.879  0.00  0.00    +0.000 A 
ATOM     20  C   UNL     1     110.976 126.104 136.352  0.00  0.00    +0.000 A 
ENDBRANCH   8  15
BRANCH   4  21
ATOM     21  O   UNL     1     111.113 128.935 135.986  0.00  0.00    +0.000 OA
BRANCH  21  29
ATOM     22  O   UNL     1     110.035 129.462 136.762  0.00  0.00    +0.000 OA
ATOM     23  O   UNL     1     108.980 130.339 134.702  0.00  0.00    +0.000 OA
ATOM     24  O   UNL     1     110.410 129.519 134.613  0.00  0.00    +0.000 OA
ATOM     25  C   UNL     1     108.969 130.163 136.120  0.00  0.00    +0.000 C 
ATOM     26  C   UNL     1     109.332 130.046 135.389  0.00  0.00    +0.000 C 
ATOM     27  C   UNL     1     110.047 129.636 135.344  0.00  0.00    +0.000 C 
ATOM     28  C   UNL     1     109.321 129.871 136.807  0.00  0.00    +0.000 C 
ATOM     29  C   UNL     1     110.399 129.344 136.031  0.00  0.00    +0.000 C 
ATOM     30  C   UNL     1     108.957 129.989 137.539  0.00  0.00    +0.000 C 
BRANCH  25  31
ATOM     31  O   UNL     1     108.254 130.573 136.165  0.00  0.00    +0.000 OA
BRANCH  31  33
ATOM     32  O   UNL     1     108.653 131.813 136.754  0.00  0.00    +0.000 OA
ATOM     33  C   UNL     1     108.251 131.398 136.164  0.00  0.00    +0.000 C 
ATOM     34  C   UNL     1     107.846 131.808 135.575  0.00  0.00    +0.000 C 
ENDBRANCH  31  33
ENDBRANCH  25  31
ENDBRANCH  21  29
ENDBRANCH   4  21
BRANCH   5  35
ATOM     35  O   UNL     1     114.186 129.950 139.327  0.00  0.00    +0.000 OA
BRANCH  35  44
ATOM     36  O   UNL     1     113.266 129.836 140.416  0.00  0.00    +0.000 OA
ATOM     37  O   UNL     1     114.532 131.557 141.665  0.00  0.00    +0.000 OA
ATOM     38  O   UNL     1     113.191 130.870 142.337  0.00  0.00    +0.000 OA
ATOM     39  O   UNL     1     115.030 131.098 140.160  0.00  0.00    +0.000 OA
ATOM     40  C   UNL     1     114.110 130.984 141.249  0.00  0.00    +0.000 C 
ATOM     41  C   UNL     1     113.439 130.640 141.585  0.00  0.00    +0.000 C 
ATOM     42  C   UNL     1     114.359 130.754 140.496  0.00  0.00    +0.000 C 
ATOM     43  C   UNL     1     113.018 130.066 141.168  0.00  0.00    +0.000 C 
ATOM     44  C   UNL     1     113.937 130.180 140.080  0.00  0.00    +0.000 C 
ATOM     45  C   UNL     1     112.347 129.723 141.504  0.00  0.00    +0.000 C 
ENDBRANCH  35  44
ENDBRANCH   5  35
TORSDOF 7
ENDMDL
MODEL 9
REMARK VINA RESULT:     -10.0      1.668      2.574
REMARK  Name = 74978214
REMARK  7 active torsions:
REMARK  status: ('A' for Active; 'I' for Inactive)
REMARK    1  A    between atoms: O_3  and  C_17
REMARK    2  A    between atoms: O_3  and  C_31
REMARK    3  A    between atoms: O_4  and  C_21
REMARK    4  A    between atoms: O_4  and  C_29
REMARK    5  A    between atoms: O_7  and  C_26
REMARK    6  A    between atoms: O_7  and  C_30
REMARK    7  A    between atoms: C_34  and  C_39
REMARK                            x       y       z     vdW  Elec       q    Type
REMARK                         _______ _______ _______ _____ _____    ______ ____
ROOT
ATOM      1  O   UNL     1     112.984 126.472 139.023  0.00  0.00    +0.000 OA
ATOM      2  O   UNL     1     113.215 128.692 137.952  0.00  0.00    +0.000 OA
ATOM      3  O   UNL     1     112.945 129.356 139.204  0.00  0.00    +0.000 OA
ATOM      4  C   UNL     1     113.234 127.266 137.861  0.00  0.00    +0.000 A 
ATOM      5  C   UNL     1     112.605 127.800 140.780  0.00  0.00    +0.000 A 
ATOM      6  C   UNL     1     112.964 127.898 139.114  0.00  0.00    +0.000 A 
ATOM      7  C   UNL     1     113.138 127.952 138.309  0.00  0.00    +0.000 A 
ATOM      8  C   UNL     1     113.157 126.526 138.218  0.00  0.00    +0.000 A 
ATOM      9  C   UNL     1     112.887 127.159 139.470  0.00  0.00    +0.000 A 
ATOM     10  C   UNL     1     112.707 127.089 140.307  0.00  0.00    +0.000 A 
ATOM     11  C   UNL     1     112.686 128.571 140.408  0.00  0.00    +0.000 A 
ATOM     12  C   UNL     1     112.866 128.620 139.570  0.00  0.00    +0.000 A 
ENDROOT
BRANCH   8  15
ATOM     13  O   UNL     1     112.033 124.247 136.910  0.00  0.00    +0.000 OA
ATOM     14  O   UNL     1     113.540 123.783 136.424  0.00  0.00    +0.000 OA
ATOM     15  C   UNL     1     113.253 125.840 137.769  0.00  0.00    +0.000 A 
ATOM     16  C   UNL     1     112.595 125.386 137.564  0.00  0.00    +0.000 A 
ATOM     17  C   UNL     1     114.007 125.608 137.527  0.00  0.00    +0.000 A 
ATOM     18  C   UNL     1     112.692 124.701 137.115  0.00  0.00    +0.000 A 
ATOM     19  C   UNL     1     114.102 124.922 137.078  0.00  0.00    +0.000 A 
ATOM     20  C   UNL     1     113.445 124.469 136.872  0.00  0.00    +0.000 A 
ENDBRANCH   8  15
BRANCH   4  21
ATOM     21  O   UNL     1     113.408 127.320 137.056  0.00  0.00    +0.000 OA
BRANCH  21  29
ATOM     22  O   UNL     1     112.074 127.651 136.663  0.00  0.00    +0.000 OA
ATOM     23  O   UNL     1     112.963 129.007 134.792  0.00  0.00    +0.000 OA
ATOM     24  O   UNL     1     114.000 128.224 135.809  0.00  0.00    +0.000 OA
ATOM     25  C   UNL     1     111.852 128.494 135.531  0.00  0.00    +0.000 C 
ATOM     26  C   UNL     1     112.667 128.555 135.416  0.00  0.00    +0.000 C 
ATOM     27  C   UNL     1     113.186 128.163 135.924  0.00  0.00    +0.000 C 
ATOM     28  C   UNL     1     111.556 128.043 136.155  0.00  0.00    +0.000 C 
ATOM     29  C   UNL     1     112.889 127.711 136.548  0.00  0.00    +0.000 C 
ATOM     30  C   UNL     1     110.741 127.983 136.270  0.00  0.00    +0.000 C 
BRANCH  25  31
ATOM     31  O   UNL     1     111.334 128.886 135.022  0.00  0.00    +0.000 OA
BRANCH  31  33
ATOM     32  O   UNL     1     111.415 130.149 135.685  0.00  0.00    +0.000 OA
ATOM     33  C   UNL     1     110.980 129.594 135.258  0.00  0.00    +0.000 C 
ATOM     34  C   UNL     1     110.193 129.745 135.066  0.00  0.00    +0.000 C 
ENDBRANCH  31  33
ENDBRANCH  25  31
ENDBRANCH  21  29
ENDBRANCH   4  21
BRANCH   5  35
ATOM     35  O   UNL     1     112.432 127.743 141.584  0.00  0.00    +0.000 OA
BRANCH  35  44
ATOM     36  O   UNL     1     111.036 127.466 141.456  0.00  0.00    +0.000 OA
ATOM     37  O   UNL     1     110.570 128.900 143.418  0.00  0.00    +0.000 OA
ATOM     38  O   UNL     1     109.329 128.145 142.635  0.00  0.00    +0.000 OA
ATOM     39  O   UNL     1     112.122 128.699 142.893  0.00  0.00    +0.000 OA
ATOM     40  C   UNL     1     110.725 128.422 142.764  0.00  0.00    +0.000 C 
ATOM     41  C   UNL     1     110.105 128.044 142.373  0.00  0.00    +0.000 C 
ATOM     42  C   UNL     1     111.501 128.322 142.502  0.00  0.00    +0.000 C 
ATOM     43  C   UNL     1     110.261 127.567 141.719  0.00  0.00    +0.000 C 
ATOM     44  C   UNL     1     111.656 127.843 141.847  0.00  0.00    +0.000 C 
ATOM     45  C   UNL     1     109.640 127.189 141.327  0.00  0.00    +0.000 C 
ENDBRANCH  35  44
ENDBRANCH   5  35
TORSDOF 7
ENDMDL
MODEL 10
REMARK VINA RESULT:     -10.0      2.780      5.999
REMARK  Name = 74978214
REMARK  7 active torsions:
REMARK  status: ('A' for Active; 'I' for Inactive)
REMARK    1  A    between atoms: O_3  and  C_17
REMARK    2  A    between atoms: O_3  and  C_31
REMARK    3  A    between atoms: O_4  and  C_21
REMARK    4  A    between atoms: O_4  and  C_29
REMARK    5  A    between atoms: O_7  and  C_26
REMARK    6  A    between atoms: O_7  and  C_30
REMARK    7  A    between atoms: C_34  and  C_39
REMARK                            x       y       z     vdW  Elec       q    Type
REMARK                         _______ _______ _______ _____ _____    ______ ____
ROOT
ATOM      1  O   UNL     1     111.183 128.983 136.182  0.00  0.00    +0.000 OA
ATOM      2  O   UNL     1     112.030 129.974 138.287  0.00  0.00    +0.000 OA
ATOM      3  O   UNL     1     113.074 128.981 138.368  0.00  0.00    +0.000 OA
ATOM      4  C   UNL     1     111.095 129.976 137.207  0.00  0.00    +0.000 A 
ATOM      5  C   UNL     1     112.895 127.611 136.604  0.00  0.00    +0.000 A 
ATOM      6  C   UNL     1     112.119 128.981 137.262  0.00  0.00    +0.000 A 
ATOM      7  C   UNL     1     111.748 129.643 137.585  0.00  0.00    +0.000 A 
ATOM      8  C   UNL     1     110.812 129.645 136.505  0.00  0.00    +0.000 A 
ATOM      9  C   UNL     1     111.837 128.651 136.561  0.00  0.00    +0.000 A 
ATOM     10  C   UNL     1     112.214 127.962 136.215  0.00  0.00    +0.000 A 
ATOM     11  C   UNL     1     113.190 127.955 137.336  0.00  0.00    +0.000 A 
ATOM     12  C   UNL     1     112.799 128.644 137.666  0.00  0.00    +0.000 A 
ENDROOT
BRANCH   8  15
ATOM     13  O   UNL     1     108.046 129.541 135.796  0.00  0.00    +0.000 OA
ATOM     14  O   UNL     1     108.197 130.974 134.992  0.00  0.00    +0.000 OA
ATOM     15  C   UNL     1     110.159 129.978 136.126  0.00  0.00    +0.000 A 
ATOM     16  C   UNL     1     109.429 129.593 136.150  0.00  0.00    +0.000 A 
ATOM     17  C   UNL     1     110.235 130.695 135.725  0.00  0.00    +0.000 A 
ATOM     18  C   UNL     1     108.776 129.926 135.772  0.00  0.00    +0.000 A 
ATOM     19  C   UNL     1     109.580 131.026 135.347  0.00  0.00    +0.000 A 
ATOM     20  C   UNL     1     108.851 130.642 135.370  0.00  0.00    +0.000 A 
ENDBRANCH   8  15
BRANCH   4  21
ATOM     21  O   UNL     1     110.723 130.638 137.529  0.00  0.00    +0.000 OA
BRANCH  21  29
ATOM     22  O   UNL     1     110.065 129.893 138.555  0.00  0.00    +0.000 OA
ATOM     23  O   UNL     1     110.064 131.896 140.010  0.00  0.00    +0.000 OA
ATOM     24  O   UNL     1     110.723 131.974 138.499  0.00  0.00    +0.000 OA
ATOM     25  C   UNL     1     109.735 130.522 139.795  0.00  0.00    +0.000 C 
ATOM     26  C   UNL     1     110.064 131.228 139.525  0.00  0.00    +0.000 C 
ATOM     27  C   UNL     1     110.394 131.267 138.769  0.00  0.00    +0.000 C 
ATOM     28  C   UNL     1     109.735 129.854 139.310  0.00  0.00    +0.000 C 
ATOM     29  C   UNL     1     110.394 130.599 138.284  0.00  0.00    +0.000 C 
ATOM     30  C   UNL     1     109.406 129.148 139.581  0.00  0.00    +0.000 C 
BRANCH  25  31
ATOM     31  O   UNL     1     109.405 130.483 140.551  0.00  0.00    +0.000 OA
BRANCH  31  33
ATOM     32  O   UNL     1     108.144 131.071 140.228  0.00  0.00    +0.000 OA
ATOM     33  C   UNL     1     108.586 130.514 140.646  0.00  0.00    +0.000 C 
ATOM     34  C   UNL     1     108.211 129.988 141.157  0.00  0.00    +0.000 C 
ENDBRANCH  31  33
ENDBRANCH  25  31
ENDBRANCH  21  29
ENDBRANCH   4  21
BRANCH   5  35
ATOM     35  O   UNL     1     113.265 126.948 136.279  0.00  0.00    +0.000 OA
BRANCH  35  44
ATOM     36  O   UNL     1     112.244 125.997 136.591  0.00  0.00    +0.000 OA
ATOM     37  O   UNL     1     113.976 124.311 137.119  0.00  0.00    +0.000 OA
ATOM     38  O   UNL     1     112.379 123.922 137.254  0.00  0.00    +0.000 OA
ATOM     39  O   UNL     1     114.420 125.824 136.631  0.00  0.00    +0.000 OA
ATOM     40  C   UNL     1     113.399 124.873 136.943  0.00  0.00    +0.000 C 
ATOM     41  C   UNL     1     112.600 124.678 137.010  0.00  0.00    +0.000 C 
ATOM     42  C   UNL     1     113.621 125.629 136.699  0.00  0.00    +0.000 C 
ATOM     43  C   UNL     1     112.023 125.241 136.834  0.00  0.00    +0.000 C 
ATOM     44  C   UNL     1     113.043 126.192 136.523  0.00  0.00    +0.000 C 
ATOM     45  C   UNL     1     111.224 125.047 136.902  0.00  0.00    +0.000 C 
ENDBRANCH  35  44
ENDBRANCH   5  35
TORSDOF 7
ENDMDL
