MODEL 1
REMARK VINA RESULT:     -10.1      0.000      0.000
REMARK  Name = 
REMARK  7 active torsions:
REMARK  status: ('A' for Active; 'I' for Inactive)
REMARK    1  A    between atoms: C_6  and  C_11
REMARK    2  A    between atoms: C_7  and  C_12
REMARK    3  A    between atoms: C_14  and  O_18
REMARK    4  A    between atoms: O_18  and  C_21
REMARK    5  A    between atoms: C_26  and  N_29
REMARK    6  A    between atoms: C_31  and  C_33
REMARK    7  A    between atoms: C_33  and  C_34
REMARK                            x       y       z     vdW  Elec       q    Type
REMARK                         _______ _______ _______ _____ _____    ______ ____
ROOT
ATOM      1  O   UNL     1     106.035 127.505 145.367  0.00  0.00    +0.000 OA
ATOM      2  C   UNL     1     106.197 126.704 145.475  0.00  0.00    +0.000 C 
ATOM      3  C   UNL     1     106.105 126.177 144.847  0.00  0.00    +0.000 A 
ATOM      4  C   UNL     1     106.452 126.429 146.210  0.00  0.00    +0.000 C 
ATOM      5  C   UNL     1     106.267 125.374 144.954  0.00  0.00    +0.000 A 
ATOM      6  C   UNL     1     105.850 126.451 144.112  0.00  0.00    +0.000 A 
ATOM      7  C   UNL     1     106.614 125.628 146.317  0.00  0.00    +0.000 C 
ATOM      8  O   UNL     1     106.521 125.101 145.690  0.00  0.00    +0.000 OA
ATOM      9  C   UNL     1     106.174 124.847 144.327  0.00  0.00    +0.000 A 
ATOM     10  C   UNL     1     105.758 125.923 143.484  0.00  0.00    +0.000 A 
ATOM     11  O   UNL     1     106.336 124.046 144.434  0.00  0.00    +0.000 OA
ATOM     12  C   UNL     1     105.920 125.122 143.592  0.00  0.00    +0.000 A 
ENDROOT
BRANCH   7  13
ATOM     13  C   UNL     1     106.868 125.353 147.053  0.00  0.00    +0.000 A 
ATOM     14  C   UNL     1     107.666 125.396 147.256  0.00  0.00    +0.000 A 
ATOM     15  C   UNL     1     106.324 125.034 147.584  0.00  0.00    +0.000 A 
ATOM     16  C   UNL     1     107.920 125.121 147.991  0.00  0.00    +0.000 A 
ATOM     17  C   UNL     1     106.577 124.759 148.319  0.00  0.00    +0.000 A 
ATOM     18  C   UNL     1     107.376 124.802 148.523  0.00  0.00    +0.000 A 
ENDBRANCH   7  13
BRANCH   6  19
ATOM     19  C   UNL     1     105.688 127.253 144.004  0.00  0.00    +0.000 C 
ATOM     20  O   UNL     1     105.057 127.485 143.527  0.00  0.00    +0.000 OA
ENDBRANCH   6  19
BRANCH  12  21
ATOM     21  O   UNL     1     105.827 124.594 142.963  0.00  0.00    +0.000 OA
BRANCH  21  22
ATOM     22  C   UNL     1     106.122 124.786 142.217  0.00  0.00    +0.000 C 
ATOM     23  O   UNL     1     106.927 124.937 142.118  0.00  0.00    +0.000 OA
ATOM     24  C   UNL     1     105.613 124.828 141.570  0.00  0.00    +0.000 C 
ATOM     25  C   UNL     1     107.223 125.129 141.372  0.00  0.00    +0.000 C 
ATOM     26  C   UNL     1     105.907 125.020 140.823  0.00  0.00    +0.000 C 
ATOM     27  C   UNL     1     106.713 125.171 140.725  0.00  0.00    +0.000 C 
ATOM     28  C   UNL     1     108.027 125.279 141.274  0.00  0.00    +0.000 C 
ATOM     29  O   UNL     1     107.008 125.363 139.979  0.00  0.00    +0.000 OA
BRANCH  26  30
ATOM     30  N   UNL     1     105.398 125.062 140.177  0.00  0.00    +0.000 NA
ATOM     31  C   UNL     1     104.908 124.423 139.994  0.00  0.00    +0.000 C 
ATOM     32  O   UNL     1     104.929 123.742 140.459  0.00  0.00    +0.000 OA
BRANCH  31  33
ATOM     33  C   UNL     1     104.399 124.465 139.347  0.00  0.00    +0.000 C 
ATOM     34  C   UNL     1     104.081 125.192 139.119  0.00  0.00    +0.000 C 
BRANCH  33  35
ATOM     35  C   UNL     1     104.207 123.782 138.928  0.00  0.00    +0.000 C 
ATOM     36  O   UNL     1     103.722 123.210 139.272  0.00  0.00    +0.000 OA
ATOM     37  C   UNL     1     104.500 123.668 138.165  0.00  0.00    +0.000 C 
ENDBRANCH  33  35
ENDBRANCH  31  33
ENDBRANCH  26  30
ENDBRANCH  21  22
ENDBRANCH  12  21
TORSDOF 7
ENDMDL
MODEL 2
REMARK VINA RESULT:      -9.5      8.319      9.732
REMARK  Name = 
REMARK  7 active torsions:
REMARK  status: ('A' for Active; 'I' for Inactive)
REMARK    1  A    between atoms: C_6  and  C_11
REMARK    2  A    between atoms: C_7  and  C_12
REMARK    3  A    between atoms: C_14  and  O_18
REMARK    4  A    between atoms: O_18  and  C_21
REMARK    5  A    between atoms: C_26  and  N_29
REMARK    6  A    between atoms: C_31  and  C_33
REMARK    7  A    between atoms: C_33  and  C_34
REMARK                            x       y       z     vdW  Elec       q    Type
REMARK                         _______ _______ _______ _____ _____    ______ ____
ROOT
ATOM      1  O   UNL     1     112.659 127.537 139.194  0.00  0.00    +0.000 OA
ATOM      2  C   UNL     1     112.720 127.255 138.422  0.00  0.00    +0.000 C 
ATOM      3  C   UNL     1     112.331 127.645 137.808  0.00  0.00    +0.000 A 
ATOM      4  C   UNL     1     113.169 126.581 138.262  0.00  0.00    +0.000 C 
ATOM      5  C   UNL     1     112.392 127.363 137.035  0.00  0.00    +0.000 A 
ATOM      6  C   UNL     1     111.881 128.319 137.966  0.00  0.00    +0.000 A 
ATOM      7  C   UNL     1     113.230 126.299 137.490  0.00  0.00    +0.000 C 
ATOM      8  O   UNL     1     112.842 126.690 136.876  0.00  0.00    +0.000 OA
ATOM      9  C   UNL     1     112.003 127.754 136.421  0.00  0.00    +0.000 A 
ATOM     10  C   UNL     1     111.493 128.710 137.353  0.00  0.00    +0.000 A 
ATOM     11  O   UNL     1     112.065 127.472 135.649  0.00  0.00    +0.000 OA
ATOM     12  C   UNL     1     111.554 128.427 136.580  0.00  0.00    +0.000 A 
ENDROOT
BRANCH   7  13
ATOM     13  C   UNL     1     113.680 125.626 137.330  0.00  0.00    +0.000 A 
ATOM     14  C   UNL     1     114.494 125.690 137.220  0.00  0.00    +0.000 A 
ATOM     15  C   UNL     1     113.314 124.888 137.281  0.00  0.00    +0.000 A 
ATOM     16  C   UNL     1     114.944 125.016 137.060  0.00  0.00    +0.000 A 
ATOM     17  C   UNL     1     113.762 124.214 137.121  0.00  0.00    +0.000 A 
ATOM     18  C   UNL     1     114.578 124.279 137.011  0.00  0.00    +0.000 A 
ENDBRANCH   7  13
BRANCH   6  19
ATOM     19  C   UNL     1     111.820 128.601 138.740  0.00  0.00    +0.000 C 
ATOM     20  O   UNL     1     111.803 129.413 138.881  0.00  0.00    +0.000 OA
ENDBRANCH   6  19
BRANCH  12  21
ATOM     21  O   UNL     1     111.165 128.819 135.966  0.00  0.00    +0.000 OA
BRANCH  21  22
ATOM     22  C   UNL     1     110.340 128.820 135.935  0.00  0.00    +0.000 C 
ATOM     23  O   UNL     1     109.932 128.115 135.807  0.00  0.00    +0.000 OA
ATOM     24  C   UNL     1     109.924 129.525 136.032  0.00  0.00    +0.000 C 
ATOM     25  C   UNL     1     109.107 128.115 135.776  0.00  0.00    +0.000 C 
ATOM     26  C   UNL     1     109.100 129.526 136.001  0.00  0.00    +0.000 C 
ATOM     27  C   UNL     1     108.691 128.821 135.873  0.00  0.00    +0.000 C 
ATOM     28  C   UNL     1     108.699 127.410 135.648  0.00  0.00    +0.000 C 
ATOM     29  O   UNL     1     107.867 128.821 135.842  0.00  0.00    +0.000 OA
BRANCH  26  30
ATOM     30  N   UNL     1     108.684 130.232 136.098  0.00  0.00    +0.000 NA
ATOM     31  C   UNL     1     108.913 130.907 135.683  0.00  0.00    +0.000 C 
ATOM     32  O   UNL     1     109.559 130.876 135.171  0.00  0.00    +0.000 OA
BRANCH  31  33
ATOM     33  C   UNL     1     108.497 131.612 135.780  0.00  0.00    +0.000 C 
ATOM     34  C   UNL     1     108.414 131.942 136.533  0.00  0.00    +0.000 C 
BRANCH  33  35
ATOM     35  C   UNL     1     108.165 131.988 135.126  0.00  0.00    +0.000 C 
ATOM     36  O   UNL     1     107.354 131.930 134.985  0.00  0.00    +0.000 OA
ATOM     37  C   UNL     1     108.642 132.423 134.612  0.00  0.00    +0.000 C 
ENDBRANCH  33  35
ENDBRANCH  31  33
ENDBRANCH  26  30
ENDBRANCH  21  22
ENDBRANCH  12  21
TORSDOF 7
ENDMDL
MODEL 3
REMARK VINA RESULT:      -9.4      2.319      2.919
REMARK  Name = 
REMARK  7 active torsions:
REMARK  status: ('A' for Active; 'I' for Inactive)
REMARK    1  A    between atoms: C_6  and  C_11
REMARK    2  A    between atoms: C_7  and  C_12
REMARK    3  A    between atoms: C_14  and  O_18
REMARK    4  A    between atoms: O_18  and  C_21
REMARK    5  A    between atoms: C_26  and  N_29
REMARK    6  A    between atoms: C_31  and  C_33
REMARK    7  A    between atoms: C_33  and  C_34
REMARK                            x       y       z     vdW  Elec       q    Type
REMARK                         _______ _______ _______ _____ _____    ______ ____
ROOT
ATOM      1  O   UNL     1     106.046 127.883 147.157  0.00  0.00    +0.000 OA
ATOM      2  C   UNL     1     106.257 127.113 146.951  0.00  0.00    +0.000 C 
ATOM      3  C   UNL     1     106.123 126.841 146.184  0.00  0.00    +0.000 A 
ATOM      4  C   UNL     1     106.601 126.614 147.511  0.00  0.00    +0.000 C 
ATOM      5  C   UNL     1     106.333 126.069 145.977  0.00  0.00    +0.000 A 
ATOM      6  C   UNL     1     105.779 127.338 145.623  0.00  0.00    +0.000 A 
ATOM      7  C   UNL     1     106.811 125.845 147.305  0.00  0.00    +0.000 C 
ATOM      8  O   UNL     1     106.677 125.572 146.538  0.00  0.00    +0.000 OA
ATOM      9  C   UNL     1     106.199 125.797 145.210  0.00  0.00    +0.000 A 
ATOM     10  C   UNL     1     105.645 127.066 144.856  0.00  0.00    +0.000 A 
ATOM     11  O   UNL     1     106.410 125.027 145.004  0.00  0.00    +0.000 OA
ATOM     12  C   UNL     1     105.855 126.296 144.650  0.00  0.00    +0.000 A 
ENDROOT
BRANCH   7  13
ATOM     13  C   UNL     1     107.155 125.346 147.865  0.00  0.00    +0.000 A 
ATOM     14  C   UNL     1     106.682 124.945 148.408  0.00  0.00    +0.000 A 
ATOM     15  C   UNL     1     107.974 125.248 147.882  0.00  0.00    +0.000 A 
ATOM     16  C   UNL     1     107.026 124.446 148.968  0.00  0.00    +0.000 A 
ATOM     17  C   UNL     1     108.320 124.750 148.441  0.00  0.00    +0.000 A 
ATOM     18  C   UNL     1     107.845 124.349 148.985  0.00  0.00    +0.000 A 
ENDBRANCH   7  13
BRANCH   6  19
ATOM     19  C   UNL     1     105.568 128.109 145.830  0.00  0.00    +0.000 C 
ATOM     20  O   UNL     1     104.810 128.388 145.663  0.00  0.00    +0.000 OA
ENDBRANCH   6  19
BRANCH  12  21
ATOM     21  O   UNL     1     105.721 126.023 143.882  0.00  0.00    +0.000 OA
BRANCH  21  22
ATOM     22  C   UNL     1     105.883 126.511 143.237  0.00  0.00    +0.000 C 
ATOM     23  O   UNL     1     105.282 126.969 142.906  0.00  0.00    +0.000 OA
ATOM     24  C   UNL     1     106.645 126.542 142.923  0.00  0.00    +0.000 C 
ATOM     25  C   UNL     1     105.442 127.458 142.261  0.00  0.00    +0.000 C 
ATOM     26  C   UNL     1     106.807 127.031 142.278  0.00  0.00    +0.000 C 
ATOM     27  C   UNL     1     106.205 127.489 141.947  0.00  0.00    +0.000 C 
ATOM     28  C   UNL     1     104.842 127.916 141.930  0.00  0.00    +0.000 C 
ATOM     29  O   UNL     1     106.366 127.978 141.302  0.00  0.00    +0.000 OA
BRANCH  26  30
ATOM     30  N   UNL     1     107.568 127.062 141.964  0.00  0.00    +0.000 NA
ATOM     31  C   UNL     1     107.935 126.372 141.701  0.00  0.00    +0.000 C 
ATOM     32  O   UNL     1     107.539 125.650 141.751  0.00  0.00    +0.000 OA
BRANCH  31  33
ATOM     33  C   UNL     1     108.697 126.403 141.387  0.00  0.00    +0.000 C 
ATOM     34  C   UNL     1     109.198 127.029 141.582  0.00  0.00    +0.000 C 
BRANCH  33  35
ATOM     35  C   UNL     1     108.958 125.808 140.879  0.00  0.00    +0.000 C 
ATOM     36  O   UNL     1     109.254 125.103 141.188  0.00  0.00    +0.000 OA
ATOM     37  C   UNL     1     108.924 125.918 140.062  0.00  0.00    +0.000 C 
ENDBRANCH  33  35
ENDBRANCH  31  33
ENDBRANCH  26  30
ENDBRANCH  21  22
ENDBRANCH  12  21
TORSDOF 7
ENDMDL
MODEL 4
REMARK VINA RESULT:      -9.4      9.115     10.441
REMARK  Name = 
REMARK  7 active torsions:
REMARK  status: ('A' for Active; 'I' for Inactive)
REMARK    1  A    between atoms: C_6  and  C_11
REMARK    2  A    between atoms: C_7  and  C_12
REMARK    3  A    between atoms: C_14  and  O_18
REMARK    4  A    between atoms: O_18  and  C_21
REMARK    5  A    between atoms: C_26  and  N_29
REMARK    6  A    between atoms: C_31  and  C_33
REMARK    7  A    between atoms: C_33  and  C_34
REMARK                            x       y       z     vdW  Elec       q    Type
REMARK                         _______ _______ _______ _____ _____    ______ ____
ROOT
ATOM      1  O   UNL     1     110.921 126.680 134.877  0.00  0.00    +0.000 OA
ATOM      2  C   UNL     1     111.305 126.530 135.591  0.00  0.00    +0.000 C 
ATOM      3  C   UNL     1     111.438 127.145 136.124  0.00  0.00    +0.000 A 
ATOM      4  C   UNL     1     111.558 125.766 135.772  0.00  0.00    +0.000 C 
ATOM      5  C   UNL     1     111.824 126.996 136.839  0.00  0.00    +0.000 A 
ATOM      6  C   UNL     1     111.186 127.910 135.945  0.00  0.00    +0.000 A 
ATOM      7  C   UNL     1     111.943 125.616 136.485  0.00  0.00    +0.000 C 
ATOM      8  O   UNL     1     112.076 126.231 137.019  0.00  0.00    +0.000 OA
ATOM      9  C   UNL     1     111.956 127.611 137.373  0.00  0.00    +0.000 A 
ATOM     10  C   UNL     1     111.319 128.525 136.478  0.00  0.00    +0.000 A 
ATOM     11  O   UNL     1     112.341 127.461 138.086  0.00  0.00    +0.000 OA
ATOM     12  C   UNL     1     111.703 128.375 137.192  0.00  0.00    +0.000 A 
ENDROOT
BRANCH   7  13
ATOM     13  C   UNL     1     112.196 124.852 136.667  0.00  0.00    +0.000 A 
ATOM     14  C   UNL     1     112.981 124.636 136.541  0.00  0.00    +0.000 A 
ATOM     15  C   UNL     1     111.661 124.303 136.974  0.00  0.00    +0.000 A 
ATOM     16  C   UNL     1     113.234 123.872 136.722  0.00  0.00    +0.000 A 
ATOM     17  C   UNL     1     111.913 123.539 137.155  0.00  0.00    +0.000 A 
ATOM     18  C   UNL     1     112.700 123.323 137.029  0.00  0.00    +0.000 A 
ENDBRANCH   7  13
BRANCH   6  19
ATOM     19  C   UNL     1     110.801 128.059 135.230  0.00  0.00    +0.000 C 
ATOM     20  O   UNL     1     110.121 128.527 135.218  0.00  0.00    +0.000 OA
ENDBRANCH   6  19
BRANCH  12  21
ATOM     21  O   UNL     1     111.836 128.991 137.726  0.00  0.00    +0.000 OA
BRANCH  21  22
ATOM     22  C   UNL     1     112.188 129.692 137.468  0.00  0.00    +0.000 C 
ATOM     23  O   UNL     1     113.004 129.725 137.353  0.00  0.00    +0.000 OA
ATOM     24  C   UNL     1     111.724 130.358 137.325  0.00  0.00    +0.000 C 
ATOM     25  C   UNL     1     113.356 130.425 137.096  0.00  0.00    +0.000 C 
ATOM     26  C   UNL     1     112.075 131.059 137.067  0.00  0.00    +0.000 C 
ATOM     27  C   UNL     1     112.891 131.092 136.952  0.00  0.00    +0.000 C 
ATOM     28  C   UNL     1     114.172 130.459 136.981  0.00  0.00    +0.000 C 
ATOM     29  O   UNL     1     113.244 131.792 136.694  0.00  0.00    +0.000 OA
BRANCH  26  30
ATOM     30  N   UNL     1     111.611 131.725 136.924  0.00  0.00    +0.000 NA
ATOM     31  C   UNL     1     111.120 132.022 137.517  0.00  0.00    +0.000 C 
ATOM     32  O   UNL     1     111.094 131.652 138.254  0.00  0.00    +0.000 OA
BRANCH  31  33
ATOM     33  C   UNL     1     110.656 132.688 137.374  0.00  0.00    +0.000 C 
ATOM     34  C   UNL     1     110.814 133.168 136.720  0.00  0.00    +0.000 C 
BRANCH  33  35
ATOM     35  C   UNL     1     110.035 132.875 137.883  0.00  0.00    +0.000 C 
ATOM     36  O   UNL     1     110.176 133.339 138.551  0.00  0.00    +0.000 OA
ATOM     37  C   UNL     1     109.274 132.600 137.725  0.00  0.00    +0.000 C 
ENDBRANCH  33  35
ENDBRANCH  31  33
ENDBRANCH  26  30
ENDBRANCH  21  22
ENDBRANCH  12  21
TORSDOF 7
ENDMDL
MODEL 5
REMARK VINA RESULT:      -9.3      7.948     10.364
REMARK  Name = 
REMARK  7 active torsions:
REMARK  status: ('A' for Active; 'I' for Inactive)
REMARK    1  A    between atoms: C_6  and  C_11
REMARK    2  A    between atoms: C_7  and  C_12
REMARK    3  A    between atoms: C_14  and  O_18
REMARK    4  A    between atoms: O_18  and  C_21
REMARK    5  A    between atoms: C_26  and  N_29
REMARK    6  A    between atoms: C_31  and  C_33
REMARK    7  A    between atoms: C_33  and  C_34
REMARK                            x       y       z     vdW  Elec       q    Type
REMARK                         _______ _______ _______ _____ _____    ______ ____
ROOT
ATOM      1  O   UNL     1     112.122 128.253 136.888  0.00  0.00    +0.000 OA
ATOM      2  C   UNL     1     112.571 127.727 137.337  0.00  0.00    +0.000 C 
ATOM      3  C   UNL     1     112.724 127.889 138.131  0.00  0.00    +0.000 A 
ATOM      4  C   UNL     1     112.867 127.038 136.993  0.00  0.00    +0.000 C 
ATOM      5  C   UNL     1     113.174 127.362 138.581  0.00  0.00    +0.000 A 
ATOM      6  C   UNL     1     112.429 128.577 138.477  0.00  0.00    +0.000 A 
ATOM      7  C   UNL     1     113.316 126.512 137.441  0.00  0.00    +0.000 C 
ATOM      8  O   UNL     1     113.470 126.674 138.235  0.00  0.00    +0.000 OA
ATOM      9  C   UNL     1     113.328 127.525 139.375  0.00  0.00    +0.000 A 
ATOM     10  C   UNL     1     112.583 128.740 139.271  0.00  0.00    +0.000 A 
ATOM     11  O   UNL     1     113.777 126.999 139.823  0.00  0.00    +0.000 OA
ATOM     12  C   UNL     1     113.032 128.214 139.719  0.00  0.00    +0.000 A 
ENDROOT
BRANCH   7  13
ATOM     13  C   UNL     1     113.612 125.823 137.097  0.00  0.00    +0.000 A 
ATOM     14  C   UNL     1     114.365 125.819 136.761  0.00  0.00    +0.000 A 
ATOM     15  C   UNL     1     113.153 125.137 137.088  0.00  0.00    +0.000 A 
ATOM     16  C   UNL     1     114.661 125.130 136.417  0.00  0.00    +0.000 A 
ATOM     17  C   UNL     1     113.448 124.447 136.744  0.00  0.00    +0.000 A 
ATOM     18  C   UNL     1     114.202 124.444 136.408  0.00  0.00    +0.000 A 
ENDBRANCH   7  13
BRANCH   6  19
ATOM     19  C   UNL     1     111.979 129.104 138.027  0.00  0.00    +0.000 C 
ATOM     20  O   UNL     1     111.319 129.470 138.360  0.00  0.00    +0.000 OA
ENDBRANCH   6  19
BRANCH  12  21
ATOM     21  O   UNL     1     113.186 128.376 140.514  0.00  0.00    +0.000 OA
BRANCH  21  22
ATOM     22  C   UNL     1     113.451 129.125 140.738  0.00  0.00    +0.000 C 
ATOM     23  O   UNL     1     114.214 129.368 140.539  0.00  0.00    +0.000 OA
ATOM     24  C   UNL     1     112.955 129.630 141.159  0.00  0.00    +0.000 C 
ATOM     25  C   UNL     1     114.481 130.116 140.762  0.00  0.00    +0.000 C 
ATOM     26  C   UNL     1     113.220 130.379 141.383  0.00  0.00    +0.000 C 
ATOM     27  C   UNL     1     113.983 130.622 141.184  0.00  0.00    +0.000 C 
ATOM     28  C   UNL     1     115.243 130.359 140.564  0.00  0.00    +0.000 C 
ATOM     29  O   UNL     1     114.249 131.370 141.407  0.00  0.00    +0.000 OA
BRANCH  26  30
ATOM     30  N   UNL     1     112.723 130.884 141.804  0.00  0.00    +0.000 NA
ATOM     31  C   UNL     1     112.312 130.605 142.463  0.00  0.00    +0.000 C 
ATOM     32  O   UNL     1     112.397 129.819 142.699  0.00  0.00    +0.000 OA
BRANCH  31  33
ATOM     33  C   UNL     1     111.815 131.110 142.884  0.00  0.00    +0.000 C 
ATOM     34  C   UNL     1     111.197 131.499 142.497  0.00  0.00    +0.000 C 
BRANCH  33  35
ATOM     35  C   UNL     1     111.935 131.227 143.691  0.00  0.00    +0.000 C 
ATOM     36  O   UNL     1     112.407 131.851 143.952  0.00  0.00    +0.000 OA
ATOM     37  C   UNL     1     111.582 130.721 144.239  0.00  0.00    +0.000 C 
ENDBRANCH  33  35
ENDBRANCH  31  33
ENDBRANCH  26  30
ENDBRANCH  21  22
ENDBRANCH  12  21
TORSDOF 7
ENDMDL
MODEL 6
REMARK VINA RESULT:      -9.3      7.896     10.031
REMARK  Name = 
REMARK  7 active torsions:
REMARK  status: ('A' for Active; 'I' for Inactive)
REMARK    1  A    between atoms: C_6  and  C_11
REMARK    2  A    between atoms: C_7  and  C_12
REMARK    3  A    between atoms: C_14  and  O_18
REMARK    4  A    between atoms: O_18  and  C_21
REMARK    5  A    between atoms: C_26  and  N_29
REMARK    6  A    between atoms: C_31  and  C_33
REMARK    7  A    between atoms: C_33  and  C_34
REMARK                            x       y       z     vdW  Elec       q    Type
REMARK                         _______ _______ _______ _____ _____    ______ ____
ROOT
ATOM      1  O   UNL     1     110.857 124.941 135.755  0.00  0.00    +0.000 OA
ATOM      2  C   UNL     1     111.460 125.462 135.968  0.00  0.00    +0.000 C 
ATOM      3  C   UNL     1     111.339 126.276 135.916  0.00  0.00    +0.000 A 
ATOM      4  C   UNL     1     112.185 125.169 136.232  0.00  0.00    +0.000 C 
ATOM      5  C   UNL     1     111.942 126.798 136.129  0.00  0.00    +0.000 A 
ATOM      6  C   UNL     1     110.615 126.570 135.652  0.00  0.00    +0.000 A 
ATOM      7  C   UNL     1     112.788 125.689 136.444  0.00  0.00    +0.000 C 
ATOM      8  O   UNL     1     112.667 126.504 136.393  0.00  0.00    +0.000 OA
ATOM      9  C   UNL     1     111.821 127.612 136.077  0.00  0.00    +0.000 A 
ATOM     10  C   UNL     1     110.493 127.384 135.601  0.00  0.00    +0.000 A 
ATOM     11  O   UNL     1     112.424 128.133 136.289  0.00  0.00    +0.000 OA
ATOM     12  C   UNL     1     111.096 127.905 135.813  0.00  0.00    +0.000 A 
ENDROOT
BRANCH   7  13
ATOM     13  C   UNL     1     113.513 125.397 136.708  0.00  0.00    +0.000 A 
ATOM     14  C   UNL     1     113.641 125.277 137.514  0.00  0.00    +0.000 A 
ATOM     15  C   UNL     1     114.110 125.224 136.166  0.00  0.00    +0.000 A 
ATOM     16  C   UNL     1     114.366 124.984 137.778  0.00  0.00    +0.000 A 
ATOM     17  C   UNL     1     114.835 124.931 136.428  0.00  0.00    +0.000 A 
ATOM     18  C   UNL     1     114.963 124.811 137.235  0.00  0.00    +0.000 A 
ENDBRANCH   7  13
BRANCH   6  19
ATOM     19  C   UNL     1     110.011 126.048 135.440  0.00  0.00    +0.000 C 
ATOM     20  O   UNL     1     109.517 126.227 134.804  0.00  0.00    +0.000 OA
ENDBRANCH   6  19
BRANCH  12  21
ATOM     21  O   UNL     1     110.975 128.720 135.761  0.00  0.00    +0.000 OA
BRANCH  21  22
ATOM     22  C   UNL     1     110.350 129.071 136.170  0.00  0.00    +0.000 C 
ATOM     23  O   UNL     1     109.665 129.291 135.767  0.00  0.00    +0.000 OA
ATOM     24  C   UNL     1     110.409 129.200 136.982  0.00  0.00    +0.000 C 
ATOM     25  C   UNL     1     109.039 129.641 136.174  0.00  0.00    +0.000 C 
ATOM     26  C   UNL     1     109.784 129.550 137.392  0.00  0.00    +0.000 C 
ATOM     27  C   UNL     1     109.099 129.771 136.988  0.00  0.00    +0.000 C 
ATOM     28  C   UNL     1     108.356 129.861 135.771  0.00  0.00    +0.000 C 
ATOM     29  O   UNL     1     108.474 130.121 137.396  0.00  0.00    +0.000 OA
BRANCH  26  30
ATOM     30  N   UNL     1     109.843 129.680 138.204  0.00  0.00    +0.000 NA
ATOM     31  C   UNL     1     110.456 130.143 138.505  0.00  0.00    +0.000 C 
ATOM     32  O   UNL     1     111.011 130.476 137.992  0.00  0.00    +0.000 OA
BRANCH  31  33
ATOM     33  C   UNL     1     110.516 130.273 139.317  0.00  0.00    +0.000 C 
ATOM     34  C   UNL     1     110.656 129.638 139.827  0.00  0.00    +0.000 C 
BRANCH  33  35
ATOM     35  C   UNL     1     110.435 131.035 139.619  0.00  0.00    +0.000 C 
ATOM     36  O   UNL     1     110.854 131.660 139.280  0.00  0.00    +0.000 OA
ATOM     37  C   UNL     1     109.936 131.174 140.262  0.00  0.00    +0.000 C 
ENDBRANCH  33  35
ENDBRANCH  31  33
ENDBRANCH  26  30
ENDBRANCH  21  22
ENDBRANCH  12  21
TORSDOF 7
ENDMDL
MODEL 7
REMARK VINA RESULT:      -9.3      6.222      9.509
REMARK  Name = 
REMARK  7 active torsions:
REMARK  status: ('A' for Active; 'I' for Inactive)
REMARK    1  A    between atoms: C_6  and  C_11
REMARK    2  A    between atoms: C_7  and  C_12
REMARK    3  A    between atoms: C_14  and  O_18
REMARK    4  A    between atoms: O_18  and  C_21
REMARK    5  A    between atoms: C_26  and  N_29
REMARK    6  A    between atoms: C_31  and  C_33
REMARK    7  A    between atoms: C_33  and  C_34
REMARK                            x       y       z     vdW  Elec       q    Type
REMARK                         _______ _______ _______ _____ _____    ______ ____
ROOT
ATOM      1  O   UNL     1     111.176 125.876 138.570  0.00  0.00    +0.000 OA
ATOM      2  C   UNL     1     111.984 126.004 138.667  0.00  0.00    +0.000 C 
ATOM      3  C   UNL     1     112.264 126.377 139.348  0.00  0.00    +0.000 A 
ATOM      4  C   UNL     1     112.514 125.760 138.084  0.00  0.00    +0.000 C 
ATOM      5  C   UNL     1     113.074 126.505 139.446  0.00  0.00    +0.000 A 
ATOM      6  C   UNL     1     111.735 126.622 139.932  0.00  0.00    +0.000 A 
ATOM      7  C   UNL     1     113.323 125.887 138.181  0.00  0.00    +0.000 C 
ATOM      8  O   UNL     1     113.603 126.260 138.862  0.00  0.00    +0.000 OA
ATOM      9  C   UNL     1     113.354 126.878 140.126  0.00  0.00    +0.000 A 
ATOM     10  C   UNL     1     112.015 126.994 140.613  0.00  0.00    +0.000 A 
ATOM     11  O   UNL     1     114.162 127.005 140.223  0.00  0.00    +0.000 OA
ATOM     12  C   UNL     1     112.824 127.122 140.710  0.00  0.00    +0.000 A 
ENDROOT
BRANCH   7  13
ATOM     13  C   UNL     1     113.853 125.643 137.598  0.00  0.00    +0.000 A 
ATOM     14  C   UNL     1     113.973 126.108 136.928  0.00  0.00    +0.000 A 
ATOM     15  C   UNL     1     114.263 124.932 137.685  0.00  0.00    +0.000 A 
ATOM     16  C   UNL     1     114.504 125.864 136.345  0.00  0.00    +0.000 A 
ATOM     17  C   UNL     1     114.793 124.686 137.103  0.00  0.00    +0.000 A 
ATOM     18  C   UNL     1     114.913 125.153 136.432  0.00  0.00    +0.000 A 
ENDBRANCH   7  13
BRANCH   6  19
ATOM     19  C   UNL     1     110.925 126.494 139.834  0.00  0.00    +0.000 C 
ATOM     20  O   UNL     1     110.486 126.152 140.443  0.00  0.00    +0.000 OA
ENDBRANCH   6  19
BRANCH  12  21
ATOM     21  O   UNL     1     113.104 127.495 141.391  0.00  0.00    +0.000 OA
BRANCH  21  22
ATOM     22  C   UNL     1     112.926 128.289 141.529  0.00  0.00    +0.000 C 
ATOM     23  O   UNL     1     113.347 128.880 141.136  0.00  0.00    +0.000 OA
ATOM     24  C   UNL     1     112.328 128.492 142.059  0.00  0.00    +0.000 C 
ATOM     25  C   UNL     1     113.170 129.674 141.273  0.00  0.00    +0.000 C 
ATOM     26  C   UNL     1     112.149 129.286 142.197  0.00  0.00    +0.000 C 
ATOM     27  C   UNL     1     112.570 129.877 141.804  0.00  0.00    +0.000 C 
ATOM     28  C   UNL     1     113.590 130.264 140.881  0.00  0.00    +0.000 C 
ATOM     29  O   UNL     1     112.393 130.671 141.941  0.00  0.00    +0.000 OA
BRANCH  26  30
ATOM     30  N   UNL     1     111.551 129.489 142.726  0.00  0.00    +0.000 NA
ATOM     31  C   UNL     1     111.553 129.177 143.491  0.00  0.00    +0.000 C 
ATOM     32  O   UNL     1     112.153 128.662 143.724  0.00  0.00    +0.000 OA
BRANCH  31  33
ATOM     33  C   UNL     1     110.954 129.380 144.020  0.00  0.00    +0.000 C 
ATOM     34  C   UNL     1     110.180 129.481 143.750  0.00  0.00    +0.000 C 
BRANCH  33  35
ATOM     35  C   UNL     1     111.128 129.483 144.819  0.00  0.00    +0.000 C 
ATOM     36  O   UNL     1     111.232 128.826 145.307  0.00  0.00    +0.000 OA
ATOM     37  C   UNL     1     111.199 130.244 145.132  0.00  0.00    +0.000 C 
ENDBRANCH  33  35
ENDBRANCH  31  33
ENDBRANCH  26  30
ENDBRANCH  21  22
ENDBRANCH  12  21
TORSDOF 7
ENDMDL
MODEL 8
REMARK VINA RESULT:      -9.2      3.107      5.586
REMARK  Name = 
REMARK  7 active torsions:
REMARK  status: ('A' for Active; 'I' for Inactive)
REMARK    1  A    between atoms: C_6  and  C_11
REMARK    2  A    between atoms: C_7  and  C_12
REMARK    3  A    between atoms: C_14  and  O_18
REMARK    4  A    between atoms: O_18  and  C_21
REMARK    5  A    between atoms: C_26  and  N_29
REMARK    6  A    between atoms: C_31  and  C_33
REMARK    7  A    between atoms: C_33  and  C_34
REMARK                            x       y       z     vdW  Elec       q    Type
REMARK                         _______ _______ _______ _____ _____    ______ ____
ROOT
ATOM      1  O   UNL     1     106.494 129.585 144.716  0.00  0.00    +0.000 OA
ATOM      2  C   UNL     1     106.062 129.016 144.305  0.00  0.00    +0.000 C 
ATOM      3  C   UNL     1     106.179 128.215 144.464  0.00  0.00    +0.000 A 
ATOM      4  C   UNL     1     105.514 129.246 143.733  0.00  0.00    +0.000 C 
ATOM      5  C   UNL     1     105.747 127.644 144.052  0.00  0.00    +0.000 A 
ATOM      6  C   UNL     1     106.728 127.983 145.035  0.00  0.00    +0.000 A 
ATOM      7  C   UNL     1     105.082 128.677 143.322  0.00  0.00    +0.000 C 
ATOM      8  O   UNL     1     105.199 127.876 143.482  0.00  0.00    +0.000 OA
ATOM      9  C   UNL     1     105.864 126.843 144.212  0.00  0.00    +0.000 A 
ATOM     10  C   UNL     1     106.844 127.182 145.195  0.00  0.00    +0.000 A 
ATOM     11  O   UNL     1     105.432 126.274 143.801  0.00  0.00    +0.000 OA
ATOM     12  C   UNL     1     106.413 126.613 144.783  0.00  0.00    +0.000 A 
ENDROOT
BRANCH   7  13
ATOM     13  C   UNL     1     104.533 128.907 142.751  0.00  0.00    +0.000 A 
ATOM     14  C   UNL     1     104.566 128.585 141.992  0.00  0.00    +0.000 A 
ATOM     15  C   UNL     1     103.950 129.461 142.938  0.00  0.00    +0.000 A 
ATOM     16  C   UNL     1     104.017 128.816 141.421  0.00  0.00    +0.000 A 
ATOM     17  C   UNL     1     103.401 129.692 142.368  0.00  0.00    +0.000 A 
ATOM     18  C   UNL     1     103.435 129.369 141.609  0.00  0.00    +0.000 A 
ENDBRANCH   7  13
BRANCH   6  19
ATOM     19  C   UNL     1     107.160 128.554 145.447  0.00  0.00    +0.000 C 
ATOM     20  O   UNL     1     107.946 128.408 145.649  0.00  0.00    +0.000 OA
ENDBRANCH   6  19
BRANCH  12  21
ATOM     21  O   UNL     1     106.530 125.811 144.943  0.00  0.00    +0.000 OA
BRANCH  21  22
ATOM     22  C   UNL     1     106.409 125.521 145.706  0.00  0.00    +0.000 C 
ATOM     23  O   UNL     1     107.042 125.467 146.232  0.00  0.00    +0.000 OA
ATOM     24  C   UNL     1     105.655 125.285 145.944  0.00  0.00    +0.000 C 
ATOM     25  C   UNL     1     106.922 125.178 146.995  0.00  0.00    +0.000 C 
ATOM     26  C   UNL     1     105.534 124.995 146.707  0.00  0.00    +0.000 C 
ATOM     27  C   UNL     1     106.168 124.942 147.232  0.00  0.00    +0.000 C 
ATOM     28  C   UNL     1     107.555 125.124 147.520  0.00  0.00    +0.000 C 
ATOM     29  O   UNL     1     106.048 124.652 147.995  0.00  0.00    +0.000 OA
BRANCH  26  30
ATOM     30  N   UNL     1     104.781 124.759 146.944  0.00  0.00    +0.000 NA
ATOM     31  C   UNL     1     104.386 124.162 146.533  0.00  0.00    +0.000 C 
ATOM     32  O   UNL     1     104.746 123.801 145.885  0.00  0.00    +0.000 OA
BRANCH  31  33
ATOM     33  C   UNL     1     103.632 123.927 146.771  0.00  0.00    +0.000 C 
ATOM     34  C   UNL     1     103.406 124.002 147.562  0.00  0.00    +0.000 C 
BRANCH  33  35
ATOM     35  C   UNL     1     103.105 123.615 146.219  0.00  0.00    +0.000 C 
ATOM     36  O   UNL     1     102.630 124.121 145.772  0.00  0.00    +0.000 OA
ATOM     37  C   UNL     1     103.050 122.799 146.114  0.00  0.00    +0.000 C 
ENDBRANCH  33  35
ENDBRANCH  31  33
ENDBRANCH  26  30
ENDBRANCH  21  22
ENDBRANCH  12  21
TORSDOF 7
ENDMDL
MODEL 9
REMARK VINA RESULT:      -9.2      2.405      3.607
REMARK  Name = 
REMARK  7 active torsions:
REMARK  status: ('A' for Active; 'I' for Inactive)
REMARK    1  A    between atoms: C_6  and  C_11
REMARK    2  A    between atoms: C_7  and  C_12
REMARK    3  A    between atoms: C_14  and  O_18
REMARK    4  A    between atoms: O_18  and  C_21
REMARK    5  A    between atoms: C_26  and  N_29
REMARK    6  A    between atoms: C_31  and  C_33
REMARK    7  A    between atoms: C_33  and  C_34
REMARK                            x       y       z     vdW  Elec       q    Type
REMARK                         _______ _______ _______ _____ _____    ______ ____
ROOT
ATOM      1  O   UNL     1     106.299 124.313 144.557  0.00  0.00    +0.000 OA
ATOM      2  C   UNL     1     106.277 124.919 145.115  0.00  0.00    +0.000 C 
ATOM      3  C   UNL     1     106.038 125.677 144.892  0.00  0.00    +0.000 A 
ATOM      4  C   UNL     1     106.495 124.769 145.897  0.00  0.00    +0.000 C 
ATOM      5  C   UNL     1     106.017 126.284 145.451  0.00  0.00    +0.000 A 
ATOM      6  C   UNL     1     105.821 125.828 144.111  0.00  0.00    +0.000 A 
ATOM      7  C   UNL     1     106.473 125.375 146.455  0.00  0.00    +0.000 C 
ATOM      8  O   UNL     1     106.234 126.133 146.232  0.00  0.00    +0.000 OA
ATOM      9  C   UNL     1     105.778 127.042 145.228  0.00  0.00    +0.000 A 
ATOM     10  C   UNL     1     105.582 126.585 143.888  0.00  0.00    +0.000 A 
ATOM     11  O   UNL     1     105.757 127.648 145.786  0.00  0.00    +0.000 OA
ATOM     12  C   UNL     1     105.561 127.191 144.446  0.00  0.00    +0.000 A 
ENDROOT
BRANCH   7  13
ATOM     13  C   UNL     1     106.690 125.226 147.237  0.00  0.00    +0.000 A 
ATOM     14  C   UNL     1     106.117 125.020 147.793  0.00  0.00    +0.000 A 
ATOM     15  C   UNL     1     107.482 125.282 147.463  0.00  0.00    +0.000 A 
ATOM     16  C   UNL     1     106.335 124.870 148.575  0.00  0.00    +0.000 A 
ATOM     17  C   UNL     1     107.701 125.132 148.244  0.00  0.00    +0.000 A 
ATOM     18  C   UNL     1     107.126 124.926 148.800  0.00  0.00    +0.000 A 
ENDBRANCH   7  13
BRANCH   6  19
ATOM     19  C   UNL     1     105.843 125.220 143.552  0.00  0.00    +0.000 C 
ATOM     20  O   UNL     1     105.246 125.160 142.986  0.00  0.00    +0.000 OA
ENDBRANCH   6  19
BRANCH  12  21
ATOM     21  O   UNL     1     105.322 127.950 144.223  0.00  0.00    +0.000 OA
BRANCH  21  22
ATOM     22  C   UNL     1     105.570 128.264 143.501  0.00  0.00    +0.000 C 
ATOM     23  O   UNL     1     106.361 128.471 143.392  0.00  0.00    +0.000 OA
ATOM     24  C   UNL     1     105.028 128.373 142.890  0.00  0.00    +0.000 C 
ATOM     25  C   UNL     1     106.611 128.785 142.672  0.00  0.00    +0.000 C 
ATOM     26  C   UNL     1     105.277 128.687 142.168  0.00  0.00    +0.000 C 
ATOM     27  C   UNL     1     106.068 128.894 142.059  0.00  0.00    +0.000 C 
ATOM     28  C   UNL     1     107.401 128.991 142.563  0.00  0.00    +0.000 C 
ATOM     29  O   UNL     1     106.318 129.208 141.339  0.00  0.00    +0.000 OA
BRANCH  26  30
ATOM     30  N   UNL     1     104.735 128.796 141.557  0.00  0.00    +0.000 NA
ATOM     31  C   UNL     1     104.014 129.170 141.704  0.00  0.00    +0.000 C 
ATOM     32  O   UNL     1     103.836 129.436 142.465  0.00  0.00    +0.000 OA
BRANCH  31  33
ATOM     33  C   UNL     1     103.472 129.278 141.092  0.00  0.00    +0.000 C 
ATOM     34  C   UNL     1     103.271 128.645 140.602  0.00  0.00    +0.000 C 
BRANCH  33  35
ATOM     35  C   UNL     1     103.132 130.019 140.969  0.00  0.00    +0.000 C 
ATOM     36  O   UNL     1     103.572 130.623 140.620  0.00  0.00    +0.000 OA
ATOM     37  C   UNL     1     102.350 130.157 141.195  0.00  0.00    +0.000 C 
ENDBRANCH  33  35
ENDBRANCH  31  33
ENDBRANCH  26  30
ENDBRANCH  21  22
ENDBRANCH  12  21
TORSDOF 7
ENDMDL
MODEL 10
REMARK VINA RESULT:      -9.1      8.841     10.816
REMARK  Name = 
REMARK  7 active torsions:
REMARK  status: ('A' for Active; 'I' for Inactive)
REMARK    1  A    between atoms: C_6  and  C_11
REMARK    2  A    between atoms: C_7  and  C_12
REMARK    3  A    between atoms: C_14  and  O_18
REMARK    4  A    between atoms: O_18  and  C_21
REMARK    5  A    between atoms: C_26  and  N_29
REMARK    6  A    between atoms: C_31  and  C_33
REMARK    7  A    between atoms: C_33  and  C_34
REMARK                            x       y       z     vdW  Elec       q    Type
REMARK                         _______ _______ _______ _____ _____    ______ ____
ROOT
ATOM      1  O   UNL     1     110.442 126.770 135.195  0.00  0.00    +0.000 OA
ATOM      2  C   UNL     1     111.121 126.637 135.643  0.00  0.00    +0.000 C 
ATOM      3  C   UNL     1     111.597 127.271 135.869  0.00  0.00    +0.000 A 
ATOM      4  C   UNL     1     111.325 125.869 135.867  0.00  0.00    +0.000 C 
ATOM      5  C   UNL     1     112.277 127.138 136.319  0.00  0.00    +0.000 A 
ATOM      6  C   UNL     1     111.395 128.039 135.646  0.00  0.00    +0.000 A 
ATOM      7  C   UNL     1     112.003 125.736 136.316  0.00  0.00    +0.000 C 
ATOM      8  O   UNL     1     112.479 126.371 136.542  0.00  0.00    +0.000 OA
ATOM      9  C   UNL     1     112.753 127.773 136.545  0.00  0.00    +0.000 A 
ATOM     10  C   UNL     1     111.871 128.674 135.872  0.00  0.00    +0.000 A 
ATOM     11  O   UNL     1     113.431 127.640 136.993  0.00  0.00    +0.000 OA
ATOM     12  C   UNL     1     112.549 128.541 136.321  0.00  0.00    +0.000 A 
ENDROOT
BRANCH   7  13
ATOM     13  C   UNL     1     112.207 124.968 136.540  0.00  0.00    +0.000 A 
ATOM     14  C   UNL     1     111.711 124.538 137.038  0.00  0.00    +0.000 A 
ATOM     15  C   UNL     1     112.908 124.631 136.264  0.00  0.00    +0.000 A 
ATOM     16  C   UNL     1     111.914 123.770 137.262  0.00  0.00    +0.000 A 
ATOM     17  C   UNL     1     113.112 123.864 136.487  0.00  0.00    +0.000 A 
ATOM     18  C   UNL     1     112.615 123.433 136.986  0.00  0.00    +0.000 A 
ENDBRANCH   7  13
BRANCH   6  19
ATOM     19  C   UNL     1     110.715 128.172 135.197  0.00  0.00    +0.000 C 
ATOM     20  O   UNL     1     110.715 128.754 134.612  0.00  0.00    +0.000 OA
ENDBRANCH   6  19
BRANCH  12  21
ATOM     21  O   UNL     1     113.026 129.177 136.547  0.00  0.00    +0.000 OA
BRANCH  21  22
ATOM     22  C   UNL     1     112.748 129.725 137.097  0.00  0.00    +0.000 C 
ATOM     23  O   UNL     1     112.243 130.332 136.855  0.00  0.00    +0.000 OA
ATOM     24  C   UNL     1     112.973 129.667 137.888  0.00  0.00    +0.000 C 
ATOM     25  C   UNL     1     111.964 130.880 137.404  0.00  0.00    +0.000 C 
ATOM     26  C   UNL     1     112.695 130.216 138.438  0.00  0.00    +0.000 C 
ATOM     27  C   UNL     1     112.190 130.822 138.196  0.00  0.00    +0.000 C 
ATOM     28  C   UNL     1     111.461 131.486 137.163  0.00  0.00    +0.000 C 
ATOM     29  O   UNL     1     111.912 131.371 138.745  0.00  0.00    +0.000 OA
BRANCH  26  30
ATOM     30  N   UNL     1     112.920 130.158 139.229  0.00  0.00    +0.000 NA
ATOM     31  C   UNL     1     113.718 130.197 139.435  0.00  0.00    +0.000 C 
ATOM     32  O   UNL     1     114.291 130.293 138.849  0.00  0.00    +0.000 OA
BRANCH  31  33
ATOM     33  C   UNL     1     113.944 130.139 140.226  0.00  0.00    +0.000 C 
ATOM     34  C   UNL     1     113.527 129.644 140.739  0.00  0.00    +0.000 C 
BRANCH  33  35
ATOM     35  C   UNL     1     114.585 130.576 140.505  0.00  0.00    +0.000 C 
ATOM     36  O   UNL     1     114.483 131.365 140.723  0.00  0.00    +0.000 OA
ATOM     37  C   UNL     1     115.329 130.224 140.567  0.00  0.00    +0.000 C 
ENDBRANCH  33  35
ENDBRANCH  31  33
ENDBRANCH  26  30
ENDBRANCH  21  22
ENDBRANCH  12  21
TORSDOF 7
ENDMDL
