MODEL 1
REMARK VINA RESULT:      -8.2      0.000      0.000
REMARK  Name = 42607881
REMARK  4 active torsions:
REMARK  status: ('A' for Active; 'I' for Inactive)
REMARK    1  A    between atoms: O_2  and  C_12
REMARK    2  A    between atoms: O_3  and  C_15
REMARK    3  A    between atoms: C_6  and  C_13
REMARK    4  A    between atoms: C_14  and  C_17
REMARK                            x       y       z     vdW  Elec       q    Type
REMARK                         _______ _______ _______ _____ _____    ______ ____
ROOT
ATOM      1  O   UNL     1     112.607 126.641 136.368  0.00  0.00    +0.000 OA
ATOM      2  O   UNL     1     110.769 125.006 135.768  0.00  0.00    +0.000 OA
ATOM      3  C   UNL     1     112.735 125.799 136.489  0.00  0.00    +0.000 C 
ATOM      4  C   UNL     1     112.113 125.242 136.286  0.00  0.00    +0.000 C 
ATOM      5  C   UNL     1     111.261 126.378 135.851  0.00  0.00    +0.000 A 
ATOM      6  C   UNL     1     111.859 126.913 136.046  0.00  0.00    +0.000 A 
ATOM      7  C   UNL     1     111.371 125.534 135.965  0.00  0.00    +0.000 C 
ATOM      8  C   UNL     1     111.742 127.722 135.931  0.00  0.00    +0.000 A 
ATOM      9  C   UNL     1     110.547 126.653 135.542  0.00  0.00    +0.000 A 
ATOM     10  C   UNL     1     110.430 127.460 135.428  0.00  0.00    +0.000 A 
ATOM     11  C   UNL     1     111.027 127.995 135.622  0.00  0.00    +0.000 A 
ATOM     12  C   UNL     1     112.339 128.257 136.126  0.00  0.00    +0.000 C 
ENDROOT
BRANCH   3  13
ATOM     13  C   UNL     1     113.451 125.529 136.799  0.00  0.00    +0.000 A 
ATOM     14  C   UNL     1     114.043 125.256 136.293  0.00  0.00    +0.000 A 
ATOM     15  C   UNL     1     113.574 125.531 137.614  0.00  0.00    +0.000 A 
ATOM     16  C   UNL     1     114.758 124.986 136.603  0.00  0.00    +0.000 A 
ATOM     17  C   UNL     1     114.290 125.261 137.924  0.00  0.00    +0.000 A 
ATOM     18  C   UNL     1     114.882 124.989 137.418  0.00  0.00    +0.000 A 
ENDBRANCH   3  13
BRANCH   9  19
ATOM     19  O   UNL     1     109.950 126.118 135.347  0.00  0.00    +0.000 OA
ATOM     20  C   UNL     1     109.956 125.742 134.613  0.00  0.00    +0.000 C 
ENDBRANCH   9  19
BRANCH  11  21
ATOM     21  O   UNL     1     110.911 128.804 135.508  0.00  0.00    +0.000 OA
ATOM     22  C   UNL     1     111.343 129.207 134.933  0.00  0.00    +0.000 C 
ENDBRANCH  11  21
BRANCH  10  24
ATOM     23  O   UNL     1     109.098 127.939 135.626  0.00  0.00    +0.000 OA
ATOM     24  C   UNL     1     109.716 127.734 135.119  0.00  0.00    +0.000 C 
ENDBRANCH  10  24
TORSDOF 4
ENDMDL
MODEL 2
REMARK VINA RESULT:      -8.2     13.257     13.800
REMARK  Name = 42607881
REMARK  4 active torsions:
REMARK  status: ('A' for Active; 'I' for Inactive)
REMARK    1  A    between atoms: O_2  and  C_12
REMARK    2  A    between atoms: O_3  and  C_15
REMARK    3  A    between atoms: C_6  and  C_13
REMARK    4  A    between atoms: C_14  and  C_17
REMARK                            x       y       z     vdW  Elec       q    Type
REMARK                         _______ _______ _______ _____ _____    ______ ____
ROOT
ATOM      1  O   UNL     1     105.294 124.390 147.073  0.00  0.00    +0.000 OA
ATOM      2  O   UNL     1     103.671 124.910 148.944  0.00  0.00    +0.000 OA
ATOM      3  C   UNL     1     105.593 124.708 147.813  0.00  0.00    +0.000 C 
ATOM      4  C   UNL     1     105.045 124.886 148.450  0.00  0.00    +0.000 C 
ATOM      5  C   UNL     1     103.925 124.424 147.591  0.00  0.00    +0.000 A 
ATOM      6  C   UNL     1     104.451 124.253 146.979  0.00  0.00    +0.000 A 
ATOM      7  C   UNL     1     104.204 124.742 148.338  0.00  0.00    +0.000 C 
ATOM      8  C   UNL     1     104.171 123.947 146.266  0.00  0.00    +0.000 A 
ATOM      9  C   UNL     1     103.117 124.288 147.489  0.00  0.00    +0.000 A 
ATOM     10  C   UNL     1     102.836 123.983 146.777  0.00  0.00    +0.000 A 
ATOM     11  C   UNL     1     103.363 123.812 146.165  0.00  0.00    +0.000 A 
ATOM     12  C   UNL     1     104.697 123.777 145.654  0.00  0.00    +0.000 C 
ENDROOT
BRANCH   3  13
ATOM     13  C   UNL     1     106.402 124.842 147.911  0.00  0.00    +0.000 A 
ATOM     14  C   UNL     1     106.793 125.381 147.425  0.00  0.00    +0.000 A 
ATOM     15  C   UNL     1     106.819 124.436 148.496  0.00  0.00    +0.000 A 
ATOM     16  C   UNL     1     107.601 125.515 147.523  0.00  0.00    +0.000 A 
ATOM     17  C   UNL     1     107.627 124.569 148.595  0.00  0.00    +0.000 A 
ATOM     18  C   UNL     1     108.018 125.109 148.108  0.00  0.00    +0.000 A 
ENDBRANCH   3  13
BRANCH   9  19
ATOM     19  O   UNL     1     102.590 124.459 148.101  0.00  0.00    +0.000 OA
ATOM     20  C   UNL     1     102.470 123.912 148.706  0.00  0.00    +0.000 C 
ENDBRANCH   9  19
BRANCH  11  21
ATOM     21  O   UNL     1     103.083 123.507 145.452  0.00  0.00    +0.000 OA
ATOM     22  C   UNL     1     103.287 122.741 145.222  0.00  0.00    +0.000 C 
ENDBRANCH  11  21
BRANCH  10  24
ATOM     23  O   UNL     1     101.555 124.423 146.320  0.00  0.00    +0.000 OA
ATOM     24  C   UNL     1     102.029 123.848 146.675  0.00  0.00    +0.000 C 
ENDBRANCH  10  24
TORSDOF 4
ENDMDL
MODEL 3
REMARK VINA RESULT:      -8.1     13.503     14.062
REMARK  Name = 42607881
REMARK  4 active torsions:
REMARK  status: ('A' for Active; 'I' for Inactive)
REMARK    1  A    between atoms: O_2  and  C_12
REMARK    2  A    between atoms: O_3  and  C_15
REMARK    3  A    between atoms: C_6  and  C_13
REMARK    4  A    between atoms: C_14  and  C_17
REMARK                            x       y       z     vdW  Elec       q    Type
REMARK                         _______ _______ _______ _____ _____    ______ ____
ROOT
ATOM      1  O   UNL     1     104.024 124.404 147.733  0.00  0.00    +0.000 OA
ATOM      2  O   UNL     1     104.523 123.938 145.295  0.00  0.00    +0.000 OA
ATOM      3  C   UNL     1     104.793 124.615 147.413  0.00  0.00    +0.000 C 
ATOM      4  C   UNL     1     104.965 124.458 146.586  0.00  0.00    +0.000 C 
ATOM      5  C   UNL     1     103.603 123.889 146.428  0.00  0.00    +0.000 A 
ATOM      6  C   UNL     1     103.437 124.040 147.222  0.00  0.00    +0.000 A 
ATOM      7  C   UNL     1     104.366 124.092 146.090  0.00  0.00    +0.000 C 
ATOM      8  C   UNL     1     102.700 123.840 147.536  0.00  0.00    +0.000 A 
ATOM      9  C   UNL     1     103.031 123.539 145.948  0.00  0.00    +0.000 A 
ATOM     10  C   UNL     1     102.295 123.339 146.260  0.00  0.00    +0.000 A 
ATOM     11  C   UNL     1     102.129 123.490 147.054  0.00  0.00    +0.000 A 
ATOM     12  C   UNL     1     102.535 123.991 148.330  0.00  0.00    +0.000 C 
ENDROOT
BRANCH   3  13
ATOM     13  C   UNL     1     105.363 124.966 147.897  0.00  0.00    +0.000 A 
ATOM     14  C   UNL     1     105.348 125.780 148.029  0.00  0.00    +0.000 A 
ATOM     15  C   UNL     1     105.947 124.501 148.248  0.00  0.00    +0.000 A 
ATOM     16  C   UNL     1     105.917 126.129 148.513  0.00  0.00    +0.000 A 
ATOM     17  C   UNL     1     106.516 124.851 148.732  0.00  0.00    +0.000 A 
ATOM     18  C   UNL     1     106.502 125.665 148.864  0.00  0.00    +0.000 A 
ENDBRANCH   3  13
BRANCH   9  19
ATOM     19  O   UNL     1     103.196 123.388 145.153  0.00  0.00    +0.000 OA
ATOM     20  C   UNL     1     103.662 122.740 144.944  0.00  0.00    +0.000 C 
ENDBRANCH   9  19
BRANCH  11  21
ATOM     21  O   UNL     1     101.393 123.290 147.368  0.00  0.00    +0.000 OA
ATOM     22  C   UNL     1     101.340 122.739 147.980  0.00  0.00    +0.000 C 
ENDBRANCH  11  21
BRANCH  10  24
ATOM     23  O   UNL     1     101.196 123.459 145.355  0.00  0.00    +0.000 OA
ATOM     24  C   UNL     1     101.723 122.989 145.780  0.00  0.00    +0.000 C 
ENDBRANCH  10  24
TORSDOF 4
ENDMDL
MODEL 4
REMARK VINA RESULT:      -8.1      0.634      2.047
REMARK  Name = 42607881
REMARK  4 active torsions:
REMARK  status: ('A' for Active; 'I' for Inactive)
REMARK    1  A    between atoms: O_2  and  C_12
REMARK    2  A    between atoms: O_3  and  C_15
REMARK    3  A    between atoms: C_6  and  C_13
REMARK    4  A    between atoms: C_14  and  C_17
REMARK                            x       y       z     vdW  Elec       q    Type
REMARK                         _______ _______ _______ _____ _____    ______ ____
ROOT
ATOM      1  O   UNL     1     112.369 126.015 136.286  0.00  0.00    +0.000 OA
ATOM      2  O   UNL     1     112.795 128.498 136.024  0.00  0.00    +0.000 OA
ATOM      3  C   UNL     1     113.128 126.340 136.525  0.00  0.00    +0.000 C 
ATOM      4  C   UNL     1     113.275 127.182 136.437  0.00  0.00    +0.000 C 
ATOM      5  C   UNL     1     111.909 127.345 135.878  0.00  0.00    +0.000 A 
ATOM      6  C   UNL     1     111.768 126.537 135.962  0.00  0.00    +0.000 A 
ATOM      7  C   UNL     1     112.661 127.688 136.111  0.00  0.00    +0.000 C 
ATOM      8  C   UNL     1     111.041 126.219 135.734  0.00  0.00    +0.000 A 
ATOM      9  C   UNL     1     111.324 127.836 135.566  0.00  0.00    +0.000 A 
ATOM     10  C   UNL     1     110.598 127.519 135.338  0.00  0.00    +0.000 A 
ATOM     11  C   UNL     1     110.456 126.710 135.423  0.00  0.00    +0.000 A 
ATOM     12  C   UNL     1     110.899 125.411 135.819  0.00  0.00    +0.000 C 
ENDROOT
BRANCH   3  13
ATOM     13  C   UNL     1     113.711 125.846 136.837  0.00  0.00    +0.000 A 
ATOM     14  C   UNL     1     113.782 125.755 137.654  0.00  0.00    +0.000 A 
ATOM     15  C   UNL     1     114.223 125.443 136.331  0.00  0.00    +0.000 A 
ATOM     16  C   UNL     1     114.365 125.261 137.965  0.00  0.00    +0.000 A 
ATOM     17  C   UNL     1     114.806 124.949 136.642  0.00  0.00    +0.000 A 
ATOM     18  C   UNL     1     114.877 124.858 137.458  0.00  0.00    +0.000 A 
ENDBRANCH   3  13
BRANCH   9  19
ATOM     19  O   UNL     1     111.465 128.644 135.482  0.00  0.00    +0.000 OA
ATOM     20  C   UNL     1     111.870 128.926 134.820  0.00  0.00    +0.000 C 
ENDBRANCH   9  19
BRANCH  11  21
ATOM     21  O   UNL     1     109.730 126.392 135.195  0.00  0.00    +0.000 OA
ATOM     22  C   UNL     1     109.699 125.809 134.612  0.00  0.00    +0.000 C 
ENDBRANCH  11  21
BRANCH  10  24
ATOM     23  O   UNL     1     109.436 128.330 135.521  0.00  0.00    +0.000 OA
ATOM     24  C   UNL     1     110.013 128.009 135.027  0.00  0.00    +0.000 C 
ENDBRANCH  10  24
TORSDOF 4
ENDMDL
MODEL 5
REMARK VINA RESULT:      -8.0     12.533     13.368
REMARK  Name = 42607881
REMARK  4 active torsions:
REMARK  status: ('A' for Active; 'I' for Inactive)
REMARK    1  A    between atoms: O_2  and  C_12
REMARK    2  A    between atoms: O_3  and  C_15
REMARK    3  A    between atoms: C_6  and  C_13
REMARK    4  A    between atoms: C_14  and  C_17
REMARK                            x       y       z     vdW  Elec       q    Type
REMARK                         _______ _______ _______ _____ _____    ______ ____
ROOT
ATOM      1  O   UNL     1     104.795 124.217 147.211  0.00  0.00    +0.000 OA
ATOM      2  O   UNL     1     105.952 125.318 145.246  0.00  0.00    +0.000 OA
ATOM      3  C   UNL     1     104.406 124.227 146.445  0.00  0.00    +0.000 C 
ATOM      4  C   UNL     1     104.796 124.600 145.776  0.00  0.00    +0.000 C 
ATOM      5  C   UNL     1     105.943 124.937 146.656  0.00  0.00    +0.000 A 
ATOM      6  C   UNL     1     105.569 124.579 147.298  0.00  0.00    +0.000 A 
ATOM      7  C   UNL     1     105.570 124.958 145.883  0.00  0.00    +0.000 C 
ATOM      8  C   UNL     1     105.938 124.566 148.037  0.00  0.00    +0.000 A 
ATOM      9  C   UNL     1     106.687 125.282 146.753  0.00  0.00    +0.000 A 
ATOM     10  C   UNL     1     107.055 125.269 147.490  0.00  0.00    +0.000 A 
ATOM     11  C   UNL     1     106.681 124.911 148.132  0.00  0.00    +0.000 A 
ATOM     12  C   UNL     1     105.563 124.208 148.679  0.00  0.00    +0.000 C 
ENDROOT
BRANCH   3  13
ATOM     13  C   UNL     1     103.662 123.881 146.352  0.00  0.00    +0.000 A 
ATOM     14  C   UNL     1     102.987 124.275 146.617  0.00  0.00    +0.000 A 
ATOM     15  C   UNL     1     103.594 123.140 145.996  0.00  0.00    +0.000 A 
ATOM     16  C   UNL     1     102.244 123.928 146.524  0.00  0.00    +0.000 A 
ATOM     17  C   UNL     1     102.851 122.793 145.903  0.00  0.00    +0.000 A 
ATOM     18  C   UNL     1     102.176 123.188 146.167  0.00  0.00    +0.000 A 
ENDBRANCH   3  13
BRANCH   9  19
ATOM     19  O   UNL     1     107.061 125.641 146.111  0.00  0.00    +0.000 OA
ATOM     20  C   UNL     1     106.840 126.399 145.874  0.00  0.00    +0.000 C 
ENDBRANCH   9  19
BRANCH  11  21
ATOM     21  O   UNL     1     107.049 124.898 148.870  0.00  0.00    +0.000 OA
ATOM     22  C   UNL     1     106.696 125.272 149.515  0.00  0.00    +0.000 C 
ENDBRANCH  11  21
BRANCH  10  24
ATOM     23  O   UNL     1     108.480 125.155 147.510  0.00  0.00    +0.000 OA
ATOM     24  C   UNL     1     107.798 125.614 147.586  0.00  0.00    +0.000 C 
ENDBRANCH  10  24
TORSDOF 4
ENDMDL
MODEL 6
REMARK VINA RESULT:      -7.9      3.010      4.030
REMARK  Name = 42607881
REMARK  4 active torsions:
REMARK  status: ('A' for Active; 'I' for Inactive)
REMARK    1  A    between atoms: O_2  and  C_12
REMARK    2  A    between atoms: O_3  and  C_15
REMARK    3  A    between atoms: C_6  and  C_13
REMARK    4  A    between atoms: C_14  and  C_17
REMARK                            x       y       z     vdW  Elec       q    Type
REMARK                         _______ _______ _______ _____ _____    ______ ____
ROOT
ATOM      1  O   UNL     1     113.429 126.271 138.855  0.00  0.00    +0.000 OA
ATOM      2  O   UNL     1     110.987 125.702 138.500  0.00  0.00    +0.000 OA
ATOM      3  C   UNL     1     113.191 125.866 138.135  0.00  0.00    +0.000 C 
ATOM      4  C   UNL     1     112.363 125.672 138.012  0.00  0.00    +0.000 C 
ATOM      5  C   UNL     1     112.041 126.289 139.323  0.00  0.00    +0.000 A 
ATOM      6  C   UNL     1     112.835 126.476 139.441  0.00  0.00    +0.000 A 
ATOM      7  C   UNL     1     111.784 125.885 138.610  0.00  0.00    +0.000 C 
ATOM      8  C   UNL     1     113.070 126.865 140.131  0.00  0.00    +0.000 A 
ATOM      9  C   UNL     1     111.481 126.492 139.894  0.00  0.00    +0.000 A 
ATOM     10  C   UNL     1     111.714 126.880 140.583  0.00  0.00    +0.000 A 
ATOM     11  C   UNL     1     112.509 127.067 140.701  0.00  0.00    +0.000 A 
ATOM     12  C   UNL     1     113.865 127.052 140.249  0.00  0.00    +0.000 C 
ENDROOT
BRANCH   3  13
ATOM     13  C   UNL     1     113.754 125.666 137.566  0.00  0.00    +0.000 A 
ATOM     14  C   UNL     1     114.188 124.968 137.642  0.00  0.00    +0.000 A 
ATOM     15  C   UNL     1     113.884 126.164 136.921  0.00  0.00    +0.000 A 
ATOM     16  C   UNL     1     114.751 124.769 137.073  0.00  0.00    +0.000 A 
ATOM     17  C   UNL     1     114.447 125.964 136.352  0.00  0.00    +0.000 A 
ATOM     18  C   UNL     1     114.880 125.266 136.428  0.00  0.00    +0.000 A 
ENDBRANCH   3  13
BRANCH   9  19
ATOM     19  O   UNL     1     110.686 126.305 139.776  0.00  0.00    +0.000 OA
ATOM     20  C   UNL     1     110.212 126.792 139.308  0.00  0.00    +0.000 C 
ENDBRANCH   9  19
BRANCH  11  21
ATOM     21  O   UNL     1     112.744 127.456 141.390  0.00  0.00    +0.000 OA
ATOM     22  C   UNL     1     112.975 128.247 141.359  0.00  0.00    +0.000 C 
ENDBRANCH  11  21
BRANCH  10  24
ATOM     23  O   UNL     1     110.968 126.550 141.756  0.00  0.00    +0.000 OA
ATOM     24  C   UNL     1     111.155 127.082 141.153  0.00  0.00    +0.000 C 
ENDBRANCH  10  24
TORSDOF 4
ENDMDL
MODEL 7
REMARK VINA RESULT:      -7.9      2.469      3.892
REMARK  Name = 42607881
REMARK  4 active torsions:
REMARK  status: ('A' for Active; 'I' for Inactive)
REMARK    1  A    between atoms: O_2  and  C_12
REMARK    2  A    between atoms: O_3  and  C_15
REMARK    3  A    between atoms: C_6  and  C_13
REMARK    4  A    between atoms: C_14  and  C_17
REMARK                            x       y       z     vdW  Elec       q    Type
REMARK                         _______ _______ _______ _____ _____    ______ ____
ROOT
ATOM      1  O   UNL     1     113.627 126.228 138.721  0.00  0.00    +0.000 OA
ATOM      2  O   UNL     1     111.106 125.993 138.754  0.00  0.00    +0.000 OA
ATOM      3  C   UNL     1     113.167 126.697 139.276  0.00  0.00    +0.000 C 
ATOM      4  C   UNL     1     112.312 126.620 139.289  0.00  0.00    +0.000 C 
ATOM      5  C   UNL     1     112.404 125.613 138.201  0.00  0.00    +0.000 A 
ATOM      6  C   UNL     1     113.225 125.688 138.188  0.00  0.00    +0.000 A 
ATOM      7  C   UNL     1     111.927 126.073 138.748  0.00  0.00    +0.000 C 
ATOM      8  C   UNL     1     113.672 125.241 137.657  0.00  0.00    +0.000 A 
ATOM      9  C   UNL     1     112.029 125.091 137.683  0.00  0.00    +0.000 A 
ATOM     10  C   UNL     1     112.476 124.644 137.153  0.00  0.00    +0.000 A 
ATOM     11  C   UNL     1     113.297 124.719 137.141  0.00  0.00    +0.000 A 
ATOM     12  C   UNL     1     114.494 125.315 137.644  0.00  0.00    +0.000 C 
ENDROOT
BRANCH   3  13
ATOM     13  C   UNL     1     113.546 127.219 139.792  0.00  0.00    +0.000 A 
ATOM     14  C   UNL     1     113.500 128.033 139.664  0.00  0.00    +0.000 A 
ATOM     15  C   UNL     1     113.970 126.926 140.436  0.00  0.00    +0.000 A 
ATOM     16  C   UNL     1     113.878 128.553 140.180  0.00  0.00    +0.000 A 
ATOM     17  C   UNL     1     114.348 127.446 140.952  0.00  0.00    +0.000 A 
ATOM     18  C   UNL     1     114.302 128.260 140.824  0.00  0.00    +0.000 A 
ENDBRANCH   3  13
BRANCH   9  19
ATOM     19  O   UNL     1     111.208 125.016 137.696  0.00  0.00    +0.000 OA
ATOM     20  C   UNL     1     110.737 125.561 137.294  0.00  0.00    +0.000 C 
ENDBRANCH   9  19
BRANCH  11  21
ATOM     21  O   UNL     1     113.744 124.272 136.611  0.00  0.00    +0.000 OA
ATOM     22  C   UNL     1     114.220 124.648 136.052  0.00  0.00    +0.000 C 
ENDBRANCH  11  21
BRANCH  10  24
ATOM     23  O   UNL     1     111.979 123.337 136.859  0.00  0.00    +0.000 OA
ATOM     24  C   UNL     1     112.101 124.122 136.637  0.00  0.00    +0.000 C 
ENDBRANCH  10  24
TORSDOF 4
ENDMDL
MODEL 8
REMARK VINA RESULT:      -7.9      1.421      3.439
REMARK  Name = 42607881
REMARK  4 active torsions:
REMARK  status: ('A' for Active; 'I' for Inactive)
REMARK    1  A    between atoms: O_2  and  C_12
REMARK    2  A    between atoms: O_3  and  C_15
REMARK    3  A    between atoms: C_6  and  C_13
REMARK    4  A    between atoms: C_14  and  C_17
REMARK                            x       y       z     vdW  Elec       q    Type
REMARK                         _______ _______ _______ _____ _____    ______ ____
ROOT
ATOM      1  O   UNL     1     112.654 127.526 136.045  0.00  0.00    +0.000 OA
ATOM      2  O   UNL     1     114.264 125.825 137.006  0.00  0.00    +0.000 OA
ATOM      3  C   UNL     1     113.460 127.764 136.226  0.00  0.00    +0.000 C 
ATOM      4  C   UNL     1     114.008 127.189 136.552  0.00  0.00    +0.000 C 
ATOM      5  C   UNL     1     112.935 126.164 136.505  0.00  0.00    +0.000 A 
ATOM      6  C   UNL     1     112.408 126.716 136.192  0.00  0.00    +0.000 A 
ATOM      7  C   UNL     1     113.744 126.383 136.693  0.00  0.00    +0.000 C 
ATOM      8  C   UNL     1     111.633 126.493 136.015  0.00  0.00    +0.000 A 
ATOM      9  C   UNL     1     112.687 125.389 136.641  0.00  0.00    +0.000 A 
ATOM     10  C   UNL     1     111.913 125.166 136.465  0.00  0.00    +0.000 A 
ATOM     11  C   UNL     1     111.386 125.718 136.152  0.00  0.00    +0.000 A 
ATOM     12  C   UNL     1     111.106 127.045 135.702  0.00  0.00    +0.000 C 
ENDROOT
BRANCH   3  13
ATOM     13  C   UNL     1     113.704 128.541 136.088  0.00  0.00    +0.000 A 
ATOM     14  C   UNL     1     113.563 129.125 136.653  0.00  0.00    +0.000 A 
ATOM     15  C   UNL     1     114.090 128.732 135.384  0.00  0.00    +0.000 A 
ATOM     16  C   UNL     1     113.807 129.901 136.514  0.00  0.00    +0.000 A 
ATOM     17  C   UNL     1     114.334 129.507 135.245  0.00  0.00    +0.000 A 
ATOM     18  C   UNL     1     114.193 130.092 135.810  0.00  0.00    +0.000 A 
ENDBRANCH   3  13
BRANCH   9  19
ATOM     19  O   UNL     1     113.214 124.837 136.955  0.00  0.00    +0.000 OA
ATOM     20  C   UNL     1     113.747 124.448 136.460  0.00  0.00    +0.000 C 
ENDBRANCH   9  19
BRANCH  11  21
ATOM     21  O   UNL     1     110.612 125.496 135.975  0.00  0.00    +0.000 OA
ATOM     22  C   UNL     1     110.356 125.475 135.191  0.00  0.00    +0.000 C 
ENDBRANCH  11  21
BRANCH  10  24
ATOM     23  O   UNL     1     111.380 124.174 137.345  0.00  0.00    +0.000 OA
ATOM     24  C   UNL     1     111.665 124.392 136.602  0.00  0.00    +0.000 C 
ENDBRANCH  10  24
TORSDOF 4
ENDMDL
MODEL 9
REMARK VINA RESULT:      -7.9     12.650     13.395
REMARK  Name = 42607881
REMARK  4 active torsions:
REMARK  status: ('A' for Active; 'I' for Inactive)
REMARK    1  A    between atoms: O_2  and  C_12
REMARK    2  A    between atoms: O_3  and  C_15
REMARK    3  A    between atoms: C_6  and  C_13
REMARK    4  A    between atoms: C_14  and  C_17
REMARK                            x       y       z     vdW  Elec       q    Type
REMARK                         _______ _______ _______ _____ _____    ______ ____
ROOT
ATOM      1  O   UNL     1     104.164 124.409 146.039  0.00  0.00    +0.000 OA
ATOM      2  O   UNL     1     104.842 124.579 148.473  0.00  0.00    +0.000 OA
ATOM      3  C   UNL     1     103.623 124.131 146.648  0.00  0.00    +0.000 C 
ATOM      4  C   UNL     1     103.851 124.188 147.474  0.00  0.00    +0.000 C 
ATOM      5  C   UNL     1     105.142 124.792 147.060  0.00  0.00    +0.000 A 
ATOM      6  C   UNL     1     104.924 124.738 146.266  0.00  0.00    +0.000 A 
ATOM      7  C   UNL     1     104.616 124.521 147.682  0.00  0.00    +0.000 C 
ATOM      8  C   UNL     1     105.438 125.003 145.677  0.00  0.00    +0.000 A 
ATOM      9  C   UNL     1     105.875 125.111 147.264  0.00  0.00    +0.000 A 
ATOM     10  C   UNL     1     106.389 125.375 146.676  0.00  0.00    +0.000 A 
ATOM     11  C   UNL     1     106.171 125.321 145.883  0.00  0.00    +0.000 A 
ATOM     12  C   UNL     1     105.220 124.949 144.883  0.00  0.00    +0.000 C 
ENDROOT
BRANCH   3  13
ATOM     13  C   UNL     1     102.891 123.813 146.439  0.00  0.00    +0.000 A 
ATOM     14  C   UNL     1     102.201 124.250 146.559  0.00  0.00    +0.000 A 
ATOM     15  C   UNL     1     102.849 123.058 146.109  0.00  0.00    +0.000 A 
ATOM     16  C   UNL     1     101.469 123.931 146.350  0.00  0.00    +0.000 A 
ATOM     17  C   UNL     1     102.117 122.739 145.900  0.00  0.00    +0.000 A 
ATOM     18  C   UNL     1     101.427 123.176 146.021  0.00  0.00    +0.000 A 
ENDBRANCH   3  13
BRANCH   9  19
ATOM     19  O   UNL     1     106.094 125.165 148.058  0.00  0.00    +0.000 OA
ATOM     20  C   UNL     1     105.842 125.806 148.513  0.00  0.00    +0.000 C 
ENDBRANCH   9  19
BRANCH  11  21
ATOM     21  O   UNL     1     106.684 125.585 145.294  0.00  0.00    +0.000 OA
ATOM     22  C   UNL     1     106.489 126.247 144.841  0.00  0.00    +0.000 C 
ENDBRANCH  11  21
BRANCH  10  24
ATOM     23  O   UNL     1     107.789 125.210 146.910  0.00  0.00    +0.000 OA
ATOM     24  C   UNL     1     107.122 125.694 146.881  0.00  0.00    +0.000 C 
ENDBRANCH  10  24
TORSDOF 4
ENDMDL
MODEL 10
REMARK VINA RESULT:      -7.8      1.511      3.436
REMARK  Name = 42607881
REMARK  4 active torsions:
REMARK  status: ('A' for Active; 'I' for Inactive)
REMARK    1  A    between atoms: O_2  and  C_12
REMARK    2  A    between atoms: O_3  and  C_15
REMARK    3  A    between atoms: C_6  and  C_13
REMARK    4  A    between atoms: C_14  and  C_17
REMARK                            x       y       z     vdW  Elec       q    Type
REMARK                         _______ _______ _______ _____ _____    ______ ____
ROOT
ATOM      1  O   UNL     1     113.568 127.424 136.391  0.00  0.00    +0.000 OA
ATOM      2  O   UNL     1     111.154 127.477 135.629  0.00  0.00    +0.000 OA
ATOM      3  C   UNL     1     113.255 128.140 136.033  0.00  0.00    +0.000 C 
ATOM      4  C   UNL     1     112.436 128.161 135.774  0.00  0.00    +0.000 C 
ATOM      5  C   UNL     1     112.272 126.759 136.234  0.00  0.00    +0.000 A 
ATOM      6  C   UNL     1     113.058 126.739 136.483  0.00  0.00    +0.000 A 
ATOM      7  C   UNL     1     111.941 127.465 135.875  0.00  0.00    +0.000 C 
ATOM      8  C   UNL     1     113.365 126.053 136.827  0.00  0.00    +0.000 A 
ATOM      9  C   UNL     1     111.793 126.094 136.328  0.00  0.00    +0.000 A 
ATOM     10  C   UNL     1     112.099 125.409 136.672  0.00  0.00    +0.000 A 
ATOM     11  C   UNL     1     112.885 125.389 136.921  0.00  0.00    +0.000 A 
ATOM     12  C   UNL     1     114.152 126.033 137.076  0.00  0.00    +0.000 C 
ENDROOT
BRANCH   3  13
ATOM     13  C   UNL     1     113.737 128.803 135.941  0.00  0.00    +0.000 A 
ATOM     14  C   UNL     1     114.225 128.870 135.279  0.00  0.00    +0.000 A 
ATOM     15  C   UNL     1     113.732 129.400 136.510  0.00  0.00    +0.000 A 
ATOM     16  C   UNL     1     114.708 129.533 135.187  0.00  0.00    +0.000 A 
ATOM     17  C   UNL     1     114.214 130.063 136.418  0.00  0.00    +0.000 A 
ATOM     18  C   UNL     1     114.702 130.129 135.757  0.00  0.00    +0.000 A 
ENDBRANCH   3  13
BRANCH   9  19
ATOM     19  O   UNL     1     111.007 126.114 136.079  0.00  0.00    +0.000 OA
ATOM     20  C   UNL     1     110.818 125.948 135.293  0.00  0.00    +0.000 C 
ENDBRANCH   9  19
BRANCH  11  21
ATOM     21  O   UNL     1     113.192 124.705 137.264  0.00  0.00    +0.000 OA
ATOM     22  C   UNL     1     113.763 124.263 136.865  0.00  0.00    +0.000 C 
ENDBRANCH  11  21
BRANCH  10  24
ATOM     23  O   UNL     1     111.221 124.621 137.478  0.00  0.00    +0.000 OA
ATOM     24  C   UNL     1     111.620 124.745 136.766  0.00  0.00    +0.000 C 
ENDBRANCH  10  24
TORSDOF 4
ENDMDL
