MODEL 1
REMARK VINA RESULT:      -7.8      0.000      0.000
REMARK  Name = 42608054
REMARK  4 active torsions:
REMARK  status: ('A' for Active; 'I' for Inactive)
REMARK    1  A    between atoms: O_2  and  C_13
REMARK    2  A    between atoms: O_4  and  C_14
REMARK    3  A    between atoms: O_5  and  C_21
REMARK    4  A    between atoms: C_7  and  C_9
REMARK                            x       y       z     vdW  Elec       q    Type
REMARK                         _______ _______ _______ _____ _____    ______ ____
ROOT
ATOM      1  O   UNL     1     104.301 124.526 138.752  0.00  0.00    +0.000 OA
ATOM      2  O   UNL     1     105.712 122.846 139.896  0.00  0.00    +0.000 OA
ATOM      3  O   UNL     1     105.127 126.556 140.670  0.00  0.00    +0.000 OA
ATOM      4  C   UNL     1     104.331 123.751 138.469  0.00  0.00    +0.000 C 
ATOM      5  C   UNL     1     104.801 123.190 138.851  0.00  0.00    +0.000 C 
ATOM      6  C   UNL     1     105.212 124.180 139.797  0.00  0.00    +0.000 A 
ATOM      7  C   UNL     1     105.242 123.406 139.515  0.00  0.00    +0.000 C 
ATOM      8  C   UNL     1     104.742 124.740 139.415  0.00  0.00    +0.000 A 
ATOM      9  C   UNL     1     105.676 124.391 140.489  0.00  0.00    +0.000 A 
ATOM     10  C   UNL     1     104.703 125.550 139.700  0.00  0.00    +0.000 A 
ATOM     11  C   UNL     1     105.649 125.196 140.788  0.00  0.00    +0.000 A 
ATOM     12  C   UNL     1     105.159 125.780 140.390  0.00  0.00    +0.000 A 
ENDROOT
BRANCH   4  13
ATOM     13  C   UNL     1     103.890 123.537 137.806  0.00  0.00    +0.000 A 
ATOM     14  C   UNL     1     103.077 123.416 137.872  0.00  0.00    +0.000 A 
ATOM     15  C   UNL     1     104.264 123.444 137.075  0.00  0.00    +0.000 A 
ATOM     16  C   UNL     1     102.637 123.202 137.207  0.00  0.00    +0.000 A 
ATOM     17  C   UNL     1     103.823 123.230 136.412  0.00  0.00    +0.000 A 
ATOM     18  C   UNL     1     103.010 123.109 136.477  0.00  0.00    +0.000 A 
BRANCH  14  19
ATOM     19  O   UNL     1     102.704 123.508 138.601  0.00  0.00    +0.000 OA
ATOM     20  C   UNL     1     101.902 123.331 138.680  0.00  0.00    +0.000 C 
ENDBRANCH  14  19
BRANCH  18  21
ATOM     21  O   UNL     1     102.570 122.895 135.813  0.00  0.00    +0.000 OA
ATOM     22  C   UNL     1     102.783 123.178 135.068  0.00  0.00    +0.000 C 
ENDBRANCH  18  21
ENDBRANCH   4  13
BRANCH   9  23
ATOM     23  O   UNL     1     106.143 123.824 140.864  0.00  0.00    +0.000 OA
ATOM     24  C   UNL     1     106.777 124.060 141.337  0.00  0.00    +0.000 C 
ENDBRANCH   9  23
TORSDOF 4
ENDMDL
MODEL 2
REMARK VINA RESULT:      -7.7      9.023     10.498
REMARK  Name = 42608054
REMARK  4 active torsions:
REMARK  status: ('A' for Active; 'I' for Inactive)
REMARK    1  A    between atoms: O_2  and  C_13
REMARK    2  A    between atoms: O_4  and  C_14
REMARK    3  A    between atoms: O_5  and  C_21
REMARK    4  A    between atoms: C_7  and  C_9
REMARK                            x       y       z     vdW  Elec       q    Type
REMARK                         _______ _______ _______ _____ _____    ______ ____
ROOT
ATOM      1  O   UNL     1     113.949 126.885 136.732  0.00  0.00    +0.000 OA
ATOM      2  O   UNL     1     111.730 126.002 136.080  0.00  0.00    +0.000 OA
ATOM      3  O   UNL     1     114.812 124.210 137.493  0.00  0.00    +0.000 OA
ATOM      4  C   UNL     1     113.371 127.396 136.437  0.00  0.00    +0.000 C 
ATOM      5  C   UNL     1     112.632 127.102 136.220  0.00  0.00    +0.000 C 
ATOM      6  C   UNL     1     113.046 125.786 136.591  0.00  0.00    +0.000 A 
ATOM      7  C   UNL     1     112.470 126.297 136.297  0.00  0.00    +0.000 C 
ATOM      8  C   UNL     1     113.786 126.080 136.808  0.00  0.00    +0.000 A 
ATOM      9  C   UNL     1     112.865 124.949 136.667  0.00  0.00    +0.000 A 
ATOM     10  C   UNL     1     114.395 125.558 137.116  0.00  0.00    +0.000 A 
ATOM     11  C   UNL     1     113.462 124.412 136.973  0.00  0.00    +0.000 A 
ATOM     12  C   UNL     1     114.233 124.719 137.199  0.00  0.00    +0.000 A 
ENDROOT
BRANCH   4  13
ATOM     13  C   UNL     1     113.534 128.201 136.360  0.00  0.00    +0.000 A 
ATOM     14  C   UNL     1     113.365 128.718 136.981  0.00  0.00    +0.000 A 
ATOM     15  C   UNL     1     113.867 128.490 135.662  0.00  0.00    +0.000 A 
ATOM     16  C   UNL     1     113.529 129.523 136.903  0.00  0.00    +0.000 A 
ATOM     17  C   UNL     1     114.030 129.295 135.585  0.00  0.00    +0.000 A 
ATOM     18  C   UNL     1     113.861 129.811 136.206  0.00  0.00    +0.000 A 
BRANCH  14  19
ATOM     19  O   UNL     1     113.033 128.430 137.678  0.00  0.00    +0.000 OA
ATOM     20  C   UNL     1     112.879 128.944 138.305  0.00  0.00    +0.000 C 
ENDBRANCH  14  19
BRANCH  18  21
ATOM     21  O   UNL     1     114.024 130.616 136.128  0.00  0.00    +0.000 OA
ATOM     22  C   UNL     1     114.741 130.862 135.803  0.00  0.00    +0.000 C 
ENDBRANCH  18  21
ENDBRANCH   4  13
BRANCH   9  23
ATOM     23  O   UNL     1     112.123 124.664 136.447  0.00  0.00    +0.000 OA
ATOM     24  C   UNL     1     111.931 123.872 136.576  0.00  0.00    +0.000 C 
ENDBRANCH   9  23
TORSDOF 4
ENDMDL
MODEL 3
REMARK VINA RESULT:      -7.6      8.660     10.019
REMARK  Name = 42608054
REMARK  4 active torsions:
REMARK  status: ('A' for Active; 'I' for Inactive)
REMARK    1  A    between atoms: O_2  and  C_13
REMARK    2  A    between atoms: O_4  and  C_14
REMARK    3  A    between atoms: O_5  and  C_21
REMARK    4  A    between atoms: C_7  and  C_9
REMARK                            x       y       z     vdW  Elec       q    Type
REMARK                         _______ _______ _______ _____ _____    ______ ____
ROOT
ATOM      1  O   UNL     1     112.274 127.204 135.992  0.00  0.00    +0.000 OA
ATOM      2  O   UNL     1     113.446 125.388 137.198  0.00  0.00    +0.000 OA
ATOM      3  O   UNL     1     110.137 125.366 135.260  0.00  0.00    +0.000 OA
ATOM      4  C   UNL     1     112.992 127.355 136.371  0.00  0.00    +0.000 C 
ATOM      5  C   UNL     1     113.383 126.750 136.772  0.00  0.00    +0.000 C 
ATOM      6  C   UNL     1     112.339 125.841 136.418  0.00  0.00    +0.000 A 
ATOM      7  C   UNL     1     113.056 125.993 136.796  0.00  0.00    +0.000 C 
ATOM      8  C   UNL     1     111.948 126.446 136.016  0.00  0.00    +0.000 A 
ATOM      9  C   UNL     1     112.008 125.048 136.450  0.00  0.00    +0.000 A 
ATOM     10  C   UNL     1     111.200 126.301 135.618  0.00  0.00    +0.000 A 
ATOM     11  C   UNL     1     111.262 124.884 136.058  0.00  0.00    +0.000 A 
ATOM     12  C   UNL     1     110.855 125.515 135.639  0.00  0.00    +0.000 A 
ENDROOT
BRANCH   4  13
ATOM     13  C   UNL     1     113.319 128.113 136.346  0.00  0.00    +0.000 A 
ATOM     14  C   UNL     1     113.125 128.664 136.929  0.00  0.00    +0.000 A 
ATOM     15  C   UNL     1     113.839 128.318 135.739  0.00  0.00    +0.000 A 
ATOM     16  C   UNL     1     113.452 129.422 136.903  0.00  0.00    +0.000 A 
ATOM     17  C   UNL     1     114.165 129.075 135.715  0.00  0.00    +0.000 A 
ATOM     18  C   UNL     1     113.972 129.627 136.297  0.00  0.00    +0.000 A 
BRANCH  14  19
ATOM     19  O   UNL     1     112.606 128.459 137.535  0.00  0.00    +0.000 OA
ATOM     20  C   UNL     1     112.407 129.013 138.112  0.00  0.00    +0.000 C 
ENDBRANCH  14  19
BRANCH  18  21
ATOM     21  O   UNL     1     114.299 130.384 136.271  0.00  0.00    +0.000 OA
ATOM     22  C   UNL     1     114.999 130.518 135.858  0.00  0.00    +0.000 C 
ENDBRANCH  18  21
ENDBRANCH   4  13
BRANCH   9  23
ATOM     23  O   UNL     1     112.406 124.449 136.854  0.00  0.00    +0.000 OA
ATOM     24  C   UNL     1     112.090 123.687 136.877  0.00  0.00    +0.000 C 
ENDBRANCH   9  23
TORSDOF 4
ENDMDL
MODEL 4
REMARK VINA RESULT:      -7.6      6.397      8.763
REMARK  Name = 42608054
REMARK  4 active torsions:
REMARK  status: ('A' for Active; 'I' for Inactive)
REMARK    1  A    between atoms: O_2  and  C_13
REMARK    2  A    between atoms: O_4  and  C_14
REMARK    3  A    between atoms: O_5  and  C_21
REMARK    4  A    between atoms: C_7  and  C_9
REMARK                            x       y       z     vdW  Elec       q    Type
REMARK                         _______ _______ _______ _____ _____    ______ ____
ROOT
ATOM      1  O   UNL     1     102.095 130.959 140.981  0.00  0.00    +0.000 OA
ATOM      2  O   UNL     1     103.596 129.901 142.640  0.00  0.00    +0.000 OA
ATOM      3  O   UNL     1     102.523 128.737 139.148  0.00  0.00    +0.000 OA
ATOM      4  C   UNL     1     102.237 131.330 141.705  0.00  0.00    +0.000 C 
ATOM      5  C   UNL     1     102.738 130.977 142.258  0.00  0.00    +0.000 C 
ATOM      6  C   UNL     1     102.954 129.883 141.365  0.00  0.00    +0.000 A 
ATOM      7  C   UNL     1     103.096 130.254 142.087  0.00  0.00    +0.000 C 
ATOM      8  C   UNL     1     102.453 130.235 140.812  0.00  0.00    +0.000 A 
ATOM      9  C   UNL     1     103.333 129.129 141.199  0.00  0.00    +0.000 A 
ATOM     10  C   UNL     1     102.297 129.858 140.055  0.00  0.00    +0.000 A 
ATOM     11  C   UNL     1     103.189 128.738 140.448  0.00  0.00    +0.000 A 
ATOM     12  C   UNL     1     102.667 129.105 139.872  0.00  0.00    +0.000 A 
ENDROOT
BRANCH   4  13
ATOM     13  C   UNL     1     101.879 132.053 141.874  0.00  0.00    +0.000 A 
ATOM     14  C   UNL     1     102.234 132.757 141.630  0.00  0.00    +0.000 A 
ATOM     15  C   UNL     1     101.164 132.072 142.288  0.00  0.00    +0.000 A 
ATOM     16  C   UNL     1     101.874 133.480 141.800  0.00  0.00    +0.000 A 
ATOM     17  C   UNL     1     100.806 132.795 142.457  0.00  0.00    +0.000 A 
ATOM     18  C   UNL     1     101.161 133.499 142.213  0.00  0.00    +0.000 A 
BRANCH  14  19
ATOM     19  O   UNL     1     102.947 132.737 141.218  0.00  0.00    +0.000 OA
ATOM     20  C   UNL     1     103.311 133.442 140.990  0.00  0.00    +0.000 C 
ENDBRANCH  14  19
BRANCH  18  21
ATOM     21  O   UNL     1     100.801 134.222 142.383  0.00  0.00    +0.000 OA
ATOM     22  C   UNL     1     100.710 134.464 143.166  0.00  0.00    +0.000 C 
ENDBRANCH  18  21
ENDBRANCH   4  13
BRANCH   9  23
ATOM     23  O   UNL     1     103.832 128.784 141.759  0.00  0.00    +0.000 OA
ATOM     24  C   UNL     1     104.392 128.227 141.522  0.00  0.00    +0.000 C 
ENDBRANCH   9  23
TORSDOF 4
ENDMDL
MODEL 5
REMARK VINA RESULT:      -7.4      8.461      9.355
REMARK  Name = 42608054
REMARK  4 active torsions:
REMARK  status: ('A' for Active; 'I' for Inactive)
REMARK    1  A    between atoms: O_2  and  C_13
REMARK    2  A    between atoms: O_4  and  C_14
REMARK    3  A    between atoms: O_5  and  C_21
REMARK    4  A    between atoms: C_7  and  C_9
REMARK                            x       y       z     vdW  Elec       q    Type
REMARK                         _______ _______ _______ _____ _____    ______ ____
ROOT
ATOM      1  O   UNL     1     105.063 124.905 147.296  0.00  0.00    +0.000 OA
ATOM      2  O   UNL     1     105.673 124.277 149.612  0.00  0.00    +0.000 OA
ATOM      3  O   UNL     1     107.842 125.559 146.721  0.00  0.00    +0.000 OA
ATOM      4  C   UNL     1     104.482 124.641 147.819  0.00  0.00    +0.000 C 
ATOM      5  C   UNL     1     104.685 124.431 148.591  0.00  0.00    +0.000 C 
ATOM      6  C   UNL     1     106.051 124.750 148.318  0.00  0.00    +0.000 A 
ATOM      7  C   UNL     1     105.470 124.486 148.840  0.00  0.00    +0.000 C 
ATOM      8  C   UNL     1     105.848 124.959 147.546  0.00  0.00    +0.000 A 
ATOM      9  C   UNL     1     106.865 124.802 148.590  0.00  0.00    +0.000 A 
ATOM     10  C   UNL     1     106.445 125.235 146.993  0.00  0.00    +0.000 A 
ATOM     11  C   UNL     1     107.474 125.076 148.050  0.00  0.00    +0.000 A 
ATOM     12  C   UNL     1     107.263 125.295 147.246  0.00  0.00    +0.000 A 
ENDROOT
BRANCH   4  13
ATOM     13  C   UNL     1     103.697 124.586 147.569  0.00  0.00    +0.000 A 
ATOM     14  C   UNL     1     103.166 125.194 147.741  0.00  0.00    +0.000 A 
ATOM     15  C   UNL     1     103.444 123.923 147.147  0.00  0.00    +0.000 A 
ATOM     16  C   UNL     1     102.382 125.138 147.490  0.00  0.00    +0.000 A 
ATOM     17  C   UNL     1     102.660 123.869 146.897  0.00  0.00    +0.000 A 
ATOM     18  C   UNL     1     102.129 124.476 147.069  0.00  0.00    +0.000 A 
BRANCH  14  19
ATOM     19  O   UNL     1     103.419 125.855 148.163  0.00  0.00    +0.000 OA
ATOM     20  C   UNL     1     102.885 126.458 148.344  0.00  0.00    +0.000 C 
ENDBRANCH  14  19
BRANCH  18  21
ATOM     21  O   UNL     1     101.345 124.421 146.818  0.00  0.00    +0.000 OA
ATOM     22  C   UNL     1     101.045 123.699 146.557  0.00  0.00    +0.000 C 
ENDBRANCH  18  21
ENDBRANCH   4  13
BRANCH   9  23
ATOM     23  O   UNL     1     107.058 124.591 149.363  0.00  0.00    +0.000 OA
ATOM     24  C   UNL     1     107.842 124.424 149.560  0.00  0.00    +0.000 C 
ENDBRANCH   9  23
TORSDOF 4
ENDMDL
MODEL 6
REMARK VINA RESULT:      -7.4      7.001      8.459
REMARK  Name = 42608054
REMARK  4 active torsions:
REMARK  status: ('A' for Active; 'I' for Inactive)
REMARK    1  A    between atoms: O_2  and  C_13
REMARK    2  A    between atoms: O_4  and  C_14
REMARK    3  A    between atoms: O_5  and  C_21
REMARK    4  A    between atoms: C_7  and  C_9
REMARK                            x       y       z     vdW  Elec       q    Type
REMARK                         _______ _______ _______ _____ _____    ______ ____
ROOT
ATOM      1  O   UNL     1     104.712 124.305 147.381  0.00  0.00    +0.000 OA
ATOM      2  O   UNL     1     105.322 126.263 145.995  0.00  0.00    +0.000 OA
ATOM      3  O   UNL     1     107.220 124.533 148.844  0.00  0.00    +0.000 OA
ATOM      4  C   UNL     1     104.197 124.572 146.794  0.00  0.00    +0.000 C 
ATOM      5  C   UNL     1     104.400 125.224 146.332  0.00  0.00    +0.000 C 
ATOM      6  C   UNL     1     105.633 125.344 147.044  0.00  0.00    +0.000 A 
ATOM      7  C   UNL     1     105.119 125.610 146.457  0.00  0.00    +0.000 C 
ATOM      8  C   UNL     1     105.430 124.692 147.506  0.00  0.00    +0.000 A 
ATOM      9  C   UNL     1     106.379 125.755 147.165  0.00  0.00    +0.000 A 
ATOM     10  C   UNL     1     105.958 124.405 148.121  0.00  0.00    +0.000 A 
ATOM     11  C   UNL     1     106.919 125.482 147.774  0.00  0.00    +0.000 A 
ATOM     12  C   UNL     1     106.707 124.802 148.256  0.00  0.00    +0.000 A 
ENDROOT
BRANCH   4  13
ATOM     13  C   UNL     1     103.479 124.185 146.669  0.00  0.00    +0.000 A 
ATOM     14  C   UNL     1     103.434 123.560 146.133  0.00  0.00    +0.000 A 
ATOM     15  C   UNL     1     102.805 124.425 147.082  0.00  0.00    +0.000 A 
ATOM     16  C   UNL     1     102.715 123.175 146.009  0.00  0.00    +0.000 A 
ATOM     17  C   UNL     1     102.087 124.038 146.957  0.00  0.00    +0.000 A 
ATOM     18  C   UNL     1     102.042 123.413 146.421  0.00  0.00    +0.000 A 
BRANCH  14  19
ATOM     19  O   UNL     1     104.107 123.322 145.721  0.00  0.00    +0.000 OA
ATOM     20  C   UNL     1     104.049 122.740 145.139  0.00  0.00    +0.000 C 
ENDBRANCH  14  19
BRANCH  18  21
ATOM     21  O   UNL     1     101.323 123.027 146.297  0.00  0.00    +0.000 OA
ATOM     22  C   UNL     1     100.796 122.926 146.923  0.00  0.00    +0.000 C 
ENDBRANCH  18  21
ENDBRANCH   4  13
BRANCH   9  23
ATOM     23  O   UNL     1     106.574 126.406 146.698  0.00  0.00    +0.000 OA
ATOM     24  C   UNL     1     107.201 126.895 146.915  0.00  0.00    +0.000 C 
ENDBRANCH   9  23
TORSDOF 4
ENDMDL
MODEL 7
REMARK VINA RESULT:      -7.4      7.533      9.307
REMARK  Name = 42608054
REMARK  4 active torsions:
REMARK  status: ('A' for Active; 'I' for Inactive)
REMARK    1  A    between atoms: O_2  and  C_13
REMARK    2  A    between atoms: O_4  and  C_14
REMARK    3  A    between atoms: O_5  and  C_21
REMARK    4  A    between atoms: C_7  and  C_9
REMARK                            x       y       z     vdW  Elec       q    Type
REMARK                         _______ _______ _______ _____ _____    ______ ____
ROOT
ATOM      1  O   UNL     1     103.773 124.867 147.607  0.00  0.00    +0.000 OA
ATOM      2  O   UNL     1     103.330 123.705 145.467  0.00  0.00    +0.000 OA
ATOM      3  O   UNL     1     100.954 124.680 148.315  0.00  0.00    +0.000 OA
ATOM      4  C   UNL     1     104.392 124.721 147.081  0.00  0.00    +0.000 C 
ATOM      5  C   UNL     1     104.244 124.334 146.367  0.00  0.00    +0.000 C 
ATOM      6  C   UNL     1     102.859 124.238 146.706  0.00  0.00    +0.000 A 
ATOM      7  C   UNL     1     103.477 124.092 146.181  0.00  0.00    +0.000 C 
ATOM      8  C   UNL     1     103.007 124.625 147.420  0.00  0.00    +0.000 A 
ATOM      9  C   UNL     1     102.065 123.981 146.500  0.00  0.00    +0.000 A 
ATOM     10  C   UNL     1     102.371 124.782 147.976  0.00  0.00    +0.000 A 
ATOM     11  C   UNL     1     101.417 124.130 147.044  0.00  0.00    +0.000 A 
ATOM     12  C   UNL     1     101.571 124.533 147.787  0.00  0.00    +0.000 A 
ENDROOT
BRANCH   4  13
ATOM     13  C   UNL     1     105.158 124.963 147.268  0.00  0.00    +0.000 A 
ATOM     14  C   UNL     1     105.434 125.696 147.011  0.00  0.00    +0.000 A 
ATOM     15  C   UNL     1     105.648 124.470 147.715  0.00  0.00    +0.000 A 
ATOM     16  C   UNL     1     106.201 125.937 147.199  0.00  0.00    +0.000 A 
ATOM     17  C   UNL     1     106.413 124.712 147.902  0.00  0.00    +0.000 A 
ATOM     18  C   UNL     1     106.690 125.446 147.645  0.00  0.00    +0.000 A 
BRANCH  14  19
ATOM     19  O   UNL     1     104.945 126.188 146.565  0.00  0.00    +0.000 OA
ATOM     20  C   UNL     1     105.213 126.931 146.327  0.00  0.00    +0.000 C 
ENDBRANCH  14  19
BRANCH  18  21
ATOM     21  O   UNL     1     107.456 125.686 147.833  0.00  0.00    +0.000 OA
ATOM     22  C   UNL     1     108.068 125.134 147.859  0.00  0.00    +0.000 C 
ENDBRANCH  18  21
ENDBRANCH   4  13
BRANCH   9  23
ATOM     23  O   UNL     1     101.927 123.595 145.784  0.00  0.00    +0.000 OA
ATOM     24  C   UNL     1     101.196 123.238 145.643  0.00  0.00    +0.000 C 
ENDBRANCH   9  23
TORSDOF 4
ENDMDL
MODEL 8
REMARK VINA RESULT:      -7.4      6.350      8.568
REMARK  Name = 42608054
REMARK  4 active torsions:
REMARK  status: ('A' for Active; 'I' for Inactive)
REMARK    1  A    between atoms: O_2  and  C_13
REMARK    2  A    between atoms: O_4  and  C_14
REMARK    3  A    between atoms: O_5  and  C_21
REMARK    4  A    between atoms: C_7  and  C_9
REMARK                            x       y       z     vdW  Elec       q    Type
REMARK                         _______ _______ _______ _____ _____    ______ ____
ROOT
ATOM      1  O   UNL     1     103.184 131.623 141.290  0.00  0.00    +0.000 OA
ATOM      2  O   UNL     1     100.980 131.950 142.366  0.00  0.00    +0.000 OA
ATOM      3  O   UNL     1     103.290 134.450 140.601  0.00  0.00    +0.000 OA
ATOM      4  C   UNL     1     102.795 130.982 141.636  0.00  0.00    +0.000 C 
ATOM      5  C   UNL     1     102.060 131.091 141.995  0.00  0.00    +0.000 C 
ATOM      6  C   UNL     1     102.103 132.480 141.661  0.00  0.00    +0.000 A 
ATOM      7  C   UNL     1     101.714 131.841 142.007  0.00  0.00    +0.000 C 
ATOM      8  C   UNL     1     102.838 132.371 141.302  0.00  0.00    +0.000 A 
ATOM      9  C   UNL     1     101.732 133.256 141.681  0.00  0.00    +0.000 A 
ATOM     10  C   UNL     1     103.253 133.030 140.938  0.00  0.00    +0.000 A 
ATOM     11  C   UNL     1     102.133 133.926 141.322  0.00  0.00    +0.000 A 
ATOM     12  C   UNL     1     102.899 133.812 140.948  0.00  0.00    +0.000 A 
ENDROOT
BRANCH   4  13
ATOM     13  C   UNL     1     103.141 130.234 141.623  0.00  0.00    +0.000 A 
ATOM     14  C   UNL     1     102.979 129.714 141.003  0.00  0.00    +0.000 A 
ATOM     15  C   UNL     1     103.651 130.005 142.231  0.00  0.00    +0.000 A 
ATOM     16  C   UNL     1     103.326 128.966 140.992  0.00  0.00    +0.000 A 
ATOM     17  C   UNL     1     103.997 129.257 142.218  0.00  0.00    +0.000 A 
ATOM     18  C   UNL     1     103.835 128.737 141.599  0.00  0.00    +0.000 A 
BRANCH  14  19
ATOM     19  O   UNL     1     102.470 129.943 140.396  0.00  0.00    +0.000 OA
ATOM     20  C   UNL     1     102.270 129.407 139.802  0.00  0.00    +0.000 C 
ENDBRANCH  14  19
BRANCH  18  21
ATOM     21  O   UNL     1     104.182 127.988 141.587  0.00  0.00    +0.000 OA
ATOM     22  C   UNL     1     104.957 127.888 141.849  0.00  0.00    +0.000 C 
ENDBRANCH  18  21
ENDBRANCH   4  13
BRANCH   9  23
ATOM     23  O   UNL     1     100.997 133.355 142.042  0.00  0.00    +0.000 OA
ATOM     24  C   UNL     1     100.711 134.114 142.189  0.00  0.00    +0.000 C 
ENDBRANCH   9  23
TORSDOF 4
ENDMDL
MODEL 9
REMARK VINA RESULT:      -7.3      8.102     10.142
REMARK  Name = 42608054
REMARK  4 active torsions:
REMARK  status: ('A' for Active; 'I' for Inactive)
REMARK    1  A    between atoms: O_2  and  C_13
REMARK    2  A    between atoms: O_4  and  C_14
REMARK    3  A    between atoms: O_5  and  C_21
REMARK    4  A    between atoms: C_7  and  C_9
REMARK                            x       y       z     vdW  Elec       q    Type
REMARK                         _______ _______ _______ _____ _____    ______ ____
ROOT
ATOM      1  O   UNL     1     113.789 126.335 138.729  0.00  0.00    +0.000 OA
ATOM      2  O   UNL     1     111.575 125.452 138.064  0.00  0.00    +0.000 OA
ATOM      3  O   UNL     1     115.096 124.519 136.865  0.00  0.00    +0.000 OA
ATOM      4  C   UNL     1     113.103 126.635 139.077  0.00  0.00    +0.000 C 
ATOM      5  C   UNL     1     112.365 126.341 138.855  0.00  0.00    +0.000 C 
ATOM      6  C   UNL     1     112.997 125.446 137.938  0.00  0.00    +0.000 A 
ATOM      7  C   UNL     1     112.313 125.746 138.286  0.00  0.00    +0.000 C 
ATOM      8  C   UNL     1     113.735 125.741 138.160  0.00  0.00    +0.000 A 
ATOM      9  C   UNL     1     112.929 124.827 137.345  0.00  0.00    +0.000 A 
ATOM     10  C   UNL     1     114.457 125.436 137.804  0.00  0.00    +0.000 A 
ATOM     11  C   UNL     1     113.639 124.511 136.980  0.00  0.00    +0.000 A 
ATOM     12  C   UNL     1     114.409 124.818 137.211  0.00  0.00    +0.000 A 
ENDROOT
BRANCH   4  13
ATOM     13  C   UNL     1     113.157 127.229 139.647  0.00  0.00    +0.000 A 
ATOM     14  C   UNL     1     113.157 128.022 139.418  0.00  0.00    +0.000 A 
ATOM     15  C   UNL     1     113.209 127.030 140.446  0.00  0.00    +0.000 A 
ATOM     16  C   UNL     1     113.211 128.616 139.989  0.00  0.00    +0.000 A 
ATOM     17  C   UNL     1     113.263 127.625 141.016  0.00  0.00    +0.000 A 
ATOM     18  C   UNL     1     113.264 128.417 140.787  0.00  0.00    +0.000 A 
BRANCH  14  19
ATOM     19  O   UNL     1     113.104 128.220 138.620  0.00  0.00    +0.000 OA
ATOM     20  C   UNL     1     113.130 129.012 138.389  0.00  0.00    +0.000 C 
ENDBRANCH  14  19
BRANCH  18  21
ATOM     21  O   UNL     1     113.317 129.011 141.358  0.00  0.00    +0.000 OA
ATOM     22  C   UNL     1     112.672 129.177 141.843  0.00  0.00    +0.000 C 
ENDBRANCH  18  21
ENDBRANCH   4  13
BRANCH   9  23
ATOM     23  O   UNL     1     112.187 124.539 137.130  0.00  0.00    +0.000 OA
ATOM     24  C   UNL     1     112.127 123.914 136.594  0.00  0.00    +0.000 C 
ENDBRANCH   9  23
TORSDOF 4
ENDMDL
MODEL 10
REMARK VINA RESULT:      -7.3      7.688      8.639
REMARK  Name = 42608054
REMARK  4 active torsions:
REMARK  status: ('A' for Active; 'I' for Inactive)
REMARK    1  A    between atoms: O_2  and  C_13
REMARK    2  A    between atoms: O_4  and  C_14
REMARK    3  A    between atoms: O_5  and  C_21
REMARK    4  A    between atoms: C_7  and  C_9
REMARK                            x       y       z     vdW  Elec       q    Type
REMARK                         _______ _______ _______ _____ _____    ______ ____
ROOT
ATOM      1  O   UNL     1     111.372 125.883 136.128  0.00  0.00    +0.000 OA
ATOM      2  O   UNL     1     113.730 126.511 136.537  0.00  0.00    +0.000 OA
ATOM      3  O   UNL     1     111.958 123.125 136.856  0.00  0.00    +0.000 OA
ATOM      4  C   UNL     1     111.617 126.663 136.016  0.00  0.00    +0.000 C 
ATOM      5  C   UNL     1     112.403 126.873 136.153  0.00  0.00    +0.000 C 
ATOM      6  C   UNL     1     112.700 125.522 136.512  0.00  0.00    +0.000 A 
ATOM      7  C   UNL     1     112.944 126.301 136.401  0.00  0.00    +0.000 C 
ATOM      8  C   UNL     1     111.914 125.313 136.375  0.00  0.00    +0.000 A 
ATOM      9  C   UNL     1     113.274 124.936 136.771  0.00  0.00    +0.000 A 
ATOM     10  C   UNL     1     111.647 124.503 136.488  0.00  0.00    +0.000 A 
ATOM     11  C   UNL     1     113.025 124.122 136.888  0.00  0.00    +0.000 A 
ATOM     12  C   UNL     1     112.205 123.904 136.746  0.00  0.00    +0.000 A 
ENDROOT
BRANCH   4  13
ATOM     13  C   UNL     1     111.075 127.234 135.768  0.00  0.00    +0.000 A 
ATOM     14  C   UNL     1     110.638 127.658 136.325  0.00  0.00    +0.000 A 
ATOM     15  C   UNL     1     110.970 127.380 134.963  0.00  0.00    +0.000 A 
ATOM     16  C   UNL     1     110.096 128.228 136.076  0.00  0.00    +0.000 A 
ATOM     17  C   UNL     1     110.427 127.950 134.715  0.00  0.00    +0.000 A 
ATOM     18  C   UNL     1     109.990 128.374 135.271  0.00  0.00    +0.000 A 
BRANCH  14  19
ATOM     19  O   UNL     1     110.743 127.512 137.130  0.00  0.00    +0.000 OA
ATOM     20  C   UNL     1     110.297 127.927 137.686  0.00  0.00    +0.000 C 
ENDBRANCH  14  19
BRANCH  18  21
ATOM     21  O   UNL     1     109.448 128.944 135.022  0.00  0.00    +0.000 OA
ATOM     22  C   UNL     1     109.710 129.613 134.617  0.00  0.00    +0.000 C 
ENDBRANCH  18  21
ENDBRANCH   4  13
BRANCH   9  23
ATOM     23  O   UNL     1     114.058 125.155 136.905  0.00  0.00    +0.000 OA
ATOM     24  C   UNL     1     114.585 124.614 137.238  0.00  0.00    +0.000 C 
ENDBRANCH   9  23
TORSDOF 4
ENDMDL
