MODEL 1
REMARK VINA RESULT:      -9.8      0.000      0.000
REMARK  Name = 44259822
REMARK  9 active torsions:
REMARK  status: ('A' for Active; 'I' for Inactive)
REMARK    1  A    between atoms: O_1  and  C_18
REMARK    2  A    between atoms: O_1  and  C_21
REMARK    3  A    between atoms: O_5  and  C_22
REMARK    4  A    between atoms: O_5  and  C_30
REMARK    5  A    between atoms: O_11  and  C_31
REMARK    6  A    between atoms: O_14  and  C_38
REMARK    7  A    between atoms: O_16  and  C_43
REMARK    8  A    between atoms: C_24  and  C_28
REMARK    9  A    between atoms: C_37  and  C_40
REMARK                            x       y       z     vdW  Elec       q    Type
REMARK                         _______ _______ _______ _____ _____    ______ ____
ROOT
ATOM      1  O   UNL     1     109.908 129.562 137.397  0.00  0.00    +0.000 OA
ATOM      2  O   UNL     1     108.352 127.999 135.531  0.00  0.00    +0.000 OA
ATOM      3  O   UNL     1     108.112 129.411 135.700  0.00  0.00    +0.000 OA
ATOM      4  C   UNL     1     110.017 127.386 136.898  0.00  0.00    +0.000 A 
ATOM      5  C   UNL     1     109.394 127.334 136.309  0.00  0.00    +0.000 A 
ATOM      6  C   UNL     1     110.190 128.144 137.267  0.00  0.00    +0.000 A 
ATOM      7  C   UNL     1     109.737 128.838 137.040  0.00  0.00    +0.000 A 
ATOM      8  C   UNL     1     108.952 128.040 136.096  0.00  0.00    +0.000 A 
ATOM      9  C   UNL     1     109.139 128.788 136.475  0.00  0.00    +0.000 A 
ATOM     10  C   UNL     1     108.711 129.461 136.266  0.00  0.00    +0.000 A 
ATOM     11  C   UNL     1     109.480 130.236 137.188  0.00  0.00    +0.000 A 
ATOM     12  C   UNL     1     108.881 130.185 136.622  0.00  0.00    +0.000 A 
ENDROOT
BRANCH  11  14
ATOM     13  O   UNL     1     110.162 133.133 138.614  0.00  0.00    +0.000 OA
ATOM     14  C   UNL     1     109.650 130.960 137.545  0.00  0.00    +0.000 A 
ATOM     15  C   UNL     1     110.286 131.413 137.275  0.00  0.00    +0.000 A 
ATOM     16  C   UNL     1     109.185 131.232 138.170  0.00  0.00    +0.000 A 
ATOM     17  C   UNL     1     110.456 132.137 137.632  0.00  0.00    +0.000 A 
ATOM     18  C   UNL     1     109.356 131.956 138.526  0.00  0.00    +0.000 A 
ATOM     19  C   UNL     1     109.991 132.409 138.257  0.00  0.00    +0.000 A 
BRANCH  17  20
ATOM     20  O   UNL     1     111.091 132.590 137.363  0.00  0.00    +0.000 OA
ATOM     21  C   UNL     1     111.713 132.229 136.958  0.00  0.00    +0.000 C 
ENDBRANCH  17  20
ENDBRANCH  11  14
BRANCH   5  22
ATOM     22  O   UNL     1     109.221 126.612 135.951  0.00  0.00    +0.000 OA
ATOM     23  C   UNL     1     109.465 126.467 135.176  0.00  0.00    +0.000 C 
ENDBRANCH   5  22
BRANCH  12  24
ATOM     24  O   UNL     1     108.454 130.859 136.413  0.00  0.00    +0.000 OA
ATOM     25  C   UNL     1     108.162 130.941 135.647  0.00  0.00    +0.000 C 
ENDBRANCH  12  24
BRANCH   4  26
ATOM     26  O   UNL     1     110.447 126.714 137.109  0.00  0.00    +0.000 OA
BRANCH  26  33
ATOM     27  O   UNL     1     109.854 126.439 138.380  0.00  0.00    +0.000 OA
ATOM     28  O   UNL     1     112.099 126.024 139.337  0.00  0.00    +0.000 OA
ATOM     29  O   UNL     1     110.758 125.887 140.288  0.00  0.00    +0.000 OA
ATOM     30  C   UNL     1     111.272 126.369 138.223  0.00  0.00    +0.000 C 
ATOM     31  C   UNL     1     111.351 126.162 139.018  0.00  0.00    +0.000 C 
ATOM     32  C   UNL     1     110.680 126.093 139.493  0.00  0.00    +0.000 C 
ATOM     33  C   UNL     1     110.524 126.507 137.904  0.00  0.00    +0.000 C 
ATOM     34  C   UNL     1     109.932 126.232 139.174  0.00  0.00    +0.000 C 
BRANCH  34  36
ATOM     35  O   UNL     1     108.528 126.000 139.310  0.00  0.00    +0.000 OA
ATOM     36  C   UNL     1     109.262 126.163 139.650  0.00  0.00    +0.000 C 
ENDBRANCH  34  36
BRANCH  30  37
ATOM     37  O   UNL     1     111.943 126.438 137.747  0.00  0.00    +0.000 OA
BRANCH  37  42
ATOM     38  O   UNL     1     111.868 125.049 137.417  0.00  0.00    +0.000 OA
ATOM     39  O   UNL     1     113.439 126.521 137.055  0.00  0.00    +0.000 OA
ATOM     40  O   UNL     1     114.111 125.174 136.380  0.00  0.00    +0.000 OA
ATOM     41  O   UNL     1     113.287 123.744 136.396  0.00  0.00    +0.000 OA
ATOM     42  C   UNL     1     112.279 125.764 137.409  0.00  0.00    +0.000 C 
ATOM     43  C   UNL     1     113.027 125.806 137.063  0.00  0.00    +0.000 C 
ATOM     44  C   UNL     1     113.363 125.132 136.725  0.00  0.00    +0.000 C 
ATOM     45  C   UNL     1     112.951 124.417 136.733  0.00  0.00    +0.000 C 
ATOM     46  C   UNL     1     112.203 124.376 137.080  0.00  0.00    +0.000 C 
ATOM     47  C   UNL     1     111.792 123.661 137.088  0.00  0.00    +0.000 C 
ENDBRANCH  37  42
ENDBRANCH  30  37
ENDBRANCH  26  33
ENDBRANCH   4  26
TORSDOF 9
ENDMDL
MODEL 2
REMARK VINA RESULT:      -9.7      1.823      6.101
REMARK  Name = 44259822
REMARK  9 active torsions:
REMARK  status: ('A' for Active; 'I' for Inactive)
REMARK    1  A    between atoms: O_1  and  C_18
REMARK    2  A    between atoms: O_1  and  C_21
REMARK    3  A    between atoms: O_5  and  C_22
REMARK    4  A    between atoms: O_5  and  C_30
REMARK    5  A    between atoms: O_11  and  C_31
REMARK    6  A    between atoms: O_14  and  C_38
REMARK    7  A    between atoms: O_16  and  C_43
REMARK    8  A    between atoms: C_24  and  C_28
REMARK    9  A    between atoms: C_37  and  C_40
REMARK                            x       y       z     vdW  Elec       q    Type
REMARK                         _______ _______ _______ _____ _____    ______ ____
ROOT
ATOM      1  O   UNL     1     111.559 126.888 136.536  0.00  0.00    +0.000 OA
ATOM      2  O   UNL     1     109.772 128.157 134.653  0.00  0.00    +0.000 OA
ATOM      3  O   UNL     1     110.008 126.734 134.613  0.00  0.00    +0.000 OA
ATOM      4  C   UNL     1     110.978 129.036 136.324  0.00  0.00    +0.000 A 
ATOM      5  C   UNL     1     110.440 128.982 135.656  0.00  0.00    +0.000 A 
ATOM      6  C   UNL     1     111.357 128.324 136.621  0.00  0.00    +0.000 A 
ATOM      7  C   UNL     1     111.192 127.568 136.246  0.00  0.00    +0.000 A 
ATOM      8  C   UNL     1     110.287 128.218 135.295  0.00  0.00    +0.000 A 
ATOM      9  C   UNL     1     110.675 127.517 135.605  0.00  0.00    +0.000 A 
ATOM     10  C   UNL     1     110.525 126.786 135.254  0.00  0.00    +0.000 A 
ATOM     11  C   UNL     1     111.409 126.157 136.184  0.00  0.00    +0.000 A 
ATOM     12  C   UNL     1     110.892 126.106 135.543  0.00  0.00    +0.000 A 
ENDROOT
BRANCH  11  14
ATOM     13  O   UNL     1     112.876 123.437 137.341  0.00  0.00    +0.000 OA
ATOM     14  C   UNL     1     111.775 125.477 136.474  0.00  0.00    +0.000 A 
ATOM     15  C   UNL     1     112.552 125.302 136.254  0.00  0.00    +0.000 A 
ATOM     16  C   UNL     1     111.366 124.972 136.982  0.00  0.00    +0.000 A 
ATOM     17  C   UNL     1     112.918 124.622 136.544  0.00  0.00    +0.000 A 
ATOM     18  C   UNL     1     111.733 124.292 137.271  0.00  0.00    +0.000 A 
ATOM     19  C   UNL     1     112.509 124.117 137.052  0.00  0.00    +0.000 A 
BRANCH  17  20
ATOM     20  O   UNL     1     113.694 124.447 136.325  0.00  0.00    +0.000 OA
ATOM     21  C   UNL     1     114.282 125.021 136.394  0.00  0.00    +0.000 C 
ENDBRANCH  17  20
ENDBRANCH  11  14
BRANCH   5  22
ATOM     22  O   UNL     1     110.071 129.660 135.364  0.00  0.00    +0.000 OA
ATOM     23  C   UNL     1     109.258 129.761 135.459  0.00  0.00    +0.000 C 
ENDBRANCH   5  22
BRANCH  12  24
ATOM     24  O   UNL     1     110.741 125.375 135.192  0.00  0.00    +0.000 OA
ATOM     25  C   UNL     1     110.127 125.297 134.649  0.00  0.00    +0.000 C 
ENDBRANCH  12  24
BRANCH   4  26
ATOM     26  O   UNL     1     111.130 129.766 136.677  0.00  0.00    +0.000 OA
BRANCH  26  33
ATOM     27  O   UNL     1     112.494 129.870 136.264  0.00  0.00    +0.000 OA
ATOM     28  O   UNL     1     113.066 130.937 138.423  0.00  0.00    +0.000 OA
ATOM     29  O   UNL     1     114.239 130.685 137.291  0.00  0.00    +0.000 OA
ATOM     30  C   UNL     1     112.097 130.351 137.550  0.00  0.00    +0.000 C 
ATOM     31  C   UNL     1     112.875 130.581 137.703  0.00  0.00    +0.000 C 
ATOM     32  C   UNL     1     113.462 130.455 137.137  0.00  0.00    +0.000 C 
ATOM     33  C   UNL     1     111.907 129.995 136.830  0.00  0.00    +0.000 C 
ATOM     34  C   UNL     1     113.271 130.099 136.417  0.00  0.00    +0.000 C 
BRANCH  34  36
ATOM     35  O   UNL     1     113.711 130.149 135.059  0.00  0.00    +0.000 OA
ATOM     36  C   UNL     1     113.857 129.974 135.852  0.00  0.00    +0.000 C 
ENDBRANCH  34  36
BRANCH  30  37
ATOM     37  O   UNL     1     111.511 130.477 138.116  0.00  0.00    +0.000 OA
BRANCH  37  42
ATOM     38  O   UNL     1     111.177 131.736 137.525  0.00  0.00    +0.000 OA
ATOM     39  O   UNL     1     110.653 130.883 139.466  0.00  0.00    +0.000 OA
ATOM     40  O   UNL     1     109.890 132.343 139.550  0.00  0.00    +0.000 OA
ATOM     41  O   UNL     1     109.984 133.398 138.285  0.00  0.00    +0.000 OA
ATOM     42  C   UNL     1     111.129 131.208 138.158  0.00  0.00    +0.000 C 
ATOM     43  C   UNL     1     110.701 131.410 138.833  0.00  0.00    +0.000 C 
ATOM     44  C   UNL     1     110.319 132.141 138.875  0.00  0.00    +0.000 C 
ATOM     45  C   UNL     1     110.366 132.669 138.243  0.00  0.00    +0.000 C 
ATOM     46  C   UNL     1     110.795 132.465 137.568  0.00  0.00    +0.000 C 
ATOM     47  C   UNL     1     110.842 132.992 136.935  0.00  0.00    +0.000 C 
ENDBRANCH  37  42
ENDBRANCH  30  37
ENDBRANCH  26  33
ENDBRANCH   4  26
TORSDOF 9
ENDMDL
MODEL 3
REMARK VINA RESULT:      -9.3      1.642      2.806
REMARK  Name = 44259822
REMARK  9 active torsions:
REMARK  status: ('A' for Active; 'I' for Inactive)
REMARK    1  A    between atoms: O_1  and  C_18
REMARK    2  A    between atoms: O_1  and  C_21
REMARK    3  A    between atoms: O_5  and  C_22
REMARK    4  A    between atoms: O_5  and  C_30
REMARK    5  A    between atoms: O_11  and  C_31
REMARK    6  A    between atoms: O_14  and  C_38
REMARK    7  A    between atoms: O_16  and  C_43
REMARK    8  A    between atoms: C_24  and  C_28
REMARK    9  A    between atoms: C_37  and  C_40
REMARK                            x       y       z     vdW  Elec       q    Type
REMARK                         _______ _______ _______ _____ _____    ______ ____
ROOT
ATOM      1  O   UNL     1     110.817 129.906 137.604  0.00  0.00    +0.000 OA
ATOM      2  O   UNL     1     113.460 130.144 136.463  0.00  0.00    +0.000 OA
ATOM      3  O   UNL     1     112.573 131.279 136.527  0.00  0.00    +0.000 OA
ATOM      4  C   UNL     1     112.421 128.370 137.353  0.00  0.00    +0.000 A 
ATOM      5  C   UNL     1     113.030 128.847 136.979  0.00  0.00    +0.000 A 
ATOM      6  C   UNL     1     111.670 128.732 137.564  0.00  0.00    +0.000 A 
ATOM      7  C   UNL     1     111.539 129.565 137.399  0.00  0.00    +0.000 A 
ATOM      8  C   UNL     1     112.881 129.679 136.822  0.00  0.00    +0.000 A 
ATOM      9  C   UNL     1     112.125 130.022 137.040  0.00  0.00    +0.000 A 
ATOM     10  C   UNL     1     111.987 130.821 136.886  0.00  0.00    +0.000 A 
ATOM     11  C   UNL     1     110.680 130.705 137.450  0.00  0.00    +0.000 A 
ATOM     12  C   UNL     1     111.265 131.163 137.091  0.00  0.00    +0.000 A 
ENDROOT
BRANCH  11  14
ATOM     13  O   UNL     1     107.789 132.071 138.269  0.00  0.00    +0.000 OA
ATOM     14  C   UNL     1     109.957 131.047 137.655  0.00  0.00    +0.000 A 
ATOM     15  C   UNL     1     109.334 131.048 137.114  0.00  0.00    +0.000 A 
ATOM     16  C   UNL     1     109.858 131.387 138.400  0.00  0.00    +0.000 A 
ATOM     17  C   UNL     1     108.611 131.389 137.319  0.00  0.00    +0.000 A 
ATOM     18  C   UNL     1     109.136 131.728 138.604  0.00  0.00    +0.000 A 
ATOM     19  C   UNL     1     108.512 131.729 138.064  0.00  0.00    +0.000 A 
BRANCH  17  20
ATOM     20  O   UNL     1     107.987 131.391 136.779  0.00  0.00    +0.000 OA
ATOM     21  C   UNL     1     108.048 130.960 136.078  0.00  0.00    +0.000 C 
ENDBRANCH  17  20
ENDBRANCH  11  14
BRANCH   5  22
ATOM     22  O   UNL     1     113.754 128.509 136.773  0.00  0.00    +0.000 OA
ATOM     23  C   UNL     1     113.940 128.385 135.979  0.00  0.00    +0.000 C 
ENDBRANCH   5  22
BRANCH  12  24
ATOM     24  O   UNL     1     111.128 131.961 136.937  0.00  0.00    +0.000 OA
ATOM     25  C   UNL     1     111.763 132.479 136.847  0.00  0.00    +0.000 C 
ENDBRANCH  12  24
BRANCH   4  26
ATOM     26  O   UNL     1     112.556 127.571 137.508  0.00  0.00    +0.000 OA
BRANCH  26  33
ATOM     27  O   UNL     1     112.779 127.670 138.916  0.00  0.00    +0.000 OA
ATOM     28  O   UNL     1     111.468 125.600 139.269  0.00  0.00    +0.000 OA
ATOM     29  O   UNL     1     112.128 126.388 140.558  0.00  0.00    +0.000 OA
ATOM     30  C   UNL     1     112.012 126.586 138.388  0.00  0.00    +0.000 C 
ATOM     31  C   UNL     1     111.905 126.290 139.151  0.00  0.00    +0.000 C 
ATOM     32  C   UNL     1     112.236 126.685 139.796  0.00  0.00    +0.000 C 
ATOM     33  C   UNL     1     112.449 127.276 138.270  0.00  0.00    +0.000 C 
ATOM     34  C   UNL     1     112.672 127.374 139.678  0.00  0.00    +0.000 C 
BRANCH  34  36
ATOM     35  O   UNL     1     113.784 128.031 140.291  0.00  0.00    +0.000 OA
ATOM     36  C   UNL     1     113.002 127.768 140.323  0.00  0.00    +0.000 C 
ENDBRANCH  34  36
BRANCH  30  37
ATOM     37  O   UNL     1     111.682 126.192 137.743  0.00  0.00    +0.000 OA
BRANCH  37  42
ATOM     38  O   UNL     1     112.881 125.436 137.556  0.00  0.00    +0.000 OA
ATOM     39  O   UNL     1     110.867 125.140 136.768  0.00  0.00    +0.000 OA
ATOM     40  O   UNL     1     111.658 123.859 136.092  0.00  0.00    +0.000 OA
ATOM     41  O   UNL     1     113.264 123.630 136.392  0.00  0.00    +0.000 OA
ATOM     42  C   UNL     1     112.078 125.551 137.405  0.00  0.00    +0.000 C 
ATOM     43  C   UNL     1     111.670 125.025 136.918  0.00  0.00    +0.000 C 
ATOM     44  C   UNL     1     112.066 124.384 136.580  0.00  0.00    +0.000 C 
ATOM     45  C   UNL     1     112.869 124.270 136.730  0.00  0.00    +0.000 C 
ATOM     46  C   UNL     1     113.276 124.796 137.218  0.00  0.00    +0.000 C 
ATOM     47  C   UNL     1     114.079 124.681 137.368  0.00  0.00    +0.000 C 
ENDBRANCH  37  42
ENDBRANCH  30  37
ENDBRANCH  26  33
ENDBRANCH   4  26
TORSDOF 9
ENDMDL
MODEL 4
REMARK VINA RESULT:      -9.2      6.827     10.522
REMARK  Name = 44259822
REMARK  9 active torsions:
REMARK  status: ('A' for Active; 'I' for Inactive)
REMARK    1  A    between atoms: O_1  and  C_18
REMARK    2  A    between atoms: O_1  and  C_21
REMARK    3  A    between atoms: O_5  and  C_22
REMARK    4  A    between atoms: O_5  and  C_30
REMARK    5  A    between atoms: O_11  and  C_31
REMARK    6  A    between atoms: O_14  and  C_38
REMARK    7  A    between atoms: O_16  and  C_43
REMARK    8  A    between atoms: C_24  and  C_28
REMARK    9  A    between atoms: C_37  and  C_40
REMARK                            x       y       z     vdW  Elec       q    Type
REMARK                         _______ _______ _______ _____ _____    ______ ____
ROOT
ATOM      1  O   UNL     1     104.825 125.772 145.633  0.00  0.00    +0.000 OA
ATOM      2  O   UNL     1     107.380 126.913 146.349  0.00  0.00    +0.000 OA
ATOM      3  O   UNL     1     106.748 125.921 147.184  0.00  0.00    +0.000 OA
ATOM      4  C   UNL     1     106.063 127.306 144.580  0.00  0.00    +0.000 A 
ATOM      5  C   UNL     1     106.730 127.357 145.119  0.00  0.00    +0.000 A 
ATOM      6  C   UNL     1     105.417 126.767 144.757  0.00  0.00    +0.000 A 
ATOM      7  C   UNL     1     105.448 126.287 145.469  0.00  0.00    +0.000 A 
ATOM      8  C   UNL     1     106.743 126.870 145.826  0.00  0.00    +0.000 A 
ATOM      9  C   UNL     1     106.089 126.337 145.985  0.00  0.00    +0.000 A 
ATOM     10  C   UNL     1     106.107 125.872 146.666  0.00  0.00    +0.000 A 
ATOM     11  C   UNL     1     104.843 125.306 146.314  0.00  0.00    +0.000 A 
ATOM     12  C   UNL     1     105.484 125.356 146.830  0.00  0.00    +0.000 A 
ENDROOT
BRANCH  11  14
ATOM     13  O   UNL     1     102.352 123.244 146.969  0.00  0.00    +0.000 OA
ATOM     14  C   UNL     1     104.220 124.791 146.478  0.00  0.00    +0.000 A 
ATOM     15  C   UNL     1     104.184 124.056 146.104  0.00  0.00    +0.000 A 
ATOM     16  C   UNL     1     103.633 125.010 147.015  0.00  0.00    +0.000 A 
ATOM     17  C   UNL     1     103.561 123.540 146.268  0.00  0.00    +0.000 A 
ATOM     18  C   UNL     1     103.011 124.494 147.178  0.00  0.00    +0.000 A 
ATOM     19  C   UNL     1     102.975 123.759 146.805  0.00  0.00    +0.000 A 
BRANCH  17  20
ATOM     20  O   UNL     1     103.525 122.805 145.895  0.00  0.00    +0.000 OA
ATOM     21  C   UNL     1     103.706 122.740 145.093  0.00  0.00    +0.000 C 
ENDBRANCH  17  20
ENDBRANCH  11  14
BRANCH   5  22
ATOM     22  O   UNL     1     107.355 127.872 144.958  0.00  0.00    +0.000 OA
ATOM     23  C   UNL     1     107.449 128.559 145.404  0.00  0.00    +0.000 C 
ENDBRANCH   5  22
BRANCH  12  24
ATOM     24  O   UNL     1     105.502 124.891 147.511  0.00  0.00    +0.000 OA
ATOM     25  C   UNL     1     106.206 124.799 147.929  0.00  0.00    +0.000 C 
ENDBRANCH  12  24
BRANCH   4  26
ATOM     26  O   UNL     1     106.042 127.770 143.899  0.00  0.00    +0.000 OA
BRANCH  26  33
ATOM     27  O   UNL     1     106.301 126.721 142.964  0.00  0.00    +0.000 OA
ATOM     28  O   UNL     1     104.729 127.762 141.360  0.00  0.00    +0.000 OA
ATOM     29  O   UNL     1     105.511 126.366 140.961  0.00  0.00    +0.000 OA
ATOM     30  C   UNL     1     105.386 127.766 142.630  0.00  0.00    +0.000 C 
ATOM     31  C   UNL     1     105.253 127.415 141.895  0.00  0.00    +0.000 C 
ATOM     32  C   UNL     1     105.644 126.717 141.696  0.00  0.00    +0.000 C 
ATOM     33  C   UNL     1     105.910 127.419 143.165  0.00  0.00    +0.000 C 
ATOM     34  C   UNL     1     106.168 126.370 142.230  0.00  0.00    +0.000 C 
BRANCH  34  36
ATOM     35  O   UNL     1     107.373 125.605 142.148  0.00  0.00    +0.000 OA
ATOM     36  C   UNL     1     106.559 125.672 142.030  0.00  0.00    +0.000 C 
ENDBRANCH  34  36
BRANCH  30  37
ATOM     37  O   UNL     1     104.994 128.464 142.830  0.00  0.00    +0.000 OA
BRANCH  37  42
ATOM     38  O   UNL     1     106.042 129.238 142.239  0.00  0.00    +0.000 OA
ATOM     39  O   UNL     1     104.060 129.819 142.945  0.00  0.00    +0.000 OA
ATOM     40  O   UNL     1     104.639 131.269 142.413  0.00  0.00    +0.000 OA
ATOM     41  O   UNL     1     106.153 131.365 141.764  0.00  0.00    +0.000 OA
ATOM     42  C   UNL     1     105.284 129.190 142.563  0.00  0.00    +0.000 C 
ATOM     43  C   UNL     1     104.817 129.867 142.621  0.00  0.00    +0.000 C 
ATOM     44  C   UNL     1     105.107 130.593 142.355  0.00  0.00    +0.000 C 
ATOM     45  C   UNL     1     105.864 130.640 142.030  0.00  0.00    +0.000 C 
ATOM     46  C   UNL     1     106.331 129.963 141.973  0.00  0.00    +0.000 C 
ATOM     47  C   UNL     1     107.088 130.010 141.648  0.00  0.00    +0.000 C 
ENDBRANCH  37  42
ENDBRANCH  30  37
ENDBRANCH  26  33
ENDBRANCH   4  26
TORSDOF 9
ENDMDL
MODEL 5
REMARK VINA RESULT:      -9.1      1.415      2.760
REMARK  Name = 44259822
REMARK  9 active torsions:
REMARK  status: ('A' for Active; 'I' for Inactive)
REMARK    1  A    between atoms: O_1  and  C_18
REMARK    2  A    between atoms: O_1  and  C_21
REMARK    3  A    between atoms: O_5  and  C_22
REMARK    4  A    between atoms: O_5  and  C_30
REMARK    5  A    between atoms: O_11  and  C_31
REMARK    6  A    between atoms: O_14  and  C_38
REMARK    7  A    between atoms: O_16  and  C_43
REMARK    8  A    between atoms: C_24  and  C_28
REMARK    9  A    between atoms: C_37  and  C_40
REMARK                            x       y       z     vdW  Elec       q    Type
REMARK                         _______ _______ _______ _____ _____    ______ ____
ROOT
ATOM      1  O   UNL     1     110.963 130.016 137.564  0.00  0.00    +0.000 OA
ATOM      2  O   UNL     1     111.132 128.614 140.084  0.00  0.00    +0.000 OA
ATOM      3  O   UNL     1     110.858 130.029 140.037  0.00  0.00    +0.000 OA
ATOM      4  C   UNL     1     111.366 127.859 137.988  0.00  0.00    +0.000 A 
ATOM      5  C   UNL     1     111.329 127.864 138.847  0.00  0.00    +0.000 A 
ATOM      6  C   UNL     1     111.241 128.591 137.555  0.00  0.00    +0.000 A 
ATOM      7  C   UNL     1     111.082 129.317 137.986  0.00  0.00    +0.000 A 
ATOM      8  C   UNL     1     111.169 128.600 139.260  0.00  0.00    +0.000 A 
ATOM      9  C   UNL     1     111.047 129.321 138.810  0.00  0.00    +0.000 A 
ATOM     10  C   UNL     1     110.893 130.024 139.213  0.00  0.00    +0.000 A 
ATOM     11  C   UNL     1     110.809 130.720 137.967  0.00  0.00    +0.000 A 
ATOM     12  C   UNL     1     110.774 130.724 138.791  0.00  0.00    +0.000 A 
ENDROOT
BRANCH  11  14
ATOM     13  O   UNL     1     110.333 133.516 136.281  0.00  0.00    +0.000 OA
ATOM     14  C   UNL     1     110.690 131.419 137.545  0.00  0.00    +0.000 A 
ATOM     15  C   UNL     1     109.937 131.609 137.267  0.00  0.00    +0.000 A 
ATOM     16  C   UNL     1     111.324 131.927 137.402  0.00  0.00    +0.000 A 
ATOM     17  C   UNL     1     109.818 132.309 136.846  0.00  0.00    +0.000 A 
ATOM     18  C   UNL     1     111.204 132.626 136.981  0.00  0.00    +0.000 A 
ATOM     19  C   UNL     1     110.452 132.817 136.703  0.00  0.00    +0.000 A 
BRANCH  17  20
ATOM     20  O   UNL     1     109.065 132.500 136.568  0.00  0.00    +0.000 OA
ATOM     21  C   UNL     1     108.563 131.905 136.294  0.00  0.00    +0.000 C 
ENDBRANCH  17  20
ENDBRANCH  11  14
BRANCH   5  22
ATOM     22  O   UNL     1     111.448 127.166 139.271  0.00  0.00    +0.000 OA
ATOM     23  C   UNL     1     112.123 127.076 139.736  0.00  0.00    +0.000 C 
ENDBRANCH   5  22
BRANCH  12  24
ATOM     24  O   UNL     1     110.621 131.427 139.194  0.00  0.00    +0.000 OA
ATOM     25  C   UNL     1     110.269 131.407 139.939  0.00  0.00    +0.000 C 
ENDBRANCH  12  24
BRANCH   4  26
ATOM     26  O   UNL     1     111.519 127.157 137.583  0.00  0.00    +0.000 OA
BRANCH  26  33
ATOM     27  O   UNL     1     110.217 127.024 137.010  0.00  0.00    +0.000 OA
ATOM     28  O   UNL     1     111.216 126.053 134.964  0.00  0.00    +0.000 OA
ATOM     29  O   UNL     1     109.582 126.243 135.074  0.00  0.00    +0.000 OA
ATOM     30  C   UNL     1     111.368 126.605 136.274  0.00  0.00    +0.000 C 
ATOM     31  C   UNL     1     110.883 126.377 135.646  0.00  0.00    +0.000 C 
ATOM     32  C   UNL     1     110.065 126.472 135.701  0.00  0.00    +0.000 C 
ATOM     33  C   UNL     1     111.035 126.929 136.956  0.00  0.00    +0.000 C 
ATOM     34  C   UNL     1     109.732 126.795 136.383  0.00  0.00    +0.000 C 
BRANCH  34  36
ATOM     35  O   UNL     1     108.528 126.738 137.150  0.00  0.00    +0.000 OA
ATOM     36  C   UNL     1     108.915 126.890 136.438  0.00  0.00    +0.000 C 
ENDBRANCH  34  36
BRANCH  30  37
ATOM     37  O   UNL     1     112.185 126.510 136.219  0.00  0.00    +0.000 OA
BRANCH  37  42
ATOM     38  O   UNL     1     112.059 125.153 136.650  0.00  0.00    +0.000 OA
ATOM     39  O   UNL     1     113.829 126.371 136.264  0.00  0.00    +0.000 OA
ATOM     40  O   UNL     1     114.524 124.945 136.716  0.00  0.00    +0.000 OA
ATOM     41  O   UNL     1     113.576 123.658 137.124  0.00  0.00    +0.000 OA
ATOM     42  C   UNL     1     112.533 125.796 136.446  0.00  0.00    +0.000 C 
ATOM     43  C   UNL     1     113.355 125.728 136.468  0.00  0.00    +0.000 C 
ATOM     44  C   UNL     1     113.703 125.014 136.694  0.00  0.00    +0.000 C 
ATOM     45  C   UNL     1     113.229 124.370 136.898  0.00  0.00    +0.000 C 
ATOM     46  C   UNL     1     112.407 124.440 136.876  0.00  0.00    +0.000 C 
ATOM     47  C   UNL     1     111.933 123.796 137.080  0.00  0.00    +0.000 C 
ENDBRANCH  37  42
ENDBRANCH  30  37
ENDBRANCH  26  33
ENDBRANCH   4  26
TORSDOF 9
ENDMDL
MODEL 6
REMARK VINA RESULT:      -9.1      1.984      6.424
REMARK  Name = 44259822
REMARK  9 active torsions:
REMARK  status: ('A' for Active; 'I' for Inactive)
REMARK    1  A    between atoms: O_1  and  C_18
REMARK    2  A    between atoms: O_1  and  C_21
REMARK    3  A    between atoms: O_5  and  C_22
REMARK    4  A    between atoms: O_5  and  C_30
REMARK    5  A    between atoms: O_11  and  C_31
REMARK    6  A    between atoms: O_14  and  C_38
REMARK    7  A    between atoms: O_16  and  C_43
REMARK    8  A    between atoms: C_24  and  C_28
REMARK    9  A    between atoms: C_37  and  C_40
REMARK                            x       y       z     vdW  Elec       q    Type
REMARK                         _______ _______ _______ _____ _____    ______ ____
ROOT
ATOM      1  O   UNL     1     112.524 127.144 136.816  0.00  0.00    +0.000 OA
ATOM      2  O   UNL     1     114.187 129.275 135.797  0.00  0.00    +0.000 OA
ATOM      3  O   UNL     1     114.647 127.908 135.797  0.00  0.00    +0.000 OA
ATOM      4  C   UNL     1     112.125 129.338 136.671  0.00  0.00    +0.000 A 
ATOM      5  C   UNL     1     112.862 129.603 136.317  0.00  0.00    +0.000 A 
ATOM      6  C   UNL     1     112.012 128.503 136.839  0.00  0.00    +0.000 A 
ATOM      7  C   UNL     1     112.638 127.944 136.652  0.00  0.00    +0.000 A 
ATOM      8  C   UNL     1     113.476 129.030 136.137  0.00  0.00    +0.000 A 
ATOM      9  C   UNL     1     113.345 128.199 136.313  0.00  0.00    +0.000 A 
ATOM     10  C   UNL     1     113.939 127.654 136.137  0.00  0.00    +0.000 A 
ATOM     11  C   UNL     1     113.118 126.598 136.641  0.00  0.00    +0.000 A 
ATOM     12  C   UNL     1     113.825 126.853 136.301  0.00  0.00    +0.000 A 
ENDROOT
BRANCH  11  14
ATOM     13  O   UNL     1     112.662 123.396 137.296  0.00  0.00    +0.000 OA
ATOM     14  C   UNL     1     113.004 125.798 136.804  0.00  0.00    +0.000 A 
ATOM     15  C   UNL     1     112.450 125.363 136.373  0.00  0.00    +0.000 A 
ATOM     16  C   UNL     1     113.443 125.432 137.399  0.00  0.00    +0.000 A 
ATOM     17  C   UNL     1     112.337 124.563 136.537  0.00  0.00    +0.000 A 
ATOM     18  C   UNL     1     113.329 124.632 137.563  0.00  0.00    +0.000 A 
ATOM     19  C   UNL     1     112.776 124.197 137.132  0.00  0.00    +0.000 A 
BRANCH  17  20
ATOM     20  O   UNL     1     111.784 124.128 136.106  0.00  0.00    +0.000 OA
ATOM     21  C   UNL     1     111.171 124.515 135.711  0.00  0.00    +0.000 C 
ENDBRANCH  17  20
ENDBRANCH  11  14
BRANCH   5  22
ATOM     22  O   UNL     1     112.979 130.403 136.152  0.00  0.00    +0.000 OA
ATOM     23  C   UNL     1     113.533 130.836 136.583  0.00  0.00    +0.000 C 
ENDBRANCH   5  22
BRANCH  12  24
ATOM     24  O   UNL     1     114.418 126.308 136.126  0.00  0.00    +0.000 OA
ATOM     25  C   UNL     1     114.966 126.471 135.532  0.00  0.00    +0.000 C 
ENDBRANCH  12  24
BRANCH   4  26
ATOM     26  O   UNL     1     111.530 129.881 136.847  0.00  0.00    +0.000 OA
BRANCH  26  33
ATOM     27  O   UNL     1     110.632 129.465 135.817  0.00  0.00    +0.000 OA
ATOM     28  O   UNL     1     108.708 129.936 137.302  0.00  0.00    +0.000 OA
ATOM     29  O   UNL     1     108.452 129.363 135.777  0.00  0.00    +0.000 OA
ATOM     30  C   UNL     1     110.120 129.909 137.075  0.00  0.00    +0.000 C 
ATOM     31  C   UNL     1     109.350 129.779 136.807  0.00  0.00    +0.000 C 
ATOM     32  C   UNL     1     109.222 129.492 136.044  0.00  0.00    +0.000 C 
ATOM     33  C   UNL     1     110.761 129.752 136.580  0.00  0.00    +0.000 C 
ATOM     34  C   UNL     1     109.863 129.336 135.549  0.00  0.00    +0.000 C 
BRANCH  34  36
ATOM     35  O   UNL     1     109.882 128.256 134.612  0.00  0.00    +0.000 OA
ATOM     36  C   UNL     1     109.734 129.049 134.787  0.00  0.00    +0.000 C 
ENDBRANCH  34  36
BRANCH  30  37
ATOM     37  O   UNL     1     110.247 130.195 137.838  0.00  0.00    +0.000 OA
BRANCH  37  42
ATOM     38  O   UNL     1     110.206 131.539 137.351  0.00  0.00    +0.000 OA
ATOM     39  O   UNL     1     110.230 130.756 139.389  0.00  0.00    +0.000 OA
ATOM     40  O   UNL     1     110.179 132.380 139.679  0.00  0.00    +0.000 OA
ATOM     41  O   UNL     1     110.147 133.442 138.416  0.00  0.00    +0.000 OA
ATOM     42  C   UNL     1     110.222 131.008 137.982  0.00  0.00    +0.000 C 
ATOM     43  C   UNL     1     110.213 131.288 138.758  0.00  0.00    +0.000 C 
ATOM     44  C   UNL     1     110.188 132.100 138.903  0.00  0.00    +0.000 C 
ATOM     45  C   UNL     1     110.172 132.631 138.272  0.00  0.00    +0.000 C 
ATOM     46  C   UNL     1     110.181 132.350 137.496  0.00  0.00    +0.000 C 
ATOM     47  C   UNL     1     110.165 132.881 136.865  0.00  0.00    +0.000 C 
ENDBRANCH  37  42
ENDBRANCH  30  37
ENDBRANCH  26  33
ENDBRANCH   4  26
TORSDOF 9
ENDMDL
MODEL 7
REMARK VINA RESULT:      -9.0      3.216      5.985
REMARK  Name = 44259822
REMARK  9 active torsions:
REMARK  status: ('A' for Active; 'I' for Inactive)
REMARK    1  A    between atoms: O_1  and  C_18
REMARK    2  A    between atoms: O_1  and  C_21
REMARK    3  A    between atoms: O_5  and  C_22
REMARK    4  A    between atoms: O_5  and  C_30
REMARK    5  A    between atoms: O_11  and  C_31
REMARK    6  A    between atoms: O_14  and  C_38
REMARK    7  A    between atoms: O_16  and  C_43
REMARK    8  A    between atoms: C_24  and  C_28
REMARK    9  A    between atoms: C_37  and  C_40
REMARK                            x       y       z     vdW  Elec       q    Type
REMARK                         _______ _______ _______ _____ _____    ______ ____
ROOT
ATOM      1  O   UNL     1     111.905 128.609 137.322  0.00  0.00    +0.000 OA
ATOM      2  O   UNL     1     114.179 130.318 137.827  0.00  0.00    +0.000 OA
ATOM      3  O   UNL     1     114.063 129.578 136.594  0.00  0.00    +0.000 OA
ATOM      4  C   UNL     1     112.388 129.877 139.098  0.00  0.00    +0.000 A 
ATOM      5  C   UNL     1     113.137 130.213 138.845  0.00  0.00    +0.000 A 
ATOM      6  C   UNL     1     111.971 129.332 138.579  0.00  0.00    +0.000 A 
ATOM      7  C   UNL     1     112.309 129.132 137.816  0.00  0.00    +0.000 A 
ATOM      8  C   UNL     1     113.460 130.001 138.078  0.00  0.00    +0.000 A 
ATOM      9  C   UNL     1     113.029 129.455 137.573  0.00  0.00    +0.000 A 
ATOM     10  C   UNL     1     113.344 129.255 136.837  0.00  0.00    +0.000 A 
ATOM     11  C   UNL     1     112.220 128.409 136.586  0.00  0.00    +0.000 A 
ATOM     12  C   UNL     1     112.939 128.732 136.344  0.00  0.00    +0.000 A 
ENDROOT
BRANCH  11  14
ATOM     13  O   UNL     1     110.602 126.317 134.613  0.00  0.00    +0.000 OA
ATOM     14  C   UNL     1     111.815 127.886 136.093  0.00  0.00    +0.000 A 
ATOM     15  C   UNL     1     111.921 127.072 136.180  0.00  0.00    +0.000 A 
ATOM     16  C   UNL     1     111.306 128.177 135.512  0.00  0.00    +0.000 A 
ATOM     17  C   UNL     1     111.516 126.549 135.686  0.00  0.00    +0.000 A 
ATOM     18  C   UNL     1     110.902 127.653 135.020  0.00  0.00    +0.000 A 
ATOM     19  C   UNL     1     111.007 126.840 135.106  0.00  0.00    +0.000 A 
BRANCH  17  20
ATOM     20  O   UNL     1     111.621 125.735 135.773  0.00  0.00    +0.000 OA
ATOM     21  C   UNL     1     111.649 125.401 136.527  0.00  0.00    +0.000 C 
ENDBRANCH  17  20
ENDBRANCH  11  14
BRANCH   5  22
ATOM     22  O   UNL     1     113.544 130.736 139.336  0.00  0.00    +0.000 OA
ATOM     23  C   UNL     1     114.243 130.498 139.704  0.00  0.00    +0.000 C 
ENDBRANCH   5  22
BRANCH  12  24
ATOM     24  O   UNL     1     113.254 128.532 135.608  0.00  0.00    +0.000 OA
ATOM     25  C   UNL     1     114.009 128.788 135.399  0.00  0.00    +0.000 C 
ENDBRANCH  12  24
BRANCH   4  26
ATOM     26  O   UNL     1     112.071 130.075 139.834  0.00  0.00    +0.000 OA
BRANCH  26  33
ATOM     27  O   UNL     1     111.048 130.966 139.384  0.00  0.00    +0.000 OA
ATOM     28  O   UNL     1     109.485 130.013 141.048  0.00  0.00    +0.000 OA
ATOM     29  O   UNL     1     108.984 131.221 140.044  0.00  0.00    +0.000 OA
ATOM     30  C   UNL     1     110.778 130.044 140.441  0.00  0.00    +0.000 C 
ATOM     31  C   UNL     1     110.006 130.331 140.494  0.00  0.00    +0.000 C 
ATOM     32  C   UNL     1     109.756 130.935 139.991  0.00  0.00    +0.000 C 
ATOM     33  C   UNL     1     111.300 130.362 139.886  0.00  0.00    +0.000 C 
ATOM     34  C   UNL     1     110.277 131.253 139.436  0.00  0.00    +0.000 C 
BRANCH  34  36
ATOM     35  O   UNL     1     110.495 132.528 138.829  0.00  0.00    +0.000 OA
ATOM     36  C   UNL     1     110.027 131.857 138.934  0.00  0.00    +0.000 C 
ENDBRANCH  34  36
BRANCH  30  37
ATOM     37  O   UNL     1     111.028 129.440 140.944  0.00  0.00    +0.000 OA
BRANCH  37  42
ATOM     38  O   UNL     1     111.450 130.394 141.921  0.00  0.00    +0.000 OA
ATOM     39  O   UNL     1     111.141 128.238 142.069  0.00  0.00    +0.000 OA
ATOM     40  O   UNL     1     111.619 128.592 143.608  0.00  0.00    +0.000 OA
ATOM     41  O   UNL     1     111.984 130.147 144.022  0.00  0.00    +0.000 OA
ATOM     42  C   UNL     1     111.267 129.617 141.714  0.00  0.00    +0.000 C 
ATOM     43  C   UNL     1     111.323 129.016 142.276  0.00  0.00    +0.000 C 
ATOM     44  C   UNL     1     111.563 129.193 143.046  0.00  0.00    +0.000 C 
ATOM     45  C   UNL     1     111.745 129.970 143.253  0.00  0.00    +0.000 C 
ATOM     46  C   UNL     1     111.689 130.571 142.690  0.00  0.00    +0.000 C 
ATOM     47  C   UNL     1     111.871 131.348 142.897  0.00  0.00    +0.000 C 
ENDBRANCH  37  42
ENDBRANCH  30  37
ENDBRANCH  26  33
ENDBRANCH   4  26
TORSDOF 9
ENDMDL
MODEL 8
REMARK VINA RESULT:      -9.0      5.671      8.861
REMARK  Name = 44259822
REMARK  9 active torsions:
REMARK  status: ('A' for Active; 'I' for Inactive)
REMARK    1  A    between atoms: O_1  and  C_18
REMARK    2  A    between atoms: O_1  and  C_21
REMARK    3  A    between atoms: O_5  and  C_22
REMARK    4  A    between atoms: O_5  and  C_30
REMARK    5  A    between atoms: O_11  and  C_31
REMARK    6  A    between atoms: O_14  and  C_38
REMARK    7  A    between atoms: O_16  and  C_43
REMARK    8  A    between atoms: C_24  and  C_28
REMARK    9  A    between atoms: C_37  and  C_40
REMARK                            x       y       z     vdW  Elec       q    Type
REMARK                         _______ _______ _______ _____ _____    ______ ____
ROOT
ATOM      1  O   UNL     1     106.146 125.892 144.752  0.00  0.00    +0.000 OA
ATOM      2  O   UNL     1     105.345 128.335 143.435  0.00  0.00    +0.000 OA
ATOM      3  O   UNL     1     105.468 128.270 144.870  0.00  0.00    +0.000 OA
ATOM      4  C   UNL     1     105.863 126.330 142.579  0.00  0.00    +0.000 A 
ATOM      5  C   UNL     1     105.627 127.156 142.621  0.00  0.00    +0.000 A 
ATOM      6  C   UNL     1     106.039 125.903 143.304  0.00  0.00    +0.000 A 
ATOM      7  C   UNL     1     105.976 126.307 144.060  0.00  0.00    +0.000 A 
ATOM      8  C   UNL     1     105.571 127.543 143.385  0.00  0.00    +0.000 A 
ATOM      9  C   UNL     1     105.750 127.100 144.099  0.00  0.00    +0.000 A 
ATOM     10  C   UNL     1     105.694 127.477 144.830  0.00  0.00    +0.000 A 
ATOM     11  C   UNL     1     106.090 126.269 145.484  0.00  0.00    +0.000 A 
ATOM     12  C   UNL     1     105.864 127.062 145.523  0.00  0.00    +0.000 A 
ENDROOT
BRANCH  11  14
ATOM     13  O   UNL     1     106.769 124.609 148.254  0.00  0.00    +0.000 OA
ATOM     14  C   UNL     1     106.260 125.854 146.177  0.00  0.00    +0.000 A 
ATOM     15  C   UNL     1     105.674 125.400 146.539  0.00  0.00    +0.000 A 
ATOM     16  C   UNL     1     107.015 125.894 146.506  0.00  0.00    +0.000 A 
ATOM     17  C   UNL     1     105.843 124.985 147.231  0.00  0.00    +0.000 A 
ATOM     18  C   UNL     1     107.184 125.479 147.198  0.00  0.00    +0.000 A 
ATOM     19  C   UNL     1     106.599 125.024 147.561  0.00  0.00    +0.000 A 
BRANCH  17  20
ATOM     20  O   UNL     1     105.258 124.530 147.594  0.00  0.00    +0.000 OA
ATOM     21  C   UNL     1     104.598 124.288 147.163  0.00  0.00    +0.000 C 
ENDBRANCH  17  20
ENDBRANCH  11  14
BRANCH   5  22
ATOM     22  O   UNL     1     105.457 127.574 141.930  0.00  0.00    +0.000 OA
ATOM     23  C   UNL     1     104.681 127.804 141.768  0.00  0.00    +0.000 C 
ENDBRANCH   5  22
BRANCH  12  24
ATOM     24  O   UNL     1     105.807 127.439 146.254  0.00  0.00    +0.000 OA
ATOM     25  C   UNL     1     105.567 128.226 146.295  0.00  0.00    +0.000 C 
ENDBRANCH  12  24
BRANCH   4  26
ATOM     26  O   UNL     1     105.920 125.950 141.849  0.00  0.00    +0.000 OA
BRANCH  26  33
ATOM     27  O   UNL     1     107.318 126.062 141.576  0.00  0.00    +0.000 OA
ATOM     28  O   UNL     1     107.400 123.653 141.014  0.00  0.00    +0.000 OA
ATOM     29  O   UNL     1     108.770 124.567 140.928  0.00  0.00    +0.000 OA
ATOM     30  C   UNL     1     106.659 124.802 141.431  0.00  0.00    +0.000 C 
ATOM     31  C   UNL     1     107.373 124.456 141.201  0.00  0.00    +0.000 C 
ATOM     32  C   UNL     1     108.058 124.913 141.158  0.00  0.00    +0.000 C 
ATOM     33  C   UNL     1     106.632 125.605 141.619  0.00  0.00    +0.000 C 
ATOM     34  C   UNL     1     108.030 125.716 141.345  0.00  0.00    +0.000 C 
BRANCH  34  36
ATOM     35  O   UNL     1     108.702 126.903 140.917  0.00  0.00    +0.000 OA
ATOM     36  C   UNL     1     108.715 126.173 141.302  0.00  0.00    +0.000 C 
ENDBRANCH  34  36
BRANCH  30  37
ATOM     37  O   UNL     1     105.974 124.345 141.474  0.00  0.00    +0.000 OA
BRANCH  37  42
ATOM     38  O   UNL     1     105.663 124.643 140.111  0.00  0.00    +0.000 OA
ATOM     39  O   UNL     1     104.848 123.139 141.467  0.00  0.00    +0.000 OA
ATOM     40  O   UNL     1     103.974 122.835 140.101  0.00  0.00    +0.000 OA
ATOM     41  O   UNL     1     104.226 123.736 138.742  0.00  0.00    +0.000 OA
ATOM     42  C   UNL     1     105.537 124.193 140.791  0.00  0.00    +0.000 C 
ATOM     43  C   UNL     1     104.974 123.590 140.788  0.00  0.00    +0.000 C 
ATOM     44  C   UNL     1     104.537 123.438 140.104  0.00  0.00    +0.000 C 
ATOM     45  C   UNL     1     104.663 123.888 139.425  0.00  0.00    +0.000 C 
ATOM     46  C   UNL     1     105.226 124.491 139.429  0.00  0.00    +0.000 C 
ATOM     47  C   UNL     1     105.352 124.942 138.750  0.00  0.00    +0.000 C 
ENDBRANCH  37  42
ENDBRANCH  30  37
ENDBRANCH  26  33
ENDBRANCH   4  26
TORSDOF 9
ENDMDL
MODEL 9
REMARK VINA RESULT:      -9.0      2.815      6.160
REMARK  Name = 44259822
REMARK  9 active torsions:
REMARK  status: ('A' for Active; 'I' for Inactive)
REMARK    1  A    between atoms: O_1  and  C_18
REMARK    2  A    between atoms: O_1  and  C_21
REMARK    3  A    between atoms: O_5  and  C_22
REMARK    4  A    between atoms: O_5  and  C_30
REMARK    5  A    between atoms: O_11  and  C_31
REMARK    6  A    between atoms: O_14  and  C_38
REMARK    7  A    between atoms: O_16  and  C_43
REMARK    8  A    between atoms: C_24  and  C_28
REMARK    9  A    between atoms: C_37  and  C_40
REMARK                            x       y       z     vdW  Elec       q    Type
REMARK                         _______ _______ _______ _____ _____    ______ ____
ROOT
ATOM      1  O   UNL     1     111.901 126.674 137.660  0.00  0.00    +0.000 OA
ATOM      2  O   UNL     1     114.357 126.180 139.098  0.00  0.00    +0.000 OA
ATOM      3  O   UNL     1     114.021 125.423 137.917  0.00  0.00    +0.000 OA
ATOM      4  C   UNL     1     112.716 127.651 139.498  0.00  0.00    +0.000 A 
ATOM      5  C   UNL     1     113.451 127.216 139.587  0.00  0.00    +0.000 A 
ATOM      6  C   UNL     1     112.190 127.465 138.843  0.00  0.00    +0.000 A 
ATOM      7  C   UNL     1     112.409 126.848 138.286  0.00  0.00    +0.000 A 
ATOM      8  C   UNL     1     113.653 126.602 139.020  0.00  0.00    +0.000 A 
ATOM      9  C   UNL     1     113.115 126.431 138.372  0.00  0.00    +0.000 A 
ATOM     10  C   UNL     1     113.314 125.841 137.832  0.00  0.00    +0.000 A 
ATOM     11  C   UNL     1     112.100 126.084 137.119  0.00  0.00    +0.000 A 
ATOM     12  C   UNL     1     112.807 125.667 137.205  0.00  0.00    +0.000 A 
ENDROOT
BRANCH  11  14
ATOM     13  O   UNL     1     110.069 125.390 134.612  0.00  0.00    +0.000 OA
ATOM     14  C   UNL     1     111.592 125.910 136.492  0.00  0.00    +0.000 A 
ATOM     15  C   UNL     1     111.514 126.442 135.866  0.00  0.00    +0.000 A 
ATOM     16  C   UNL     1     111.163 125.205 136.492  0.00  0.00    +0.000 A 
ATOM     17  C   UNL     1     111.006 126.269 135.239  0.00  0.00    +0.000 A 
ATOM     18  C   UNL     1     110.656 125.033 135.865  0.00  0.00    +0.000 A 
ATOM     19  C   UNL     1     110.577 125.564 135.239  0.00  0.00    +0.000 A 
BRANCH  17  20
ATOM     20  O   UNL     1     110.927 126.800 134.613  0.00  0.00    +0.000 OA
ATOM     21  C   UNL     1     110.851 127.608 134.764  0.00  0.00    +0.000 C 
ENDBRANCH  17  20
ENDBRANCH  11  14
BRANCH   5  22
ATOM     22  O   UNL     1     113.962 127.387 140.213  0.00  0.00    +0.000 OA
ATOM     23  C   UNL     1     114.027 126.863 140.846  0.00  0.00    +0.000 C 
ENDBRANCH   5  22
BRANCH  12  24
ATOM     24  O   UNL     1     113.006 125.077 136.664  0.00  0.00    +0.000 OA
ATOM     25  C   UNL     1     113.786 124.818 136.604  0.00  0.00    +0.000 C 
ENDBRANCH  12  24
BRANCH   4  26
ATOM     26  O   UNL     1     112.514 128.242 140.037  0.00  0.00    +0.000 OA
BRANCH  26  33
ATOM     27  O   UNL     1     112.682 129.368 139.174  0.00  0.00    +0.000 OA
ATOM     28  O   UNL     1     110.654 130.409 140.137  0.00  0.00    +0.000 OA
ATOM     29  O   UNL     1     111.498 131.187 138.953  0.00  0.00    +0.000 OA
ATOM     30  C   UNL     1     111.584 129.325 140.087  0.00  0.00    +0.000 C 
ATOM     31  C   UNL     1     111.330 130.062 139.816  0.00  0.00    +0.000 C 
ATOM     32  C   UNL     1     111.752 130.451 139.224  0.00  0.00    +0.000 C 
ATOM     33  C   UNL     1     112.260 128.978 139.766  0.00  0.00    +0.000 C 
ATOM     34  C   UNL     1     112.428 130.104 138.903  0.00  0.00    +0.000 C 
BRANCH  34  36
ATOM     35  O   UNL     1     113.666 130.592 138.382  0.00  0.00    +0.000 OA
ATOM     36  C   UNL     1     112.850 130.493 138.311  0.00  0.00    +0.000 C 
ENDBRANCH  34  36
BRANCH  30  37
ATOM     37  O   UNL     1     111.162 128.936 140.680  0.00  0.00    +0.000 OA
BRANCH  37  42
ATOM     38  O   UNL     1     111.876 129.674 141.674  0.00  0.00    +0.000 OA
ATOM     39  O   UNL     1     110.358 128.117 141.866  0.00  0.00    +0.000 OA
ATOM     40  O   UNL     1     110.669 128.447 143.452  0.00  0.00    +0.000 OA
ATOM     41  O   UNL     1     111.785 129.594 143.852  0.00  0.00    +0.000 OA
ATOM     42  C   UNL     1     111.318 129.100 141.473  0.00  0.00    +0.000 C 
ATOM     43  C   UNL     1     110.916 128.691 142.066  0.00  0.00    +0.000 C 
ATOM     44  C   UNL     1     111.072 128.856 142.860  0.00  0.00    +0.000 C 
ATOM     45  C   UNL     1     111.630 129.430 143.060  0.00  0.00    +0.000 C 
ATOM     46  C   UNL     1     112.032 129.839 142.466  0.00  0.00    +0.000 C 
ATOM     47  C   UNL     1     112.590 130.412 142.666  0.00  0.00    +0.000 C 
ENDBRANCH  37  42
ENDBRANCH  30  37
ENDBRANCH  26  33
ENDBRANCH   4  26
TORSDOF 9
ENDMDL
MODEL 10
REMARK VINA RESULT:      -9.0      2.795      5.621
REMARK  Name = 44259822
REMARK  9 active torsions:
REMARK  status: ('A' for Active; 'I' for Inactive)
REMARK    1  A    between atoms: O_1  and  C_18
REMARK    2  A    between atoms: O_1  and  C_21
REMARK    3  A    between atoms: O_5  and  C_22
REMARK    4  A    between atoms: O_5  and  C_30
REMARK    5  A    between atoms: O_11  and  C_31
REMARK    6  A    between atoms: O_14  and  C_38
REMARK    7  A    between atoms: O_16  and  C_43
REMARK    8  A    between atoms: C_24  and  C_28
REMARK    9  A    between atoms: C_37  and  C_40
REMARK                            x       y       z     vdW  Elec       q    Type
REMARK                         _______ _______ _______ _____ _____    ______ ____
ROOT
ATOM      1  O   UNL     1     111.974 126.896 137.841  0.00  0.00    +0.000 OA
ATOM      2  O   UNL     1     110.910 129.408 136.890  0.00  0.00    +0.000 OA
ATOM      3  O   UNL     1     111.116 128.300 135.991  0.00  0.00    +0.000 OA
ATOM      4  C   UNL     1     111.537 128.788 138.949  0.00  0.00    +0.000 A 
ATOM      5  C   UNL     1     111.240 129.274 138.307  0.00  0.00    +0.000 A 
ATOM      6  C   UNL     1     111.786 127.980 138.789  0.00  0.00    +0.000 A 
ATOM      7  C   UNL     1     111.734 127.672 137.989  0.00  0.00    +0.000 A 
ATOM      8  C   UNL     1     111.195 128.948 137.513  0.00  0.00    +0.000 A 
ATOM      9  C   UNL     1     111.448 128.139 137.372  0.00  0.00    +0.000 A 
ATOM     10  C   UNL     1     111.402 127.832 136.608  0.00  0.00    +0.000 A 
ATOM     11  C   UNL     1     111.928 126.589 137.076  0.00  0.00    +0.000 A 
ATOM     12  C   UNL     1     111.642 127.057 136.460  0.00  0.00    +0.000 A 
ENDROOT
BRANCH  11  14
ATOM     13  O   UNL     1     112.890 123.488 136.485  0.00  0.00    +0.000 OA
ATOM     14  C   UNL     1     112.169 125.813 136.929  0.00  0.00    +0.000 A 
ATOM     15  C   UNL     1     112.964 125.650 136.779  0.00  0.00    +0.000 A 
ATOM     16  C   UNL     1     111.614 125.202 136.930  0.00  0.00    +0.000 A 
ATOM     17  C   UNL     1     113.204 124.875 136.631  0.00  0.00    +0.000 A 
ATOM     18  C   UNL     1     111.855 124.428 136.782  0.00  0.00    +0.000 A 
ATOM     19  C   UNL     1     112.650 124.263 136.633  0.00  0.00    +0.000 A 
BRANCH  17  20
ATOM     20  O   UNL     1     113.999 124.710 136.482  0.00  0.00    +0.000 OA
ATOM     21  C   UNL     1     114.582 124.998 136.990  0.00  0.00    +0.000 C 
ENDBRANCH  17  20
ENDBRANCH  11  14
BRANCH   5  22
ATOM     22  O   UNL     1     110.999 130.050 138.451  0.00  0.00    +0.000 OA
ATOM     23  C   UNL     1     111.452 130.681 138.174  0.00  0.00    +0.000 C 
ENDBRANCH   5  22
BRANCH  12  24
ATOM     24  O   UNL     1     111.597 126.749 135.696  0.00  0.00    +0.000 OA
ATOM     25  C   UNL     1     111.211 127.173 135.103  0.00  0.00    +0.000 C 
ENDBRANCH  12  24
BRANCH   4  26
ATOM     26  O   UNL     1     111.584 129.092 139.714  0.00  0.00    +0.000 OA
BRANCH  26  33
ATOM     27  O   UNL     1     110.559 128.304 140.321  0.00  0.00    +0.000 OA
ATOM     28  O   UNL     1     111.972 128.010 142.331  0.00  0.00    +0.000 OA
ATOM     29  O   UNL     1     110.476 127.320 142.267  0.00  0.00    +0.000 OA
ATOM     30  C   UNL     1     111.778 128.552 141.022  0.00  0.00    +0.000 C 
ATOM     31  C   UNL     1     111.501 128.108 141.661  0.00  0.00    +0.000 C 
ATOM     32  C   UNL     1     110.753 127.763 141.628  0.00  0.00    +0.000 C 
ATOM     33  C   UNL     1     111.307 128.649 140.352  0.00  0.00    +0.000 C 
ATOM     34  C   UNL     1     110.281 127.861 140.958  0.00  0.00    +0.000 C 
BRANCH  34  36
ATOM     35  O   UNL     1     108.893 127.943 140.630  0.00  0.00    +0.000 OA
ATOM     36  C   UNL     1     109.534 127.515 140.927  0.00  0.00    +0.000 C 
ENDBRANCH  34  36
BRANCH  30  37
ATOM     37  O   UNL     1     112.527 128.897 141.054  0.00  0.00    +0.000 OA
BRANCH  37  42
ATOM     38  O   UNL     1     111.987 130.003 141.782  0.00  0.00    +0.000 OA
ATOM     39  O   UNL     1     113.997 129.645 141.009  0.00  0.00    +0.000 OA
ATOM     40  O   UNL     1     114.192 131.124 141.714  0.00  0.00    +0.000 OA
ATOM     41  O   UNL     1     112.917 131.855 142.464  0.00  0.00    +0.000 OA
ATOM     42  C   UNL     1     112.624 129.637 141.407  0.00  0.00    +0.000 C 
ATOM     43  C   UNL     1     113.360 130.010 141.384  0.00  0.00    +0.000 C 
ATOM     44  C   UNL     1     113.457 130.751 141.737  0.00  0.00    +0.000 C 
ATOM     45  C   UNL     1     112.820 131.116 142.112  0.00  0.00    +0.000 C 
ATOM     46  C   UNL     1     112.085 130.742 142.134  0.00  0.00    +0.000 C 
ATOM     47  C   UNL     1     111.447 131.107 142.509  0.00  0.00    +0.000 C 
ENDBRANCH  37  42
ENDBRANCH  30  37
ENDBRANCH  26  33
ENDBRANCH   4  26
TORSDOF 9
ENDMDL
