MODEL 1
REMARK VINA RESULT:      -8.9      0.000      0.000
REMARK  Name = 44259872
REMARK  2 active torsions:
REMARK  status: ('A' for Active; 'I' for Inactive)
REMARK    1  A    between atoms: O_4  and  C_17
REMARK    2  A    between atoms: C_14  and  C_18
REMARK                            x       y       z     vdW  Elec       q    Type
REMARK                         _______ _______ _______ _____ _____    ______ ____
ROOT
ATOM      1  O   UNL     1     104.818 124.128 146.736  0.00  0.00    +0.000 OA
ATOM      2  O   UNL     1     101.618 123.479 146.165  0.00  0.00    +0.000 OA
ATOM      3  O   UNL     1     102.513 122.739 145.520  0.00  0.00    +0.000 OA
ATOM      4  O   UNL     1     102.059 124.786 147.307  0.00  0.00    +0.000 OA
ATOM      5  O   UNL     1     103.105 125.533 147.961  0.00  0.00    +0.000 OA
ATOM      6  C   UNL     1     103.420 124.459 147.024  0.00  0.00    +0.000 A 
ATOM      7  C   UNL     1     103.976 123.999 146.623  0.00  0.00    +0.000 A 
ATOM      8  C   UNL     1     102.364 123.734 146.389  0.00  0.00    +0.000 A 
ATOM      9  C   UNL     1     102.615 124.326 146.907  0.00  0.00    +0.000 A 
ATOM     10  C   UNL     1     102.920 123.275 145.989  0.00  0.00    +0.000 A 
ATOM     11  C   UNL     1     105.084 124.743 147.274  0.00  0.00    +0.000 A 
ATOM     12  C   UNL     1     103.726 123.407 146.105  0.00  0.00    +0.000 A 
ATOM     13  C   UNL     1     103.668 125.078 147.565  0.00  0.00    +0.000 A 
ATOM     14  C   UNL     1     104.506 125.221 147.691  0.00  0.00    +0.000 A 
ATOM     15  C   UNL     1     101.709 122.865 145.629  0.00  0.00    +0.000 C 
ENDROOT
BRANCH  11  18
ATOM     16  O   UNL     1     107.556 125.881 146.399  0.00  0.00    +0.000 OA
ATOM     17  O   UNL     1     108.312 125.263 147.729  0.00  0.00    +0.000 OA
ATOM     18  C   UNL     1     105.892 124.872 147.388  0.00  0.00    +0.000 A 
ATOM     19  C   UNL     1     106.320 125.312 146.837  0.00  0.00    +0.000 A 
ATOM     20  C   UNL     1     106.270 124.563 148.053  0.00  0.00    +0.000 A 
ATOM     21  C   UNL     1     107.127 125.442 146.950  0.00  0.00    +0.000 A 
ATOM     22  C   UNL     1     107.076 124.693 148.166  0.00  0.00    +0.000 A 
ATOM     23  C   UNL     1     107.505 125.132 147.615  0.00  0.00    +0.000 A 
ENDBRANCH  11  18
BRANCH  14  24
ATOM     24  O   UNL     1     104.753 125.814 148.209  0.00  0.00    +0.000 OA
ATOM     25  C   UNL     1     104.265 126.462 148.357  0.00  0.00    +0.000 C 
ENDBRANCH  14  24
TORSDOF 2
ENDMDL
MODEL 2
REMARK VINA RESULT:      -8.6      0.970      4.530
REMARK  Name = 44259872
REMARK  2 active torsions:
REMARK  status: ('A' for Active; 'I' for Inactive)
REMARK    1  A    between atoms: O_4  and  C_17
REMARK    2  A    between atoms: C_14  and  C_18
REMARK                            x       y       z     vdW  Elec       q    Type
REMARK                         _______ _______ _______ _____ _____    ______ ____
ROOT
ATOM      1  O   UNL     1     105.035 124.340 147.662  0.00  0.00    +0.000 OA
ATOM      2  O   UNL     1     108.225 124.957 148.317  0.00  0.00    +0.000 OA
ATOM      3  O   UNL     1     107.513 124.362 149.267  0.00  0.00    +0.000 OA
ATOM      4  O   UNL     1     107.547 125.431 146.729  0.00  0.00    +0.000 OA
ATOM      5  O   UNL     1     106.400 125.475 145.856  0.00  0.00    +0.000 OA
ATOM      6  C   UNL     1     106.308 124.892 147.192  0.00  0.00    +0.000 A 
ATOM      7  C   UNL     1     105.866 124.522 147.782  0.00  0.00    +0.000 A 
ATOM      8  C   UNL     1     107.461 124.861 148.036  0.00  0.00    +0.000 A 
ATOM      9  C   UNL     1     107.105 125.061 147.319  0.00  0.00    +0.000 A 
ATOM     10  C   UNL     1     107.019 124.491 148.626  0.00  0.00    +0.000 A 
ATOM     11  C   UNL     1     104.660 124.546 146.917  0.00  0.00    +0.000 A 
ATOM     12  C   UNL     1     106.221 124.321 148.499  0.00  0.00    +0.000 A 
ATOM     13  C   UNL     1     105.949 125.105 146.440  0.00  0.00    +0.000 A 
ATOM     14  C   UNL     1     105.120 124.931 146.302  0.00  0.00    +0.000 A 
ATOM     15  C   UNL     1     108.258 124.649 149.077  0.00  0.00    +0.000 C 
ENDROOT
BRANCH  11  18
ATOM     16  O   UNL     1     102.630 122.801 145.913  0.00  0.00    +0.000 OA
ATOM     17  O   UNL     1     101.470 123.858 146.422  0.00  0.00    +0.000 OA
ATOM     18  C   UNL     1     103.862 124.374 146.793  0.00  0.00    +0.000 A 
ATOM     19  C   UNL     1     103.645 123.674 146.415  0.00  0.00    +0.000 A 
ATOM     20  C   UNL     1     103.281 124.902 147.048  0.00  0.00    +0.000 A 
ATOM     21  C   UNL     1     102.847 123.502 146.291  0.00  0.00    +0.000 A 
ATOM     22  C   UNL     1     102.484 124.730 146.924  0.00  0.00    +0.000 A 
ATOM     23  C   UNL     1     102.267 124.030 146.546  0.00  0.00    +0.000 A 
ENDBRANCH  11  18
BRANCH  14  24
ATOM     24  O   UNL     1     104.767 125.132 145.584  0.00  0.00    +0.000 OA
ATOM     25  C   UNL     1     105.159 125.632 145.058  0.00  0.00    +0.000 C 
ENDBRANCH  14  24
TORSDOF 2
ENDMDL
MODEL 3
REMARK VINA RESULT:      -8.5      7.625      8.524
REMARK  Name = 44259872
REMARK  2 active torsions:
REMARK  status: ('A' for Active; 'I' for Inactive)
REMARK    1  A    between atoms: O_4  and  C_17
REMARK    2  A    between atoms: C_14  and  C_18
REMARK                            x       y       z     vdW  Elec       q    Type
REMARK                         _______ _______ _______ _____ _____    ______ ____
ROOT
ATOM      1  O   UNL     1     103.391 130.161 142.347  0.00  0.00    +0.000 OA
ATOM      2  O   UNL     1     105.281 127.440 142.445  0.00  0.00    +0.000 OA
ATOM      3  O   UNL     1     105.289 128.224 143.516  0.00  0.00    +0.000 OA
ATOM      4  O   UNL     1     104.312 127.784 140.978  0.00  0.00    +0.000 OA
ATOM      5  O   UNL     1     103.382 128.659 140.308  0.00  0.00    +0.000 OA
ATOM      6  C   UNL     1     103.859 128.956 141.656  0.00  0.00    +0.000 A 
ATOM      7  C   UNL     1     103.864 129.444 142.322  0.00  0.00    +0.000 A 
ATOM      8  C   UNL     1     104.780 128.071 142.297  0.00  0.00    +0.000 A 
ATOM      9  C   UNL     1     104.317 128.271 141.644  0.00  0.00    +0.000 A 
ATOM     10  C   UNL     1     104.785 128.559 142.963  0.00  0.00    +0.000 A 
ATOM     11  C   UNL     1     102.907 130.373 141.670  0.00  0.00    +0.000 A 
ATOM     12  C   UNL     1     104.326 129.245 142.975  0.00  0.00    +0.000 A 
ATOM     13  C   UNL     1     103.381 129.153 140.969  0.00  0.00    +0.000 A 
ATOM     14  C   UNL     1     102.902 129.866 140.976  0.00  0.00    +0.000 A 
ATOM     15  C   UNL     1     105.596 127.534 143.197  0.00  0.00    +0.000 C 
ENDROOT
BRANCH  11  18
ATOM     16  O   UNL     1     102.642 133.180 141.200  0.00  0.00    +0.000 OA
ATOM     17  O   UNL     1     101.081 133.122 141.732  0.00  0.00    +0.000 OA
ATOM     18  C   UNL     1     102.450 131.060 141.685  0.00  0.00    +0.000 A 
ATOM     19  C   UNL     1     102.774 131.776 141.435  0.00  0.00    +0.000 A 
ATOM     20  C   UNL     1     101.669 131.031 141.951  0.00  0.00    +0.000 A 
ATOM     21  C   UNL     1     102.318 132.464 141.450  0.00  0.00    +0.000 A 
ATOM     22  C   UNL     1     101.213 131.719 141.967  0.00  0.00    +0.000 A 
ATOM     23  C   UNL     1     101.537 132.435 141.716  0.00  0.00    +0.000 A 
ENDBRANCH  11  18
BRANCH  14  24
ATOM     24  O   UNL     1     102.440 130.062 140.322  0.00  0.00    +0.000 OA
ATOM     25  C   UNL     1     102.212 129.476 139.787  0.00  0.00    +0.000 C 
ENDBRANCH  14  24
TORSDOF 2
ENDMDL
MODEL 4
REMARK VINA RESULT:      -8.4      1.206      2.137
REMARK  Name = 44259872
REMARK  2 active torsions:
REMARK  status: ('A' for Active; 'I' for Inactive)
REMARK    1  A    between atoms: O_4  and  C_17
REMARK    2  A    between atoms: C_14  and  C_18
REMARK                            x       y       z     vdW  Elec       q    Type
REMARK                         _______ _______ _______ _____ _____    ______ ____
ROOT
ATOM      1  O   UNL     1     104.751 124.750 146.917  0.00  0.00    +0.000 OA
ATOM      2  O   UNL     1     102.163 122.757 146.354  0.00  0.00    +0.000 OA
ATOM      3  O   UNL     1     102.214 123.369 147.531  0.00  0.00    +0.000 OA
ATOM      4  O   UNL     1     103.409 122.959 145.083  0.00  0.00    +0.000 OA
ATOM      5  O   UNL     1     104.646 123.579 144.675  0.00  0.00    +0.000 OA
ATOM      6  C   UNL     1     104.069 123.843 145.990  0.00  0.00    +0.000 A 
ATOM      7  C   UNL     1     104.101 124.223 146.722  0.00  0.00    +0.000 A 
ATOM      8  C   UNL     1     102.842 123.215 146.369  0.00  0.00    +0.000 A 
ATOM      9  C   UNL     1     103.441 123.339 145.814  0.00  0.00    +0.000 A 
ATOM     10  C   UNL     1     102.874 123.596 147.101  0.00  0.00    +0.000 A 
ATOM     11  C   UNL     1     105.376 124.883 146.343  0.00  0.00    +0.000 A 
ATOM     12  C   UNL     1     103.503 124.100 147.277  0.00  0.00    +0.000 A 
ATOM     13  C   UNL     1     104.686 123.963 145.403  0.00  0.00    +0.000 A 
ATOM     14  C   UNL     1     105.343 124.487 145.581  0.00  0.00    +0.000 A 
ATOM     15  C   UNL     1     101.775 122.852 147.070  0.00  0.00    +0.000 C 
ENDROOT
BRANCH  11  18
ATOM     16  O   UNL     1     108.005 125.286 147.388  0.00  0.00    +0.000 OA
ATOM     17  O   UNL     1     107.888 126.899 147.062  0.00  0.00    +0.000 OA
ATOM     18  C   UNL     1     106.004 125.388 146.522  0.00  0.00    +0.000 A 
ATOM     19  C   UNL     1     106.691 125.085 146.866  0.00  0.00    +0.000 A 
ATOM     20  C   UNL     1     105.945 126.194 146.359  0.00  0.00    +0.000 A 
ATOM     21  C   UNL     1     107.318 125.589 147.045  0.00  0.00    +0.000 A 
ATOM     22  C   UNL     1     106.573 126.698 146.539  0.00  0.00    +0.000 A 
ATOM     23  C   UNL     1     107.260 126.396 146.882  0.00  0.00    +0.000 A 
ENDBRANCH  11  18
BRANCH  14  24
ATOM     24  O   UNL     1     105.940 124.609 145.024  0.00  0.00    +0.000 OA
ATOM     25  C   UNL     1     105.773 124.536 144.219  0.00  0.00    +0.000 C 
ENDBRANCH  14  24
TORSDOF 2
ENDMDL
MODEL 5
REMARK VINA RESULT:      -8.4      1.226      4.556
REMARK  Name = 44259872
REMARK  2 active torsions:
REMARK  status: ('A' for Active; 'I' for Inactive)
REMARK    1  A    between atoms: O_4  and  C_17
REMARK    2  A    between atoms: C_14  and  C_18
REMARK                            x       y       z     vdW  Elec       q    Type
REMARK                         _______ _______ _______ _____ _____    ______ ____
ROOT
ATOM      1  O   UNL     1     104.286 124.890 147.358  0.00  0.00    +0.000 OA
ATOM      2  O   UNL     1     107.377 125.624 146.413  0.00  0.00    +0.000 OA
ATOM      3  O   UNL     1     106.946 126.159 147.549  0.00  0.00    +0.000 OA
ATOM      4  O   UNL     1     106.380 124.545 145.390  0.00  0.00    +0.000 OA
ATOM      5  O   UNL     1     105.118 123.875 145.192  0.00  0.00    +0.000 OA
ATOM      6  C   UNL     1     105.348 124.717 146.363  0.00  0.00    +0.000 A 
ATOM      7  C   UNL     1     105.080 125.049 147.069  0.00  0.00    +0.000 A 
ATOM      8  C   UNL     1     106.608 125.369 146.534  0.00  0.00    +0.000 A 
ATOM      9  C   UNL     1     106.112 124.877 146.096  0.00  0.00    +0.000 A 
ATOM     10  C   UNL     1     106.340 125.701 147.240  0.00  0.00    +0.000 A 
ATOM     11  C   UNL     1     103.765 124.378 146.905  0.00  0.00    +0.000 A 
ATOM     12  C   UNL     1     105.576 125.541 147.508  0.00  0.00    +0.000 A 
ATOM     13  C   UNL     1     104.841 124.202 145.897  0.00  0.00    +0.000 A 
ATOM     14  C   UNL     1     104.044 124.032 146.170  0.00  0.00    +0.000 A 
ATOM     15  C   UNL     1     107.587 126.111 147.039  0.00  0.00    +0.000 C 
ENDROOT
BRANCH  11  18
ATOM     16  O   UNL     1     101.983 122.840 148.525  0.00  0.00    +0.000 OA
ATOM     17  O   UNL     1     100.713 123.745 147.988  0.00  0.00    +0.000 OA
ATOM     18  C   UNL     1     103.002 124.220 147.176  0.00  0.00    +0.000 A 
ATOM     19  C   UNL     1     102.874 123.609 147.715  0.00  0.00    +0.000 A 
ATOM     20  C   UNL     1     102.366 124.673 146.907  0.00  0.00    +0.000 A 
ATOM     21  C   UNL     1     102.111 123.451 147.986  0.00  0.00    +0.000 A 
ATOM     22  C   UNL     1     101.603 124.514 147.178  0.00  0.00    +0.000 A 
ATOM     23  C   UNL     1     101.476 123.903 147.717  0.00  0.00    +0.000 A 
ENDBRANCH  11  18
BRANCH  14  24
ATOM     24  O   UNL     1     103.551 123.540 145.729  0.00  0.00    +0.000 OA
ATOM     25  C   UNL     1     103.871 123.043 145.154  0.00  0.00    +0.000 C 
ENDBRANCH  14  24
TORSDOF 2
ENDMDL
MODEL 6
REMARK VINA RESULT:      -8.4      1.913      4.069
REMARK  Name = 44259872
REMARK  2 active torsions:
REMARK  status: ('A' for Active; 'I' for Inactive)
REMARK    1  A    between atoms: O_4  and  C_17
REMARK    2  A    between atoms: C_14  and  C_18
REMARK                            x       y       z     vdW  Elec       q    Type
REMARK                         _______ _______ _______ _____ _____    ______ ____
ROOT
ATOM      1  O   UNL     1     106.694 125.315 146.415  0.00  0.00    +0.000 OA
ATOM      2  O   UNL     1     107.091 124.317 149.551  0.00  0.00    +0.000 OA
ATOM      3  O   UNL     1     108.179 124.697 148.892  0.00  0.00    +0.000 OA
ATOM      4  O   UNL     1     105.451 124.320 148.831  0.00  0.00    +0.000 OA
ATOM      5  O   UNL     1     104.625 124.587 147.679  0.00  0.00    +0.000 OA
ATOM      6  C   UNL     1     106.067 124.811 147.640  0.00  0.00    +0.000 A 
ATOM      7  C   UNL     1     106.744 125.047 147.230  0.00  0.00    +0.000 A 
ATOM      8  C   UNL     1     106.862 124.538 148.795  0.00  0.00    +0.000 A 
ATOM      9  C   UNL     1     106.127 124.556 148.422  0.00  0.00    +0.000 A 
ATOM     10  C   UNL     1     107.539 124.774 148.386  0.00  0.00    +0.000 A 
ATOM     11  C   UNL     1     105.931 125.336 146.021  0.00  0.00    +0.000 A 
ATOM     12  C   UNL     1     107.479 125.029 147.603  0.00  0.00    +0.000 A 
ATOM     13  C   UNL     1     105.295 124.825 147.262  0.00  0.00    +0.000 A 
ATOM     14  C   UNL     1     105.227 125.090 146.447  0.00  0.00    +0.000 A 
ATOM     15  C   UNL     1     107.903 124.415 149.611  0.00  0.00    +0.000 C 
ENDROOT
BRANCH  11  18
ATOM     16  O   UNL     1     106.050 124.775 143.221  0.00  0.00    +0.000 OA
ATOM     17  O   UNL     1     105.709 126.355 142.890  0.00  0.00    +0.000 OA
ATOM     18  C   UNL     1     105.876 125.591 145.238  0.00  0.00    +0.000 A 
ATOM     19  C   UNL     1     105.991 125.056 144.621  0.00  0.00    +0.000 A 
ATOM     20  C   UNL     1     105.705 126.381 145.073  0.00  0.00    +0.000 A 
ATOM     21  C   UNL     1     105.935 125.310 143.838  0.00  0.00    +0.000 A 
ATOM     22  C   UNL     1     105.650 126.636 144.290  0.00  0.00    +0.000 A 
ATOM     23  C   UNL     1     105.765 126.100 143.673  0.00  0.00    +0.000 A 
ENDBRANCH  11  18
BRANCH  14  24
ATOM     24  O   UNL     1     104.491 125.107 146.077  0.00  0.00    +0.000 OA
ATOM     25  C   UNL     1     103.867 124.657 146.376  0.00  0.00    +0.000 C 
ENDBRANCH  14  24
TORSDOF 2
ENDMDL
MODEL 7
REMARK VINA RESULT:      -8.2     12.994     13.964
REMARK  Name = 44259872
REMARK  2 active torsions:
REMARK  status: ('A' for Active; 'I' for Inactive)
REMARK    1  A    between atoms: O_4  and  C_17
REMARK    2  A    between atoms: C_14  and  C_18
REMARK                            x       y       z     vdW  Elec       q    Type
REMARK                         _______ _______ _______ _____ _____    ______ ____
ROOT
ATOM      1  O   UNL     1     113.190 126.857 136.524  0.00  0.00    +0.000 OA
ATOM      2  O   UNL     1     111.634 123.930 136.511  0.00  0.00    +0.000 OA
ATOM      3  O   UNL     1     112.852 123.969 137.039  0.00  0.00    +0.000 OA
ATOM      4  O   UNL     1     110.813 125.364 135.819  0.00  0.00    +0.000 OA
ATOM      5  O   UNL     1     110.867 126.774 135.519  0.00  0.00    +0.000 OA
ATOM      6  C   UNL     1     111.988 126.098 136.168  0.00  0.00    +0.000 A 
ATOM      7  C   UNL     1     112.744 126.122 136.496  0.00  0.00    +0.000 A 
ATOM      8  C   UNL     1     111.908 124.700 136.454  0.00  0.00    +0.000 A 
ATOM      9  C   UNL     1     111.570 125.388 136.147  0.00  0.00    +0.000 A 
ATOM     10  C   UNL     1     112.664 124.724 136.782  0.00  0.00    +0.000 A 
ATOM     11  C   UNL     1     112.843 127.575 136.206  0.00  0.00    +0.000 A 
ATOM     12  C   UNL     1     113.083 125.436 136.803  0.00  0.00    +0.000 A 
ATOM     13  C   UNL     1     111.624 126.807 135.845  0.00  0.00    +0.000 A 
ATOM     14  C   UNL     1     112.055 127.550 135.864  0.00  0.00    +0.000 A 
ATOM     15  C   UNL     1     112.216 123.478 136.871  0.00  0.00    +0.000 C 
ENDROOT
BRANCH  11  18
ATOM     16  O   UNL     1     114.771 129.345 135.059  0.00  0.00    +0.000 OA
ATOM     17  O   UNL     1     114.528 130.411 136.294  0.00  0.00    +0.000 OA
ATOM     18  C   UNL     1     113.264 128.285 136.228  0.00  0.00    +0.000 A 
ATOM     19  C   UNL     1     113.807 128.461 135.632  0.00  0.00    +0.000 A 
ATOM     20  C   UNL     1     113.143 128.818 136.846  0.00  0.00    +0.000 A 
ATOM     21  C   UNL     1     114.228 129.169 135.654  0.00  0.00    +0.000 A 
ATOM     22  C   UNL     1     113.564 129.527 136.868  0.00  0.00    +0.000 A 
ATOM     23  C   UNL     1     114.107 129.702 136.272  0.00  0.00    +0.000 A 
ENDBRANCH  11  18
BRANCH  14  24
ATOM     24  O   UNL     1     111.714 128.236 135.556  0.00  0.00    +0.000 OA
ATOM     25  C   UNL     1     111.134 128.181 134.972  0.00  0.00    +0.000 C 
ENDBRANCH  14  24
TORSDOF 2
ENDMDL
MODEL 8
REMARK VINA RESULT:      -8.1     12.024     14.097
REMARK  Name = 44259872
REMARK  2 active torsions:
REMARK  status: ('A' for Active; 'I' for Inactive)
REMARK    1  A    between atoms: O_4  and  C_17
REMARK    2  A    between atoms: C_14  and  C_18
REMARK                            x       y       z     vdW  Elec       q    Type
REMARK                         _______ _______ _______ _____ _____    ______ ____
ROOT
ATOM      1  O   UNL     1     112.756 126.764 136.497  0.00  0.00    +0.000 OA
ATOM      2  O   UNL     1     113.224 129.863 135.418  0.00  0.00    +0.000 OA
ATOM      3  O   UNL     1     114.132 129.365 136.249  0.00  0.00    +0.000 OA
ATOM      4  O   UNL     1     111.785 128.950 134.868  0.00  0.00    +0.000 OA
ATOM      5  O   UNL     1     111.029 127.723 134.913  0.00  0.00    +0.000 OA
ATOM      6  C   UNL     1     112.267 127.873 135.673  0.00  0.00    +0.000 A 
ATOM      7  C   UNL     1     112.831 127.563 136.189  0.00  0.00    +0.000 A 
ATOM      8  C   UNL     1     112.997 129.099 135.610  0.00  0.00    +0.000 A 
ATOM      9  C   UNL     1     112.350 128.640 135.384  0.00  0.00    +0.000 A 
ATOM     10  C   UNL     1     113.561 128.790 136.126  0.00  0.00    +0.000 A 
ATOM     11  C   UNL     1     112.084 126.282 136.265  0.00  0.00    +0.000 A 
ATOM     12  C   UNL     1     113.478 128.021 136.416  0.00  0.00    +0.000 A 
ATOM     13  C   UNL     1     111.588 127.405 135.430  0.00  0.00    +0.000 A 
ATOM     14  C   UNL     1     111.496 126.604 135.728  0.00  0.00    +0.000 A 
ATOM     15  C   UNL     1     113.924 130.028 135.812  0.00  0.00    +0.000 C 
ENDROOT
BRANCH  11  18
ATOM     16  O   UNL     1     111.139 124.485 138.277  0.00  0.00    +0.000 OA
ATOM     17  O   UNL     1     111.764 123.212 137.433  0.00  0.00    +0.000 OA
ATOM     18  C   UNL     1     112.004 125.514 136.557  0.00  0.00    +0.000 A 
ATOM     19  C   UNL     1     111.612 125.383 137.271  0.00  0.00    +0.000 A 
ATOM     20  C   UNL     1     112.316 124.877 136.135  0.00  0.00    +0.000 A 
ATOM     21  C   UNL     1     111.531 124.616 137.563  0.00  0.00    +0.000 A 
ATOM     22  C   UNL     1     112.236 124.110 136.427  0.00  0.00    +0.000 A 
ATOM     23  C   UNL     1     111.844 123.979 137.141  0.00  0.00    +0.000 A 
ENDBRANCH  11  18
BRANCH  14  24
ATOM     24  O   UNL     1     110.848 126.148 135.500  0.00  0.00    +0.000 OA
ATOM     25  C   UNL     1     110.447 126.321 134.800  0.00  0.00    +0.000 C 
ENDBRANCH  14  24
TORSDOF 2
ENDMDL
MODEL 9
REMARK VINA RESULT:      -8.1     13.354     14.332
REMARK  Name = 44259872
REMARK  2 active torsions:
REMARK  status: ('A' for Active; 'I' for Inactive)
REMARK    1  A    between atoms: O_4  and  C_17
REMARK    2  A    between atoms: C_14  and  C_18
REMARK                            x       y       z     vdW  Elec       q    Type
REMARK                         _______ _______ _______ _____ _____    ______ ____
ROOT
ATOM      1  O   UNL     1     110.130 130.634 136.109  0.00  0.00    +0.000 OA
ATOM      2  O   UNL     1     112.927 129.673 137.605  0.00  0.00    +0.000 OA
ATOM      3  O   UNL     1     112.274 128.762 136.893  0.00  0.00    +0.000 OA
ATOM      4  O   UNL     1     112.370 131.365 137.788  0.00  0.00    +0.000 OA
ATOM      5  O   UNL     1     111.381 132.365 137.469  0.00  0.00    +0.000 OA
ATOM      6  C   UNL     1     111.265 131.002 136.959  0.00  0.00    +0.000 A 
ATOM      7  C   UNL     1     110.860 130.436 136.516  0.00  0.00    +0.000 A 
ATOM      8  C   UNL     1     112.260 130.031 137.290  0.00  0.00    +0.000 A 
ATOM      9  C   UNL     1     111.965 130.799 137.345  0.00  0.00    +0.000 A 
ATOM     10  C   UNL     1     111.855 129.465 136.847  0.00  0.00    +0.000 A 
ATOM     11  C   UNL     1     109.818 131.433 136.163  0.00  0.00    +0.000 A 
ATOM     12  C   UNL     1     111.154 129.667 136.460  0.00  0.00    +0.000 A 
ATOM     13  C   UNL     1     110.968 131.806 137.024  0.00  0.00    +0.000 A 
ATOM     14  C   UNL     1     110.240 132.022 136.624  0.00  0.00    +0.000 A 
ATOM     15  C   UNL     1     112.936 128.890 137.361  0.00  0.00    +0.000 C 
ENDROOT
BRANCH  11  18
ATOM     16  O   UNL     1     106.967 131.629 136.149  0.00  0.00    +0.000 OA
ATOM     17  O   UNL     1     107.015 132.228 134.613  0.00  0.00    +0.000 OA
ATOM     18  C   UNL     1     109.117 131.632 135.775  0.00  0.00    +0.000 A 
ATOM     19  C   UNL     1     108.392 131.531 136.156  0.00  0.00    +0.000 A 
ATOM     20  C   UNL     1     109.141 131.932 135.007  0.00  0.00    +0.000 A 
ATOM     21  C   UNL     1     107.692 131.730 135.768  0.00  0.00    +0.000 A 
ATOM     22  C   UNL     1     108.441 132.130 134.619  0.00  0.00    +0.000 A 
ATOM     23  C   UNL     1     107.716 132.029 135.000  0.00  0.00    +0.000 A 
ENDBRANCH  11  18
BRANCH  14  24
ATOM     24  O   UNL     1     109.947 132.792 136.682  0.00  0.00    +0.000 OA
ATOM     25  C   UNL     1     110.458 133.415 136.857  0.00  0.00    +0.000 C 
ENDBRANCH  14  24
TORSDOF 2
ENDMDL
MODEL 10
REMARK VINA RESULT:      -8.0     12.846     13.711
REMARK  Name = 44259872
REMARK  2 active torsions:
REMARK  status: ('A' for Active; 'I' for Inactive)
REMARK    1  A    between atoms: O_4  and  C_17
REMARK    2  A    between atoms: C_14  and  C_18
REMARK                            x       y       z     vdW  Elec       q    Type
REMARK                         _______ _______ _______ _____ _____    ______ ____
ROOT
ATOM      1  O   UNL     1     112.508 127.213 136.214  0.00  0.00    +0.000 OA
ATOM      2  O   UNL     1     110.005 128.682 134.612  0.00  0.00    +0.000 OA
ATOM      3  O   UNL     1     110.997 129.458 135.030  0.00  0.00    +0.000 OA
ATOM      4  O   UNL     1     109.962 126.910 134.871  0.00  0.00    +0.000 OA
ATOM      5  O   UNL     1     110.611 125.741 135.412  0.00  0.00    +0.000 OA
ATOM      6  C   UNL     1     111.219 127.063 135.533  0.00  0.00    +0.000 A 
ATOM      7  C   UNL     1     111.835 127.545 135.793  0.00  0.00    +0.000 A 
ATOM      8  C   UNL     1     110.555 128.205 134.988  0.00  0.00    +0.000 A 
ATOM      9  C   UNL     1     110.579 127.393 135.131  0.00  0.00    +0.000 A 
ATOM     10  C   UNL     1     111.171 128.688 135.248  0.00  0.00    +0.000 A 
ATOM     11  C   UNL     1     112.538 126.368 136.365  0.00  0.00    +0.000 A 
ATOM     12  C   UNL     1     111.812 128.358 135.651  0.00  0.00    +0.000 A 
ATOM     13  C   UNL     1     111.232 126.215 135.676  0.00  0.00    +0.000 A 
ATOM     14  C   UNL     1     111.896 125.866 136.094  0.00  0.00    +0.000 A 
ATOM     15  C   UNL     1     110.277 129.455 134.637  0.00  0.00    +0.000 C 
ENDROOT
BRANCH  11  18
ATOM     16  O   UNL     1     113.896 125.810 138.817  0.00  0.00    +0.000 OA
ATOM     17  O   UNL     1     115.105 125.063 137.978  0.00  0.00    +0.000 OA
ATOM     18  C   UNL     1     113.180 126.042 136.768  0.00  0.00    +0.000 A 
ATOM     19  C   UNL     1     113.217 126.089 137.591  0.00  0.00    +0.000 A 
ATOM     20  C   UNL     1     113.784 125.668 136.348  0.00  0.00    +0.000 A 
ATOM     21  C   UNL     1     113.859 125.763 137.994  0.00  0.00    +0.000 A 
ATOM     22  C   UNL     1     114.426 125.342 136.752  0.00  0.00    +0.000 A 
ATOM     23  C   UNL     1     114.463 125.390 137.575  0.00  0.00    +0.000 A 
ENDBRANCH  11  18
BRANCH  14  24
ATOM     24  O   UNL     1     111.917 125.054 136.235  0.00  0.00    +0.000 OA
ATOM     25  C   UNL     1     111.235 124.600 136.135  0.00  0.00    +0.000 C 
ENDBRANCH  14  24
TORSDOF 2
ENDMDL
