MODEL 1
REMARK VINA RESULT:     -11.1      0.000      0.000
REMARK  Name = 44257818
REMARK  6 active torsions:
REMARK  status: ('A' for Active; 'I' for Inactive)
REMARK    1  A    between atoms: O_4  and  C_23
REMARK    2  A    between atoms: O_4  and  C_28
REMARK    3  A    between atoms: O_7  and  C_25
REMARK    4  A    between atoms: O_7  and  C_29
REMARK    5  A    between atoms: C_24  and  C_27
REMARK    6  A    between atoms: C_36  and  C_40
REMARK                            x       y       z     vdW  Elec       q    Type
REMARK                         _______ _______ _______ _____ _____    ______ ____
ROOT
ATOM      1  O   UNL     1     110.291 128.285 136.040  0.00  0.00    +0.000 OA
ATOM      2  O   UNL     1     107.820 129.757 135.770  0.00  0.00    +0.000 OA
ATOM      3  O   UNL     1     107.835 128.315 135.737  0.00  0.00    +0.000 OA
ATOM      4  C   UNL     1     109.920 130.488 136.047  0.00  0.00    +0.000 A 
ATOM      5  C   UNL     1     110.333 129.736 136.080  0.00  0.00    +0.000 A 
ATOM      6  C   UNL     1     109.066 130.499 135.942  0.00  0.00    +0.000 A 
ATOM      7  C   UNL     1     109.888 129.004 136.008  0.00  0.00    +0.000 A 
ATOM      8  C   UNL     1     109.070 129.014 135.907  0.00  0.00    +0.000 A 
ATOM      9  C   UNL     1     108.639 129.757 135.871  0.00  0.00    +0.000 A 
ATOM     10  C   UNL     1     109.876 127.575 135.972  0.00  0.00    +0.000 A 
ATOM     11  C   UNL     1     108.653 128.305 135.838  0.00  0.00    +0.000 A 
ATOM     12  C   UNL     1     109.056 127.586 135.871  0.00  0.00    +0.000 A 
ENDROOT
BRANCH  10  16
ATOM     13  C   UNL     1     111.084 125.418 136.070  0.00  0.00    +0.000 A 
ATOM     14  C   UNL     1     111.016 125.821 135.353  0.00  0.00    +0.000 A 
ATOM     15  C   UNL     1     110.749 125.735 136.754  0.00  0.00    +0.000 A 
ATOM     16  C   UNL     1     110.278 126.856 136.004  0.00  0.00    +0.000 A 
ATOM     17  C   UNL     1     110.613 126.540 135.321  0.00  0.00    +0.000 A 
ATOM     18  C   UNL     1     110.346 126.454 136.722  0.00  0.00    +0.000 A 
BRANCH  13  19
ATOM     19  O   UNL     1     111.487 124.698 136.102  0.00  0.00    +0.000 OA
BRANCH  19  28
ATOM     20  O   UNL     1     112.773 125.291 136.294  0.00  0.00    +0.000 OA
ATOM     21  O   UNL     1     113.484 123.320 137.611  0.00  0.00    +0.000 OA
ATOM     22  O   UNL     1     114.533 124.570 137.364  0.00  0.00    +0.000 OA
ATOM     23  O   UNL     1     111.961 123.384 136.980  0.00  0.00    +0.000 OA
ATOM     24  C   UNL     1     113.247 123.977 137.172  0.00  0.00    +0.000 C 
ATOM     25  C   UNL     1     113.771 124.602 137.049  0.00  0.00    +0.000 C 
ATOM     26  C   UNL     1     112.486 124.010 136.857  0.00  0.00    +0.000 C 
ATOM     27  C   UNL     1     113.534 125.259 136.610  0.00  0.00    +0.000 C 
ATOM     28  C   UNL     1     112.249 124.667 136.418  0.00  0.00    +0.000 C 
ATOM     29  C   UNL     1     114.059 125.884 136.486  0.00  0.00    +0.000 C 
ENDBRANCH  19  28
ENDBRANCH  13  19
ENDBRANCH  10  16
BRANCH   4  30
ATOM     30  O   UNL     1     110.338 131.196 136.116  0.00  0.00    +0.000 OA
BRANCH  30  39
ATOM     31  O   UNL     1     110.432 131.213 137.542  0.00  0.00    +0.000 OA
ATOM     32  O   UNL     1     110.094 133.665 137.534  0.00  0.00    +0.000 OA
ATOM     33  O   UNL     1     110.301 132.864 138.963  0.00  0.00    +0.000 OA
ATOM     34  O   UNL     1     110.112 132.831 136.111  0.00  0.00    +0.000 OA
ATOM     35  C   UNL     1     110.207 132.848 137.536  0.00  0.00    +0.000 C 
ATOM     36  C   UNL     1     110.310 132.448 138.251  0.00  0.00    +0.000 C 
ATOM     37  C   UNL     1     110.216 132.430 136.825  0.00  0.00    +0.000 C 
ATOM     38  C   UNL     1     110.423 131.631 138.253  0.00  0.00    +0.000 C 
ATOM     39  C   UNL     1     110.329 131.613 136.827  0.00  0.00    +0.000 C 
BRANCH  38  42
ATOM     40  O   UNL     1     109.872 130.949 139.382  0.00  0.00    +0.000 OA
ATOM     41  O   UNL     1     111.288 131.111 139.265  0.00  0.00    +0.000 OA
ATOM     42  C   UNL     1     110.527 131.230 138.966  0.00  0.00    +0.000 C 
ENDBRANCH  38  42
ENDBRANCH  30  39
ENDBRANCH   4  30
TORSDOF 6
ENDMDL
MODEL 2
REMARK VINA RESULT:     -10.8      0.989      1.547
REMARK  Name = 44257818
REMARK  6 active torsions:
REMARK  status: ('A' for Active; 'I' for Inactive)
REMARK    1  A    between atoms: O_4  and  C_23
REMARK    2  A    between atoms: O_4  and  C_28
REMARK    3  A    between atoms: O_7  and  C_25
REMARK    4  A    between atoms: O_7  and  C_29
REMARK    5  A    between atoms: C_24  and  C_27
REMARK    6  A    between atoms: C_36  and  C_40
REMARK                            x       y       z     vdW  Elec       q    Type
REMARK                         _______ _______ _______ _____ _____    ______ ____
ROOT
ATOM      1  O   UNL     1     110.099 128.385 136.643  0.00  0.00    +0.000 OA
ATOM      2  O   UNL     1     107.844 130.081 136.020  0.00  0.00    +0.000 OA
ATOM      3  O   UNL     1     107.944 128.746 135.481  0.00  0.00    +0.000 OA
ATOM      4  C   UNL     1     109.642 130.471 137.300  0.00  0.00    +0.000 A 
ATOM      5  C   UNL     1     110.049 129.720 137.212  0.00  0.00    +0.000 A 
ATOM      6  C   UNL     1     108.893 130.597 136.896  0.00  0.00    +0.000 A 
ATOM      7  C   UNL     1     109.703 129.104 136.723  0.00  0.00    +0.000 A 
ATOM      8  C   UNL     1     108.985 129.225 136.336  0.00  0.00    +0.000 A 
ATOM      9  C   UNL     1     108.563 129.970 136.411  0.00  0.00    +0.000 A 
ATOM     10  C   UNL     1     109.777 127.786 136.176  0.00  0.00    +0.000 A 
ATOM     11  C   UNL     1     108.662 128.626 135.868  0.00  0.00    +0.000 A 
ATOM     12  C   UNL     1     109.058 127.907 135.788  0.00  0.00    +0.000 A 
ENDROOT
BRANCH  10  16
ATOM     13  C   UNL     1     110.966 125.628 135.936  0.00  0.00    +0.000 A 
ATOM     14  C   UNL     1     110.998 126.187 135.330  0.00  0.00    +0.000 A 
ATOM     15  C   UNL     1     110.537 125.789 136.623  0.00  0.00    +0.000 A 
ATOM     16  C   UNL     1     110.174 127.067 136.096  0.00  0.00    +0.000 A 
ATOM     17  C   UNL     1     110.602 126.906 135.410  0.00  0.00    +0.000 A 
ATOM     18  C   UNL     1     110.140 126.509 136.703  0.00  0.00    +0.000 A 
BRANCH  13  19
ATOM     19  O   UNL     1     111.362 124.909 135.856  0.00  0.00    +0.000 OA
BRANCH  19  28
ATOM     20  O   UNL     1     112.651 125.402 136.225  0.00  0.00    +0.000 OA
ATOM     21  O   UNL     1     113.159 123.248 137.332  0.00  0.00    +0.000 OA
ATOM     22  O   UNL     1     114.279 124.460 137.332  0.00  0.00    +0.000 OA
ATOM     23  O   UNL     1     111.700 123.473 136.594  0.00  0.00    +0.000 OA
ATOM     24  C   UNL     1     112.990 123.966 136.963  0.00  0.00    +0.000 C 
ATOM     25  C   UNL     1     113.549 124.572 136.963  0.00  0.00    +0.000 C 
ATOM     26  C   UNL     1     112.261 124.079 136.594  0.00  0.00    +0.000 C 
ATOM     27  C   UNL     1     113.380 125.290 136.593  0.00  0.00    +0.000 C 
ATOM     28  C   UNL     1     112.091 124.797 136.225  0.00  0.00    +0.000 C 
ATOM     29  C   UNL     1     113.941 125.896 136.593  0.00  0.00    +0.000 C 
ENDBRANCH  19  28
ENDBRANCH  13  19
ENDBRANCH  10  16
BRANCH   4  30
ATOM     30  O   UNL     1     109.967 131.068 137.768  0.00  0.00    +0.000 OA
BRANCH  30  39
ATOM     31  O   UNL     1     109.138 130.830 138.908  0.00  0.00    +0.000 OA
ATOM     32  O   UNL     1     111.014 131.447 140.400  0.00  0.00    +0.000 OA
ATOM     33  O   UNL     1     109.559 131.003 141.042  0.00  0.00    +0.000 OA
ATOM     34  O   UNL     1     111.217 131.479 138.763  0.00  0.00    +0.000 OA
ATOM     35  C   UNL     1     110.389 131.241 139.902  0.00  0.00    +0.000 C 
ATOM     36  C   UNL     1     109.662 131.020 140.224  0.00  0.00    +0.000 C 
ATOM     37  C   UNL     1     110.490 131.257 139.084  0.00  0.00    +0.000 C 
ATOM     38  C   UNL     1     109.037 130.814 139.726  0.00  0.00    +0.000 C 
ATOM     39  C   UNL     1     109.865 131.052 138.586  0.00  0.00    +0.000 C 
BRANCH  38  42
ATOM     40  O   UNL     1     107.729 131.161 140.186  0.00  0.00    +0.000 OA
ATOM     41  O   UNL     1     108.163 129.800 140.227  0.00  0.00    +0.000 OA
ATOM     42  C   UNL     1     108.310 130.592 140.047  0.00  0.00    +0.000 C 
ENDBRANCH  38  42
ENDBRANCH  30  39
ENDBRANCH   4  30
TORSDOF 6
ENDMDL
MODEL 3
REMARK VINA RESULT:     -10.3      8.175     11.034
REMARK  Name = 44257818
REMARK  6 active torsions:
REMARK  status: ('A' for Active; 'I' for Inactive)
REMARK    1  A    between atoms: O_4  and  C_23
REMARK    2  A    between atoms: O_4  and  C_28
REMARK    3  A    between atoms: O_7  and  C_25
REMARK    4  A    between atoms: O_7  and  C_29
REMARK    5  A    between atoms: C_24  and  C_27
REMARK    6  A    between atoms: C_36  and  C_40
REMARK                            x       y       z     vdW  Elec       q    Type
REMARK                         _______ _______ _______ _____ _____    ______ ____
ROOT
ATOM      1  O   UNL     1     104.962 127.758 142.524  0.00  0.00    +0.000 OA
ATOM      2  O   UNL     1     107.837 127.518 142.686  0.00  0.00    +0.000 OA
ATOM      3  O   UNL     1     107.213 128.762 142.304  0.00  0.00    +0.000 OA
ATOM      4  C   UNL     1     106.232 126.004 143.075  0.00  0.00    +0.000 A 
ATOM      5  C   UNL     1     105.537 126.483 142.914  0.00  0.00    +0.000 A 
ATOM      6  C   UNL     1     107.014 126.353 142.999  0.00  0.00    +0.000 A 
ATOM      7  C   UNL     1     105.633 127.304 142.678  0.00  0.00    +0.000 A 
ATOM      8  C   UNL     1     106.383 127.638 142.605  0.00  0.00    +0.000 A 
ATOM      9  C   UNL     1     107.090 127.174 142.762  0.00  0.00    +0.000 A 
ATOM     10  C   UNL     1     105.041 128.547 142.297  0.00  0.00    +0.000 A 
ATOM     11  C   UNL     1     106.463 128.427 142.377  0.00  0.00    +0.000 A 
ATOM     12  C   UNL     1     105.792 128.882 142.224  0.00  0.00    +0.000 A 
ENDROOT
BRANCH  10  16
ATOM     13  C   UNL     1     103.027 129.911 141.836  0.00  0.00    +0.000 A 
ATOM     14  C   UNL     1     103.384 129.939 142.579  0.00  0.00    +0.000 A 
ATOM     15  C   UNL     1     103.343 129.427 141.246  0.00  0.00    +0.000 A 
ATOM     16  C   UNL     1     104.370 129.002 142.144  0.00  0.00    +0.000 A 
ATOM     17  C   UNL     1     104.055 129.485 142.733  0.00  0.00    +0.000 A 
ATOM     18  C   UNL     1     104.014 128.973 141.400  0.00  0.00    +0.000 A 
BRANCH  13  19
ATOM     19  O   UNL     1     102.356 130.366 141.682  0.00  0.00    +0.000 OA
BRANCH  19  28
ATOM     20  O   UNL     1     103.070 131.444 141.075  0.00  0.00    +0.000 OA
ATOM     21  O   UNL     1     101.383 133.041 141.929  0.00  0.00    +0.000 OA
ATOM     22  O   UNL     1     102.659 133.588 141.037  0.00  0.00    +0.000 OA
ATOM     23  O   UNL     1     101.232 131.430 142.252  0.00  0.00    +0.000 OA
ATOM     24  C   UNL     1     101.945 132.509 141.644  0.00  0.00    +0.000 C 
ATOM     25  C   UNL     1     102.583 132.781 141.198  0.00  0.00    +0.000 C 
ATOM     26  C   UNL     1     101.870 131.703 141.805  0.00  0.00    +0.000 C 
ATOM     27  C   UNL     1     103.146 132.249 140.914  0.00  0.00    +0.000 C 
ATOM     28  C   UNL     1     102.433 131.171 141.521  0.00  0.00    +0.000 C 
ATOM     29  C   UNL     1     103.784 132.523 140.468  0.00  0.00    +0.000 C 
ENDBRANCH  19  28
ENDBRANCH  13  19
ENDBRANCH  10  16
BRANCH   4  30
ATOM     30  O   UNL     1     106.149 125.215 143.302  0.00  0.00    +0.000 OA
BRANCH  30  39
ATOM     31  O   UNL     1     106.370 125.397 144.703  0.00  0.00    +0.000 OA
ATOM     32  O   UNL     1     104.612 123.727 145.197  0.00  0.00    +0.000 OA
ATOM     33  O   UNL     1     105.419 124.467 146.432  0.00  0.00    +0.000 OA
ATOM     34  O   UNL     1     104.977 124.101 143.633  0.00  0.00    +0.000 OA
ATOM     35  C   UNL     1     105.198 124.284 145.032  0.00  0.00    +0.000 C 
ATOM     36  C   UNL     1     105.601 124.653 145.650  0.00  0.00    +0.000 C 
ATOM     37  C   UNL     1     105.381 124.471 144.250  0.00  0.00    +0.000 C 
ATOM     38  C   UNL     1     106.187 125.210 145.485  0.00  0.00    +0.000 C 
ATOM     39  C   UNL     1     105.966 125.028 144.085  0.00  0.00    +0.000 C 
BRANCH  38  42
ATOM     40  O   UNL     1     106.286 126.268 146.441  0.00  0.00    +0.000 OA
ATOM     41  O   UNL     1     107.300 125.261 146.380  0.00  0.00    +0.000 OA
ATOM     42  C   UNL     1     106.590 125.580 146.102  0.00  0.00    +0.000 C 
ENDBRANCH  38  42
ENDBRANCH  30  39
ENDBRANCH   4  30
TORSDOF 6
ENDMDL
MODEL 4
REMARK VINA RESULT:     -10.3      1.682      3.200
REMARK  Name = 44257818
REMARK  6 active torsions:
REMARK  status: ('A' for Active; 'I' for Inactive)
REMARK    1  A    between atoms: O_4  and  C_23
REMARK    2  A    between atoms: O_4  and  C_28
REMARK    3  A    between atoms: O_7  and  C_25
REMARK    4  A    between atoms: O_7  and  C_29
REMARK    5  A    between atoms: C_24  and  C_27
REMARK    6  A    between atoms: C_36  and  C_40
REMARK                            x       y       z     vdW  Elec       q    Type
REMARK                         _______ _______ _______ _____ _____    ______ ____
ROOT
ATOM      1  O   UNL     1     112.013 129.189 137.284  0.00  0.00    +0.000 OA
ATOM      2  O   UNL     1     112.389 132.051 137.148  0.00  0.00    +0.000 OA
ATOM      3  O   UNL     1     113.445 131.141 136.775  0.00  0.00    +0.000 OA
ATOM      4  C   UNL     1     110.605 130.852 137.780  0.00  0.00    +0.000 A 
ATOM      5  C   UNL     1     110.916 130.058 137.671  0.00  0.00    +0.000 A 
ATOM      6  C   UNL     1     111.103 131.530 137.603  0.00  0.00    +0.000 A 
ATOM      7  C   UNL     1     111.720 129.954 137.387  0.00  0.00    +0.000 A 
ATOM      8  C   UNL     1     112.197 130.604 137.217  0.00  0.00    +0.000 A 
ATOM      9  C   UNL     1     111.903 131.406 137.320  0.00  0.00    +0.000 A 
ATOM     10  C   UNL     1     112.783 129.075 137.012  0.00  0.00    +0.000 A 
ATOM     11  C   UNL     1     112.968 130.491 136.945  0.00  0.00    +0.000 A 
ATOM     12  C   UNL     1     113.261 129.727 136.842  0.00  0.00    +0.000 A 
ENDROOT
BRANCH  10  16
ATOM     13  C   UNL     1     113.662 126.782 136.704  0.00  0.00    +0.000 A 
ATOM     14  C   UNL     1     113.471 127.053 137.459  0.00  0.00    +0.000 A 
ATOM     15  C   UNL     1     113.559 127.276 136.050  0.00  0.00    +0.000 A 
ATOM     16  C   UNL     1     113.076 128.311 136.909  0.00  0.00    +0.000 A 
ATOM     17  C   UNL     1     113.178 127.817 137.562  0.00  0.00    +0.000 A 
ATOM     18  C   UNL     1     113.266 128.040 136.153  0.00  0.00    +0.000 A 
BRANCH  13  19
ATOM     19  O   UNL     1     113.954 126.017 136.601  0.00  0.00    +0.000 OA
BRANCH  19  28
ATOM     20  O   UNL     1     112.682 125.436 136.312  0.00  0.00    +0.000 OA
ATOM     21  O   UNL     1     113.420 123.309 137.341  0.00  0.00    +0.000 OA
ATOM     22  O   UNL     1     111.901 123.436 136.708  0.00  0.00    +0.000 OA
ATOM     23  O   UNL     1     114.446 124.600 137.287  0.00  0.00    +0.000 OA
ATOM     24  C   UNL     1     113.174 124.018 136.998  0.00  0.00    +0.000 C 
ATOM     25  C   UNL     1     112.415 124.082 136.681  0.00  0.00    +0.000 C 
ATOM     26  C   UNL     1     113.686 124.663 136.971  0.00  0.00    +0.000 C 
ATOM     27  C   UNL     1     112.169 124.791 136.338  0.00  0.00    +0.000 C 
ATOM     28  C   UNL     1     113.440 125.372 136.628  0.00  0.00    +0.000 C 
ATOM     29  C   UNL     1     111.409 124.854 136.022  0.00  0.00    +0.000 C 
ENDBRANCH  19  28
ENDBRANCH  13  19
ENDBRANCH  10  16
BRANCH   4  30
ATOM     30  O   UNL     1     109.834 130.962 138.053  0.00  0.00    +0.000 OA
BRANCH  30  39
ATOM     31  O   UNL     1     109.177 130.518 136.864  0.00  0.00    +0.000 OA
ATOM     32  O   UNL     1     107.410 132.217 137.206  0.00  0.00    +0.000 OA
ATOM     33  O   UNL     1     107.343 131.206 135.902  0.00  0.00    +0.000 OA
ATOM     34  O   UNL     1     108.655 132.095 138.280  0.00  0.00    +0.000 OA
ATOM     35  C   UNL     1     107.999 131.651 137.092  0.00  0.00    +0.000 C 
ATOM     36  C   UNL     1     107.965 131.146 136.440  0.00  0.00    +0.000 C 
ATOM     37  C   UNL     1     108.622 131.590 137.629  0.00  0.00    +0.000 C 
ATOM     38  C   UNL     1     108.554 130.579 136.326  0.00  0.00    +0.000 C 
ATOM     39  C   UNL     1     109.211 131.023 137.515  0.00  0.00    +0.000 C 
BRANCH  38  42
ATOM     40  O   UNL     1     108.876 130.293 134.964  0.00  0.00    +0.000 OA
ATOM     41  O   UNL     1     108.132 129.348 135.736  0.00  0.00    +0.000 OA
ATOM     42  C   UNL     1     108.521 130.074 135.676  0.00  0.00    +0.000 C 
ENDBRANCH  38  42
ENDBRANCH  30  39
ENDBRANCH   4  30
TORSDOF 6
ENDMDL
MODEL 5
REMARK VINA RESULT:     -10.2      1.337      6.482
REMARK  Name = 44257818
REMARK  6 active torsions:
REMARK  status: ('A' for Active; 'I' for Inactive)
REMARK    1  A    between atoms: O_4  and  C_23
REMARK    2  A    between atoms: O_4  and  C_28
REMARK    3  A    between atoms: O_7  and  C_25
REMARK    4  A    between atoms: O_7  and  C_29
REMARK    5  A    between atoms: C_24  and  C_27
REMARK    6  A    between atoms: C_36  and  C_40
REMARK                            x       y       z     vdW  Elec       q    Type
REMARK                         _______ _______ _______ _____ _____    ______ ____
ROOT
ATOM      1  O   UNL     1     110.257 127.776 136.577  0.00  0.00    +0.000 OA
ATOM      2  O   UNL     1     110.287 125.204 135.260  0.00  0.00    +0.000 OA
ATOM      3  O   UNL     1     109.729 126.367 134.613  0.00  0.00    +0.000 OA
ATOM      4  C   UNL     1     111.034 125.805 137.286  0.00  0.00    +0.000 A 
ATOM      5  C   UNL     1     110.832 126.639 137.275  0.00  0.00    +0.000 A 
ATOM      6  C   UNL     1     110.850 125.315 136.603  0.00  0.00    +0.000 A 
ATOM      7  C   UNL     1     110.449 126.974 136.582  0.00  0.00    +0.000 A 
ATOM      8  C   UNL     1     110.273 126.504 135.928  0.00  0.00    +0.000 A 
ATOM      9  C   UNL     1     110.468 125.667 135.920  0.00  0.00    +0.000 A 
ATOM     10  C   UNL     1     109.889 128.109 135.918  0.00  0.00    +0.000 A 
ATOM     11  C   UNL     1     109.905 126.836 135.268  0.00  0.00    +0.000 A 
ATOM     12  C   UNL     1     109.713 127.639 135.263  0.00  0.00    +0.000 A 
ENDROOT
BRANCH  10  16
ATOM     13  C   UNL     1     109.314 130.516 135.904  0.00  0.00    +0.000 A 
ATOM     14  C   UNL     1     110.032 130.261 135.589  0.00  0.00    +0.000 A 
ATOM     15  C   UNL     1     108.787 129.967 136.225  0.00  0.00    +0.000 A 
ATOM     16  C   UNL     1     109.697 128.911 135.914  0.00  0.00    +0.000 A 
ATOM     17  C   UNL     1     110.224 129.459 135.594  0.00  0.00    +0.000 A 
ATOM     18  C   UNL     1     108.978 129.165 136.230  0.00  0.00    +0.000 A 
BRANCH  13  19
ATOM     19  O   UNL     1     109.122 131.319 135.900  0.00  0.00    +0.000 OA
BRANCH  19  28
ATOM     20  O   UNL     1     109.433 131.602 137.265  0.00  0.00    +0.000 OA
ATOM     21  O   UNL     1     110.415 133.772 136.591  0.00  0.00    +0.000 OA
ATOM     22  O   UNL     1     110.398 133.332 138.182  0.00  0.00    +0.000 OA
ATOM     23  O   UNL     1     109.776 132.765 135.450  0.00  0.00    +0.000 OA
ATOM     24  C   UNL     1     110.087 133.049 136.816  0.00  0.00    +0.000 C 
ATOM     25  C   UNL     1     110.079 132.828 137.611  0.00  0.00    +0.000 C 
ATOM     26  C   UNL     1     109.768 132.545 136.246  0.00  0.00    +0.000 C 
ATOM     27  C   UNL     1     109.752 132.105 137.836  0.00  0.00    +0.000 C 
ATOM     28  C   UNL     1     109.441 131.822 136.471  0.00  0.00    +0.000 C 
ATOM     29  C   UNL     1     109.744 131.886 138.631  0.00  0.00    +0.000 C 
ENDBRANCH  19  28
ENDBRANCH  13  19
ENDBRANCH  10  16
BRANCH   4  30
ATOM     30  O   UNL     1     111.402 125.475 137.947  0.00  0.00    +0.000 OA
BRANCH  30  39
ATOM     31  O   UNL     1     112.758 125.432 137.498  0.00  0.00    +0.000 OA
ATOM     32  O   UNL     1     113.504 126.372 139.662  0.00  0.00    +0.000 OA
ATOM     33  O   UNL     1     114.611 126.016 138.490  0.00  0.00    +0.000 OA
ATOM     34  O   UNL     1     111.900 126.101 139.390  0.00  0.00    +0.000 OA
ATOM     35  C   UNL     1     113.255 126.059 138.941  0.00  0.00    +0.000 C 
ATOM     36  C   UNL     1     113.809 125.881 138.355  0.00  0.00    +0.000 C 
ATOM     37  C   UNL     1     112.453 125.923 138.805  0.00  0.00    +0.000 C 
ATOM     38  C   UNL     1     113.560 125.568 137.634  0.00  0.00    +0.000 C 
ATOM     39  C   UNL     1     112.204 125.610 138.083  0.00  0.00    +0.000 C 
BRANCH  38  42
ATOM     40  O   UNL     1     114.346 125.970 136.510  0.00  0.00    +0.000 OA
ATOM     41  O   UNL     1     114.432 124.630 137.000  0.00  0.00    +0.000 OA
ATOM     42  C   UNL     1     114.113 125.390 137.048  0.00  0.00    +0.000 C 
ENDBRANCH  38  42
ENDBRANCH  30  39
ENDBRANCH   4  30
TORSDOF 6
ENDMDL
MODEL 6
REMARK VINA RESULT:     -10.1      1.878      3.140
REMARK  Name = 44257818
REMARK  6 active torsions:
REMARK  status: ('A' for Active; 'I' for Inactive)
REMARK    1  A    between atoms: O_4  and  C_23
REMARK    2  A    between atoms: O_4  and  C_28
REMARK    3  A    between atoms: O_7  and  C_25
REMARK    4  A    between atoms: O_7  and  C_29
REMARK    5  A    between atoms: C_24  and  C_27
REMARK    6  A    between atoms: C_36  and  C_40
REMARK                            x       y       z     vdW  Elec       q    Type
REMARK                         _______ _______ _______ _____ _____    ______ ____
ROOT
ATOM      1  O   UNL     1     112.069 129.208 137.295  0.00  0.00    +0.000 OA
ATOM      2  O   UNL     1     112.588 132.050 137.212  0.00  0.00    +0.000 OA
ATOM      3  O   UNL     1     113.597 131.096 136.820  0.00  0.00    +0.000 OA
ATOM      4  C   UNL     1     110.746 130.930 137.825  0.00  0.00    +0.000 A 
ATOM      5  C   UNL     1     111.017 130.124 137.701  0.00  0.00    +0.000 A 
ATOM      6  C   UNL     1     111.277 131.586 137.660  0.00  0.00    +0.000 A 
ATOM      7  C   UNL     1     111.815 129.985 137.413  0.00  0.00    +0.000 A 
ATOM      8  C   UNL     1     112.324 130.613 137.254  0.00  0.00    +0.000 A 
ATOM      9  C   UNL     1     112.071 131.427 137.373  0.00  0.00    +0.000 A 
ATOM     10  C   UNL     1     112.832 129.061 137.019  0.00  0.00    +0.000 A 
ATOM     11  C   UNL     1     113.088 130.467 136.978  0.00  0.00    +0.000 A 
ATOM     12  C   UNL     1     113.342 129.691 136.861  0.00  0.00    +0.000 A 
ENDROOT
BRANCH  10  16
ATOM     13  C   UNL     1     113.594 126.733 136.666  0.00  0.00    +0.000 A 
ATOM     14  C   UNL     1     113.420 127.000 137.427  0.00  0.00    +0.000 A 
ATOM     15  C   UNL     1     113.514 127.243 136.022  0.00  0.00    +0.000 A 
ATOM     16  C   UNL     1     113.086 128.285 136.901  0.00  0.00    +0.000 A 
ATOM     17  C   UNL     1     113.166 127.776 137.545  0.00  0.00    +0.000 A 
ATOM     18  C   UNL     1     113.260 128.019 136.140  0.00  0.00    +0.000 A 
BRANCH  13  19
ATOM     19  O   UNL     1     113.848 125.957 136.549  0.00  0.00    +0.000 OA
BRANCH  19  28
ATOM     20  O   UNL     1     112.551 125.440 136.240  0.00  0.00    +0.000 OA
ATOM     21  O   UNL     1     113.171 123.274 137.265  0.00  0.00    +0.000 OA
ATOM     22  O   UNL     1     111.668 123.480 136.615  0.00  0.00    +0.000 OA
ATOM     23  O   UNL     1     114.261 124.513 137.232  0.00  0.00    +0.000 OA
ATOM     24  C   UNL     1     112.964 123.996 136.924  0.00  0.00    +0.000 C 
ATOM     25  C   UNL     1     112.213 124.100 136.599  0.00  0.00    +0.000 C 
ATOM     26  C   UNL     1     113.509 124.616 136.907  0.00  0.00    +0.000 C 
ATOM     27  C   UNL     1     112.007 124.822 136.257  0.00  0.00    +0.000 C 
ATOM     28  C   UNL     1     113.302 125.338 136.565  0.00  0.00    +0.000 C 
ATOM     29  C   UNL     1     111.255 124.924 135.932  0.00  0.00    +0.000 C 
ENDBRANCH  19  28
ENDBRANCH  13  19
ENDBRANCH  10  16
BRANCH   4  30
ATOM     30  O   UNL     1     109.982 131.074 138.101  0.00  0.00    +0.000 OA
BRANCH  30  39
ATOM     31  O   UNL     1     110.319 131.102 139.490  0.00  0.00    +0.000 OA
ATOM     32  O   UNL     1     108.153 130.037 140.037  0.00  0.00    +0.000 OA
ATOM     33  O   UNL     1     109.213 130.421 141.244  0.00  0.00    +0.000 OA
ATOM     34  O   UNL     1     108.538 130.364 138.467  0.00  0.00    +0.000 OA
ATOM     35  C   UNL     1     108.875 130.392 139.855  0.00  0.00    +0.000 C 
ATOM     36  C   UNL     1     109.405 130.584 140.458  0.00  0.00    +0.000 C 
ATOM     37  C   UNL     1     109.068 130.556 139.069  0.00  0.00    +0.000 C 
ATOM     38  C   UNL     1     110.127 130.938 140.275  0.00  0.00    +0.000 C 
ATOM     39  C   UNL     1     109.790 130.910 138.887  0.00  0.00    +0.000 C 
BRANCH  38  42
ATOM     40  O   UNL     1     111.194 130.566 141.150  0.00  0.00    +0.000 OA
ATOM     41  O   UNL     1     110.650 131.887 141.207  0.00  0.00    +0.000 OA
ATOM     42  C   UNL     1     110.657 131.130 140.877  0.00  0.00    +0.000 C 
ENDBRANCH  38  42
ENDBRANCH  30  39
ENDBRANCH   4  30
TORSDOF 6
ENDMDL
MODEL 7
REMARK VINA RESULT:     -10.0      7.898     11.269
REMARK  Name = 44257818
REMARK  6 active torsions:
REMARK  status: ('A' for Active; 'I' for Inactive)
REMARK    1  A    between atoms: O_4  and  C_23
REMARK    2  A    between atoms: O_4  and  C_28
REMARK    3  A    between atoms: O_7  and  C_25
REMARK    4  A    between atoms: O_7  and  C_29
REMARK    5  A    between atoms: C_24  and  C_27
REMARK    6  A    between atoms: C_36  and  C_40
REMARK                            x       y       z     vdW  Elec       q    Type
REMARK                         _______ _______ _______ _____ _____    ______ ____
ROOT
ATOM      1  O   UNL     1     103.223 130.255 141.966  0.00  0.00    +0.000 OA
ATOM      2  O   UNL     1     103.695 127.953 140.284  0.00  0.00    +0.000 OA
ATOM      3  O   UNL     1     102.773 128.990 139.888  0.00  0.00    +0.000 OA
ATOM      4  C   UNL     1     104.565 128.495 142.277  0.00  0.00    +0.000 A 
ATOM      5  C   UNL     1     104.162 129.241 142.414  0.00  0.00    +0.000 A 
ATOM      6  C   UNL     1     104.409 128.056 141.554  0.00  0.00    +0.000 A 
ATOM      7  C   UNL     1     103.607 129.538 141.828  0.00  0.00    +0.000 A 
ATOM      8  C   UNL     1     103.457 129.117 141.136  0.00  0.00    +0.000 A 
ATOM      9  C   UNL     1     103.852 128.368 140.981  0.00  0.00    +0.000 A 
ATOM     10  C   UNL     1     102.688 130.550 141.412  0.00  0.00    +0.000 A 
ATOM     11  C   UNL     1     102.923 129.411 140.580  0.00  0.00    +0.000 A 
ATOM     12  C   UNL     1     102.539 130.128 140.718  0.00  0.00    +0.000 A 
ENDROOT
BRANCH  10  16
ATOM     13  C   UNL     1     101.535 132.701 141.826  0.00  0.00    +0.000 A 
ATOM     14  C   UNL     1     102.254 132.689 141.422  0.00  0.00    +0.000 A 
ATOM     15  C   UNL     1     101.200 131.994 142.092  0.00  0.00    +0.000 A 
ATOM     16  C   UNL     1     102.304 131.267 141.550  0.00  0.00    +0.000 A 
ATOM     17  C   UNL     1     102.639 131.972 141.284  0.00  0.00    +0.000 A 
ATOM     18  C   UNL     1     101.585 131.277 141.954  0.00  0.00    +0.000 A 
BRANCH  13  19
ATOM     19  O   UNL     1     101.151 133.417 141.964  0.00  0.00    +0.000 OA
BRANCH  19  28
ATOM     20  O   UNL     1     101.620 133.635 143.296  0.00  0.00    +0.000 OA
ATOM     21  O   UNL     1     101.880 136.048 142.810  0.00  0.00    +0.000 OA
ATOM     22  O   UNL     1     102.263 135.461 144.304  0.00  0.00    +0.000 OA
ATOM     23  O   UNL     1     101.324 135.026 141.640  0.00  0.00    +0.000 OA
ATOM     24  C   UNL     1     101.793 135.244 142.972  0.00  0.00    +0.000 C 
ATOM     25  C   UNL     1     101.985 134.950 143.718  0.00  0.00    +0.000 C 
ATOM     26  C   UNL     1     101.515 134.732 142.387  0.00  0.00    +0.000 C 
ATOM     27  C   UNL     1     101.898 134.146 143.880  0.00  0.00    +0.000 C 
ATOM     28  C   UNL     1     101.429 133.928 142.549  0.00  0.00    +0.000 C 
ATOM     29  C   UNL     1     102.090 133.853 144.628  0.00  0.00    +0.000 C 
ENDBRANCH  19  28
ENDBRANCH  13  19
ENDBRANCH  10  16
BRANCH   4  30
ATOM     30  O   UNL     1     105.099 128.203 142.834  0.00  0.00    +0.000 OA
BRANCH  30  39
ATOM     31  O   UNL     1     106.250 128.842 142.278  0.00  0.00    +0.000 OA
ATOM     32  O   UNL     1     107.648 126.916 142.958  0.00  0.00    +0.000 OA
ATOM     33  O   UNL     1     108.333 128.198 142.175  0.00  0.00    +0.000 OA
ATOM     34  O   UNL     1     106.032 126.918 143.286  0.00  0.00    +0.000 OA
ATOM     35  C   UNL     1     107.182 127.558 142.731  0.00  0.00    +0.000 C 
ATOM     36  C   UNL     1     107.524 128.199 142.340  0.00  0.00    +0.000 C 
ATOM     37  C   UNL     1     106.373 127.559 142.896  0.00  0.00    +0.000 C 
ATOM     38  C   UNL     1     107.058 128.841 142.114  0.00  0.00    +0.000 C 
ATOM     39  C   UNL     1     105.907 128.201 142.669  0.00  0.00    +0.000 C 
BRANCH  38  42
ATOM     40  O   UNL     1     107.678 130.128 142.154  0.00  0.00    +0.000 OA
ATOM     41  O   UNL     1     107.464 129.476 140.900  0.00  0.00    +0.000 OA
ATOM     42  C   UNL     1     107.400 129.482 141.723  0.00  0.00    +0.000 C 
ENDBRANCH  38  42
ENDBRANCH  30  39
ENDBRANCH   4  30
TORSDOF 6
ENDMDL
MODEL 8
REMARK VINA RESULT:     -10.0      2.116      7.083
REMARK  Name = 44257818
REMARK  6 active torsions:
REMARK  status: ('A' for Active; 'I' for Inactive)
REMARK    1  A    between atoms: O_4  and  C_23
REMARK    2  A    between atoms: O_4  and  C_28
REMARK    3  A    between atoms: O_7  and  C_25
REMARK    4  A    between atoms: O_7  and  C_29
REMARK    5  A    between atoms: C_24  and  C_27
REMARK    6  A    between atoms: C_36  and  C_40
REMARK                            x       y       z     vdW  Elec       q    Type
REMARK                         _______ _______ _______ _____ _____    ______ ____
ROOT
ATOM      1  O   UNL     1     112.025 128.581 138.301  0.00  0.00    +0.000 OA
ATOM      2  O   UNL     1     113.904 127.734 140.326  0.00  0.00    +0.000 OA
ATOM      3  O   UNL     1     113.728 129.131 140.010  0.00  0.00    +0.000 OA
ATOM      4  C   UNL     1     112.534 126.529 139.025  0.00  0.00    +0.000 A 
ATOM      5  C   UNL     1     112.162 127.162 138.579  0.00  0.00    +0.000 A 
ATOM      6  C   UNL     1     113.126 126.721 139.619  0.00  0.00    +0.000 A 
ATOM      7  C   UNL     1     112.386 127.978 138.732  0.00  0.00    +0.000 A 
ATOM      8  C   UNL     1     112.953 128.161 139.302  0.00  0.00    +0.000 A 
ATOM      9  C   UNL     1     113.337 127.541 139.758  0.00  0.00    +0.000 A 
ATOM     10  C   UNL     1     112.231 129.368 138.439  0.00  0.00    +0.000 A 
ATOM     11  C   UNL     1     113.161 128.948 139.440  0.00  0.00    +0.000 A 
ATOM     12  C   UNL     1     112.799 129.551 139.009  0.00  0.00    +0.000 A 
ENDROOT
BRANCH  10  16
ATOM     13  C   UNL     1     111.148 131.178 137.144  0.00  0.00    +0.000 A 
ATOM     14  C   UNL     1     110.781 130.875 137.818  0.00  0.00    +0.000 A 
ATOM     15  C   UNL     1     111.877 130.876 136.902  0.00  0.00    +0.000 A 
ATOM     16  C   UNL     1     111.870 129.971 138.007  0.00  0.00    +0.000 A 
ATOM     17  C   UNL     1     111.142 130.272 138.249  0.00  0.00    +0.000 A 
ATOM     18  C   UNL     1     112.238 130.273 137.333  0.00  0.00    +0.000 A 
BRANCH  13  19
ATOM     19  O   UNL     1     110.787 131.781 136.712  0.00  0.00    +0.000 OA
BRANCH  19  28
ATOM     20  O   UNL     1     110.225 130.934 135.708  0.00  0.00    +0.000 OA
ATOM     21  O   UNL     1     108.244 132.411 135.571  0.00  0.00    +0.000 OA
ATOM     22  O   UNL     1     108.342 131.071 134.612  0.00  0.00    +0.000 OA
ATOM     23  O   UNL     1     109.466 132.766 136.621  0.00  0.00    +0.000 OA
ATOM     24  C   UNL     1     108.904 131.919 135.617  0.00  0.00    +0.000 C 
ATOM     25  C   UNL     1     108.954 131.249 135.138  0.00  0.00    +0.000 C 
ATOM     26  C   UNL     1     109.515 132.095 136.141  0.00  0.00    +0.000 C 
ATOM     27  C   UNL     1     109.614 130.756 135.184  0.00  0.00    +0.000 C 
ATOM     28  C   UNL     1     110.176 131.603 136.187  0.00  0.00    +0.000 C 
ATOM     29  C   UNL     1     109.663 130.087 134.704  0.00  0.00    +0.000 C 
ENDBRANCH  19  28
ENDBRANCH  13  19
ENDBRANCH  10  16
BRANCH   4  30
ATOM     30  O   UNL     1     112.326 125.743 138.884  0.00  0.00    +0.000 OA
BRANCH  30  39
ATOM     31  O   UNL     1     113.388 125.425 137.983  0.00  0.00    +0.000 OA
ATOM     32  O   UNL     1     111.824 124.077 136.617  0.00  0.00    +0.000 OA
ATOM     33  O   UNL     1     113.409 124.208 136.171  0.00  0.00    +0.000 OA
ATOM     34  O   UNL     1     111.284 124.844 137.973  0.00  0.00    +0.000 OA
ATOM     35  C   UNL     1     112.345 124.526 137.073  0.00  0.00    +0.000 C 
ATOM     36  C   UNL     1     113.137 124.592 136.849  0.00  0.00    +0.000 C 
ATOM     37  C   UNL     1     112.075 124.910 137.751  0.00  0.00    +0.000 C 
ATOM     38  C   UNL     1     113.658 125.041 137.304  0.00  0.00    +0.000 C 
ATOM     39  C   UNL     1     112.596 125.360 138.206  0.00  0.00    +0.000 C 
BRANCH  38  42
ATOM     40  O   UNL     1     114.673 125.658 136.510  0.00  0.00    +0.000 OA
ATOM     41  O   UNL     1     115.018 124.621 137.433  0.00  0.00    +0.000 OA
ATOM     42  C   UNL     1     114.449 125.107 137.082  0.00  0.00    +0.000 C 
ENDBRANCH  38  42
ENDBRANCH  30  39
ENDBRANCH   4  30
TORSDOF 6
ENDMDL
MODEL 9
REMARK VINA RESULT:     -10.0      2.765      6.408
REMARK  Name = 44257818
REMARK  6 active torsions:
REMARK  status: ('A' for Active; 'I' for Inactive)
REMARK    1  A    between atoms: O_4  and  C_23
REMARK    2  A    between atoms: O_4  and  C_28
REMARK    3  A    between atoms: O_7  and  C_25
REMARK    4  A    between atoms: O_7  and  C_29
REMARK    5  A    between atoms: C_24  and  C_27
REMARK    6  A    between atoms: C_36  and  C_40
REMARK                            x       y       z     vdW  Elec       q    Type
REMARK                         _______ _______ _______ _____ _____    ______ ____
ROOT
ATOM      1  O   UNL     1     111.787 128.194 137.008  0.00  0.00    +0.000 OA
ATOM      2  O   UNL     1     114.178 126.617 136.620  0.00  0.00    +0.000 OA
ATOM      3  O   UNL     1     113.806 127.651 135.684  0.00  0.00    +0.000 OA
ATOM      4  C   UNL     1     112.640 126.542 138.248  0.00  0.00    +0.000 A 
ATOM      5  C   UNL     1     112.114 127.167 137.982  0.00  0.00    +0.000 A 
ATOM      6  C   UNL     1     113.341 126.353 137.788  0.00  0.00    +0.000 A 
ATOM      7  C   UNL     1     112.296 127.595 137.259  0.00  0.00    +0.000 A 
ATOM      8  C   UNL     1     112.969 127.414 136.818  0.00  0.00    +0.000 A 
ATOM      9  C   UNL     1     113.507 126.791 137.068  0.00  0.00    +0.000 A 
ATOM     10  C   UNL     1     111.951 128.612 136.317  0.00  0.00    +0.000 A 
ATOM     11  C   UNL     1     113.133 127.832 136.125  0.00  0.00    +0.000 A 
ATOM     12  C   UNL     1     112.624 128.431 135.875  0.00  0.00    +0.000 A 
ENDROOT
BRANCH  10  16
ATOM     13  C   UNL     1     110.424 130.409 135.565  0.00  0.00    +0.000 A 
ATOM     14  C   UNL     1     111.108 130.598 135.986  0.00  0.00    +0.000 A 
ATOM     15  C   UNL     1     110.249 129.621 135.395  0.00  0.00    +0.000 A 
ATOM     16  C   UNL     1     111.442 129.211 136.066  0.00  0.00    +0.000 A 
ATOM     17  C   UNL     1     111.617 129.999 136.236  0.00  0.00    +0.000 A 
ATOM     18  C   UNL     1     110.758 129.022 135.645  0.00  0.00    +0.000 A 
BRANCH  13  19
ATOM     19  O   UNL     1     109.916 131.009 135.314  0.00  0.00    +0.000 OA
BRANCH  19  28
ATOM     20  O   UNL     1     109.353 131.334 136.587  0.00  0.00    +0.000 OA
ATOM     21  O   UNL     1     107.128 131.598 135.536  0.00  0.00    +0.000 OA
ATOM     22  O   UNL     1     107.307 131.835 137.159  0.00  0.00    +0.000 OA
ATOM     23  O   UNL     1     108.432 131.185 134.613  0.00  0.00    +0.000 OA
ATOM     24  C   UNL     1     107.870 131.510 135.886  0.00  0.00    +0.000 C 
ATOM     25  C   UNL     1     107.960 131.628 136.697  0.00  0.00    +0.000 C 
ATOM     26  C   UNL     1     108.522 131.303 135.426  0.00  0.00    +0.000 C 
ATOM     27  C   UNL     1     108.701 131.540 137.048  0.00  0.00    +0.000 C 
ATOM     28  C   UNL     1     109.264 131.215 135.776  0.00  0.00    +0.000 C 
ATOM     29  C   UNL     1     108.790 131.659 137.860  0.00  0.00    +0.000 C 
ENDBRANCH  19  28
ENDBRANCH  13  19
ENDBRANCH  10  16
BRANCH   4  30
ATOM     30  O   UNL     1     112.473 126.125 138.941  0.00  0.00    +0.000 OA
BRANCH  30  39
ATOM     31  O   UNL     1     113.329 126.827 139.845  0.00  0.00    +0.000 OA
ATOM     32  O   UNL     1     111.526 126.841 141.540  0.00  0.00    +0.000 OA
ATOM     33  O   UNL     1     112.983 127.539 141.879  0.00  0.00    +0.000 OA
ATOM     34  O   UNL     1     111.271 126.135 140.072  0.00  0.00    +0.000 OA
ATOM     35  C   UNL     1     112.127 126.837 140.975  0.00  0.00    +0.000 C 
ATOM     36  C   UNL     1     112.855 127.185 141.144  0.00  0.00    +0.000 C 
ATOM     37  C   UNL     1     112.000 126.483 140.240  0.00  0.00    +0.000 C 
ATOM     38  C   UNL     1     113.456 127.180 140.579  0.00  0.00    +0.000 C 
ATOM     39  C   UNL     1     112.601 126.479 139.675  0.00  0.00    +0.000 C 
BRANCH  38  42
ATOM     40  O   UNL     1     114.286 128.342 140.653  0.00  0.00    +0.000 OA
ATOM     41  O   UNL     1     114.813 127.062 141.013  0.00  0.00    +0.000 OA
ATOM     42  C   UNL     1     114.185 127.529 140.748  0.00  0.00    +0.000 C 
ENDBRANCH  38  42
ENDBRANCH  30  39
ENDBRANCH   4  30
TORSDOF 6
ENDMDL
MODEL 10
REMARK VINA RESULT:     -10.0      4.620      7.214
REMARK  Name = 44257818
REMARK  6 active torsions:
REMARK  status: ('A' for Active; 'I' for Inactive)
REMARK    1  A    between atoms: O_4  and  C_23
REMARK    2  A    between atoms: O_4  and  C_28
REMARK    3  A    between atoms: O_7  and  C_25
REMARK    4  A    between atoms: O_7  and  C_29
REMARK    5  A    between atoms: C_24  and  C_27
REMARK    6  A    between atoms: C_36  and  C_40
REMARK                            x       y       z     vdW  Elec       q    Type
REMARK                         _______ _______ _______ _____ _____    ______ ____
ROOT
ATOM      1  O   UNL     1     109.297 125.865 139.701  0.00  0.00    +0.000 OA
ATOM      2  O   UNL     1     112.015 126.588 140.364  0.00  0.00    +0.000 OA
ATOM      3  O   UNL     1     111.063 126.244 141.392  0.00  0.00    +0.000 OA
ATOM      4  C   UNL     1     110.998 126.444 138.373  0.00  0.00    +0.000 A 
ATOM      5  C   UNL     1     110.213 126.203 138.626  0.00  0.00    +0.000 A 
ATOM      6  C   UNL     1     111.612 126.576 138.960  0.00  0.00    +0.000 A 
ATOM      7  C   UNL     1     110.052 126.097 139.464  0.00  0.00    +0.000 A 
ATOM      8  C   UNL     1     110.641 126.223 140.027  0.00  0.00    +0.000 A 
ATOM      9  C   UNL     1     111.432 126.464 139.792  0.00  0.00    +0.000 A 
ATOM     10  C   UNL     1     109.130 125.760 140.502  0.00  0.00    +0.000 A 
ATOM     11  C   UNL     1     110.475 126.118 140.829  0.00  0.00    +0.000 A 
ATOM     12  C   UNL     1     109.719 125.886 141.066  0.00  0.00    +0.000 A 
ENDROOT
BRANCH  10  16
ATOM     13  C   UNL     1     106.863 125.065 141.214  0.00  0.00    +0.000 A 
ATOM     14  C   UNL     1     107.449 124.498 141.089  0.00  0.00    +0.000 A 
ATOM     15  C   UNL     1     107.034 125.865 141.102  0.00  0.00    +0.000 A 
ATOM     16  C   UNL     1     108.374 125.528 140.739  0.00  0.00    +0.000 A 
ATOM     17  C   UNL     1     108.204 124.730 140.852  0.00  0.00    +0.000 A 
ATOM     18  C   UNL     1     107.789 126.097 140.864  0.00  0.00    +0.000 A 
BRANCH  13  19
ATOM     19  O   UNL     1     106.108 124.834 141.451  0.00  0.00    +0.000 OA
BRANCH  19  28
ATOM     20  O   UNL     1     105.531 124.740 140.147  0.00  0.00    +0.000 OA
ATOM     21  O   UNL     1     104.252 122.744 140.857  0.00  0.00    +0.000 OA
ATOM     22  O   UNL     1     104.101 123.316 139.316  0.00  0.00    +0.000 OA
ATOM     23  O   UNL     1     105.255 123.503 141.924  0.00  0.00    +0.000 OA
ATOM     24  C   UNL     1     104.678 123.409 140.620  0.00  0.00    +0.000 C 
ATOM     25  C   UNL     1     104.603 123.696 139.850  0.00  0.00    +0.000 C 
ATOM     26  C   UNL     1     105.180 123.789 141.154  0.00  0.00    +0.000 C 
ATOM     27  C   UNL     1     105.030 124.361 139.614  0.00  0.00    +0.000 C 
ATOM     28  C   UNL     1     105.606 124.455 140.917  0.00  0.00    +0.000 C 
ATOM     29  C   UNL     1     104.954 124.647 138.843  0.00  0.00    +0.000 C 
ENDBRANCH  19  28
ENDBRANCH  13  19
ENDBRANCH  10  16
BRANCH   4  30
ATOM     30  O   UNL     1     111.161 126.549 137.571  0.00  0.00    +0.000 OA
BRANCH  30  39
ATOM     31  O   UNL     1     111.692 125.248 137.309  0.00  0.00    +0.000 OA
ATOM     32  O   UNL     1     110.532 125.216 135.123  0.00  0.00    +0.000 OA
ATOM     33  O   UNL     1     111.450 123.925 135.590  0.00  0.00    +0.000 OA
ATOM     34  O   UNL     1     110.388 126.526 136.113  0.00  0.00    +0.000 OA
ATOM     35  C   UNL     1     110.919 125.226 135.851  0.00  0.00    +0.000 C 
ATOM     36  C   UNL     1     111.377 124.582 136.085  0.00  0.00    +0.000 C 
ATOM     37  C   UNL     1     110.847 125.882 136.347  0.00  0.00    +0.000 C 
ATOM     38  C   UNL     1     111.764 124.592 136.813  0.00  0.00    +0.000 C 
ATOM     39  C   UNL     1     111.233 125.893 137.075  0.00  0.00    +0.000 C 
BRANCH  38  42
ATOM     40  O   UNL     1     113.039 123.956 136.926  0.00  0.00    +0.000 OA
ATOM     41  O   UNL     1     111.865 123.295 137.403  0.00  0.00    +0.000 OA
ATOM     42  C   UNL     1     112.223 123.948 137.047  0.00  0.00    +0.000 C 
ENDBRANCH  38  42
ENDBRANCH  30  39
ENDBRANCH   4  30
TORSDOF 6
ENDMDL
