MODEL 1
REMARK VINA RESULT:      -9.1      0.000      0.000
REMARK  Name = 13871818
REMARK  5 active torsions:
REMARK  status: ('A' for Active; 'I' for Inactive)
REMARK    1  A    between atoms: O_2  and  C_15
REMARK    2  A    between atoms: O_2  and  C_17
REMARK    3  A    between atoms: O_8  and  C_25
REMARK    4  A    between atoms: C_14  and  C_16
REMARK    5  A    between atoms: C_18  and  C_26
REMARK                            x       y       z     vdW  Elec       q    Type
REMARK                         _______ _______ _______ _____ _____    ______ ____
ROOT
ATOM      1  O   UNL     1     112.332 126.586 136.295  0.00  0.00    +0.000 OA
ATOM      2  O   UNL     1     110.728 124.867 135.521  0.00  0.00    +0.000 OA
ATOM      3  C   UNL     1     110.751 127.892 135.406  0.00  0.00    +0.000 A 
ATOM      4  C   UNL     1     112.495 125.786 136.414  0.00  0.00    +0.000 C 
ATOM      5  C   UNL     1     111.634 126.814 135.918  0.00  0.00    +0.000 A 
ATOM      6  C   UNL     1     111.100 126.241 135.660  0.00  0.00    +0.000 A 
ATOM      7  C   UNL     1     111.960 125.214 136.156  0.00  0.00    +0.000 C 
ATOM      8  C   UNL     1     111.476 127.649 135.799  0.00  0.00    +0.000 A 
ATOM      9  C   UNL     1     110.194 127.295 135.138  0.00  0.00    +0.000 A 
ATOM     10  C   UNL     1     111.262 125.441 135.779  0.00  0.00    +0.000 C 
ATOM     11  C   UNL     1     110.370 126.464 135.265  0.00  0.00    +0.000 A 
ENDROOT
BRANCH   4  13
ATOM     12  O   UNL     1     115.286 124.878 137.923  0.00  0.00    +0.000 OA
ATOM     13  C   UNL     1     113.193 125.559 136.792  0.00  0.00    +0.000 A 
ATOM     14  C   UNL     1     113.253 125.611 137.613  0.00  0.00    +0.000 A 
ATOM     15  C   UNL     1     113.830 125.280 136.347  0.00  0.00    +0.000 A 
ATOM     16  C   UNL     1     113.951 125.384 137.989  0.00  0.00    +0.000 A 
ATOM     17  C   UNL     1     114.527 125.053 136.724  0.00  0.00    +0.000 A 
ATOM     18  C   UNL     1     114.588 125.105 137.545  0.00  0.00    +0.000 A 
ENDBRANCH   4  13
BRANCH  11  19
ATOM     19  O   UNL     1     109.841 125.884 135.011  0.00  0.00    +0.000 OA
ATOM     20  C   UNL     1     109.034 126.052 134.966  0.00  0.00    +0.000 C 
ENDBRANCH  11  19
BRANCH   3  21
ATOM     21  O   UNL     1     110.590 128.693 135.288  0.00  0.00    +0.000 OA
BRANCH  21  30
ATOM     22  O   UNL     1     110.063 128.974 136.586  0.00  0.00    +0.000 OA
ATOM     23  O   UNL     1     108.350 130.445 135.572  0.00  0.00    +0.000 OA
ATOM     24  O   UNL     1     108.394 130.236 137.207  0.00  0.00    +0.000 OA
ATOM     25  O   UNL     1     109.449 129.674 134.612  0.00  0.00    +0.000 OA
ATOM     26  C   UNL     1     108.921 129.955 135.910  0.00  0.00    +0.000 C 
ATOM     27  C   UNL     1     108.943 129.850 136.728  0.00  0.00    +0.000 C 
ATOM     28  C   UNL     1     109.471 129.569 135.430  0.00  0.00    +0.000 C 
ATOM     29  C   UNL     1     109.514 129.360 137.066  0.00  0.00    +0.000 C 
ATOM     30  C   UNL     1     110.042 129.078 135.768  0.00  0.00    +0.000 C 
BRANCH  29  32
ATOM     31  O   UNL     1     109.344 128.523 138.212  0.00  0.00    +0.000 OA
ATOM     32  C   UNL     1     109.536 129.255 137.883  0.00  0.00    +0.000 C 
ENDBRANCH  29  32
ENDBRANCH  21  30
ENDBRANCH   3  21
TORSDOF 5
ENDMDL
MODEL 2
REMARK VINA RESULT:      -9.0      9.507     11.832
REMARK  Name = 13871818
REMARK  5 active torsions:
REMARK  status: ('A' for Active; 'I' for Inactive)
REMARK    1  A    between atoms: O_2  and  C_15
REMARK    2  A    between atoms: O_2  and  C_17
REMARK    3  A    between atoms: O_8  and  C_25
REMARK    4  A    between atoms: C_14  and  C_16
REMARK    5  A    between atoms: C_18  and  C_26
REMARK                            x       y       z     vdW  Elec       q    Type
REMARK                         _______ _______ _______ _____ _____    ______ ____
ROOT
ATOM      1  O   UNL     1     105.412 126.293 144.170  0.00  0.00    +0.000 OA
ATOM      2  O   UNL     1     107.178 127.293 145.588  0.00  0.00    +0.000 OA
ATOM      3  C   UNL     1     105.550 124.747 145.778  0.00  0.00    +0.000 A 
ATOM      4  C   UNL     1     105.753 127.014 143.958  0.00  0.00    +0.000 C 
ATOM      5  C   UNL     1     105.659 125.906 144.855  0.00  0.00    +0.000 A 
ATOM      6  C   UNL     1     106.248 126.238 145.328  0.00  0.00    +0.000 A 
ATOM      7  C   UNL     1     106.341 127.347 144.430  0.00  0.00    +0.000 C 
ATOM      8  C   UNL     1     105.297 125.156 145.065  0.00  0.00    +0.000 A 
ATOM      9  C   UNL     1     106.163 125.094 146.269  0.00  0.00    +0.000 A 
ATOM     10  C   UNL     1     106.589 126.959 145.115  0.00  0.00    +0.000 C 
ATOM     11  C   UNL     1     106.514 125.845 146.043  0.00  0.00    +0.000 A 
ENDROOT
BRANCH   4  13
ATOM     12  O   UNL     1     104.763 128.566 141.219  0.00  0.00    +0.000 OA
ATOM     13  C   UNL     1     105.505 127.402 143.273  0.00  0.00    +0.000 A 
ATOM     14  C   UNL     1     105.710 127.102 142.532  0.00  0.00    +0.000 A 
ATOM     15  C   UNL     1     105.054 128.090 143.330  0.00  0.00    +0.000 A 
ATOM     16  C   UNL     1     105.462 127.490 141.848  0.00  0.00    +0.000 A 
ATOM     17  C   UNL     1     104.806 128.478 142.645  0.00  0.00    +0.000 A 
ATOM     18  C   UNL     1     105.010 128.178 141.904  0.00  0.00    +0.000 A 
ENDBRANCH   4  13
BRANCH  11  19
ATOM     19  O   UNL     1     107.104 126.185 146.509  0.00  0.00    +0.000 OA
ATOM     20  C   UNL     1     107.395 125.780 147.167  0.00  0.00    +0.000 C 
ENDBRANCH  11  19
BRANCH   3  21
ATOM     21  O   UNL     1     105.208 124.026 145.987  0.00  0.00    +0.000 OA
BRANCH  21  30
ATOM     22  O   UNL     1     104.136 124.550 146.775  0.00  0.00    +0.000 OA
ATOM     23  O   UNL     1     102.621 122.818 145.865  0.00  0.00    +0.000 OA
ATOM     24  O   UNL     1     102.055 123.919 146.955  0.00  0.00    +0.000 OA
ATOM     25  O   UNL     1     104.197 122.871 145.381  0.00  0.00    +0.000 OA
ATOM     26  C   UNL     1     103.126 123.395 146.169  0.00  0.00    +0.000 C 
ATOM     27  C   UNL     1     102.844 123.946 146.714  0.00  0.00    +0.000 C 
ATOM     28  C   UNL     1     103.915 123.422 145.926  0.00  0.00    +0.000 C 
ATOM     29  C   UNL     1     103.349 124.523 147.017  0.00  0.00    +0.000 C 
ATOM     30  C   UNL     1     104.420 124.000 146.229  0.00  0.00    +0.000 C 
BRANCH  29  32
ATOM     31  O   UNL     1     103.470 125.200 148.270  0.00  0.00    +0.000 OA
ATOM     32  C   UNL     1     103.066 125.074 147.562  0.00  0.00    +0.000 C 
ENDBRANCH  29  32
ENDBRANCH  21  30
ENDBRANCH   3  21
TORSDOF 5
ENDMDL
MODEL 3
REMARK VINA RESULT:      -9.0      1.418      2.349
REMARK  Name = 13871818
REMARK  5 active torsions:
REMARK  status: ('A' for Active; 'I' for Inactive)
REMARK    1  A    between atoms: O_2  and  C_15
REMARK    2  A    between atoms: O_2  and  C_17
REMARK    3  A    between atoms: O_8  and  C_25
REMARK    4  A    between atoms: C_14  and  C_16
REMARK    5  A    between atoms: C_18  and  C_26
REMARK                            x       y       z     vdW  Elec       q    Type
REMARK                         _______ _______ _______ _____ _____    ______ ____
ROOT
ATOM      1  O   UNL     1     111.873 126.516 136.217  0.00  0.00    +0.000 OA
ATOM      2  O   UNL     1     114.130 127.482 136.533  0.00  0.00    +0.000 OA
ATOM      3  C   UNL     1     111.510 128.606 135.513  0.00  0.00    +0.000 A 
ATOM      4  C   UNL     1     112.484 126.048 136.515  0.00  0.00    +0.000 C 
ATOM      5  C   UNL     1     112.014 127.305 136.025  0.00  0.00    +0.000 A 
ATOM      6  C   UNL     1     112.766 127.628 136.130  0.00  0.00    +0.000 A 
ATOM      7  C   UNL     1     113.237 126.371 136.620  0.00  0.00    +0.000 C 
ATOM      8  C   UNL     1     111.370 127.782 135.715  0.00  0.00    +0.000 A 
ATOM      9  C   UNL     1     112.294 128.940 135.622  0.00  0.00    +0.000 A 
ATOM     10  C   UNL     1     113.377 127.160 136.428  0.00  0.00    +0.000 C 
ATOM     11  C   UNL     1     112.926 128.448 135.933  0.00  0.00    +0.000 A 
ENDROOT
BRANCH   4  13
ATOM     12  O   UNL     1     111.920 122.890 137.287  0.00  0.00    +0.000 OA
ATOM     13  C   UNL     1     112.344 125.259 136.708  0.00  0.00    +0.000 A 
ATOM     14  C   UNL     1     112.763 124.659 136.326  0.00  0.00    +0.000 A 
ATOM     15  C   UNL     1     111.783 125.069 137.283  0.00  0.00    +0.000 A 
ATOM     16  C   UNL     1     112.621 123.870 136.519  0.00  0.00    +0.000 A 
ATOM     17  C   UNL     1     111.642 124.279 137.476  0.00  0.00    +0.000 A 
ATOM     18  C   UNL     1     112.061 123.680 137.094  0.00  0.00    +0.000 A 
ENDBRANCH   4  13
BRANCH  11  19
ATOM     19  O   UNL     1     113.682 128.762 136.041  0.00  0.00    +0.000 OA
ATOM     20  C   UNL     1     113.878 129.489 135.704  0.00  0.00    +0.000 C 
ENDBRANCH  11  19
BRANCH   3  21
ATOM     21  O   UNL     1     110.897 129.071 135.215  0.00  0.00    +0.000 OA
BRANCH  21  30
ATOM     22  O   UNL     1     110.468 129.663 136.442  0.00  0.00    +0.000 OA
ATOM     23  O   UNL     1     108.108 129.381 135.752  0.00  0.00    +0.000 OA
ATOM     24  O   UNL     1     108.465 130.067 137.209  0.00  0.00    +0.000 OA
ATOM     25  O   UNL     1     109.324 128.883 134.755  0.00  0.00    +0.000 OA
ATOM     26  C   UNL     1     108.894 129.475 135.982  0.00  0.00    +0.000 C 
ATOM     27  C   UNL     1     109.073 129.818 136.711  0.00  0.00    +0.000 C 
ATOM     28  C   UNL     1     109.503 129.226 135.483  0.00  0.00    +0.000 C 
ATOM     29  C   UNL     1     109.860 129.912 136.941  0.00  0.00    +0.000 C 
ATOM     30  C   UNL     1     110.290 129.320 135.713  0.00  0.00    +0.000 C 
BRANCH  29  32
ATOM     31  O   UNL     1     110.580 130.876 137.712  0.00  0.00    +0.000 OA
ATOM     32  C   UNL     1     110.038 130.255 137.669  0.00  0.00    +0.000 C 
ENDBRANCH  29  32
ENDBRANCH  21  30
ENDBRANCH   3  21
TORSDOF 5
ENDMDL
MODEL 4
REMARK VINA RESULT:      -8.9     10.057     12.112
REMARK  Name = 13871818
REMARK  5 active torsions:
REMARK  status: ('A' for Active; 'I' for Inactive)
REMARK    1  A    between atoms: O_2  and  C_15
REMARK    2  A    between atoms: O_2  and  C_17
REMARK    3  A    between atoms: O_8  and  C_25
REMARK    4  A    between atoms: C_14  and  C_16
REMARK    5  A    between atoms: C_18  and  C_26
REMARK                            x       y       z     vdW  Elec       q    Type
REMARK                         _______ _______ _______ _____ _____    ______ ____
ROOT
ATOM      1  O   UNL     1     104.165 124.384 145.953  0.00  0.00    +0.000 OA
ATOM      2  O   UNL     1     105.120 124.615 148.225  0.00  0.00    +0.000 OA
ATOM      3  C   UNL     1     106.151 125.282 145.458  0.00  0.00    +0.000 A 
ATOM      4  C   UNL     1     103.729 124.143 146.610  0.00  0.00    +0.000 C 
ATOM      5  C   UNL     1     104.920 124.702 146.053  0.00  0.00    +0.000 A 
ATOM      6  C   UNL     1     105.238 124.779 146.810  0.00  0.00    +0.000 A 
ATOM      7  C   UNL     1     104.047 124.220 147.367  0.00  0.00    +0.000 C 
ATOM      8  C   UNL     1     105.364 124.950 145.360  0.00  0.00    +0.000 A 
ATOM      9  C   UNL     1     106.482 125.362 146.247  0.00  0.00    +0.000 A 
ATOM     10  C   UNL     1     104.802 124.538 147.467  0.00  0.00    +0.000 C 
ATOM     11  C   UNL     1     106.022 125.109 146.927  0.00  0.00    +0.000 A 
ENDROOT
BRANCH   4  13
ATOM     12  O   UNL     1     100.710 122.871 146.211  0.00  0.00    +0.000 OA
ATOM     13  C   UNL     1     102.974 123.825 146.510  0.00  0.00    +0.000 A 
ATOM     14  C   UNL     1     102.885 123.057 146.221  0.00  0.00    +0.000 A 
ATOM     15  C   UNL     1     102.309 124.275 146.700  0.00  0.00    +0.000 A 
ATOM     16  C   UNL     1     102.130 122.740 146.122  0.00  0.00    +0.000 A 
ATOM     17  C   UNL     1     101.554 123.957 146.600  0.00  0.00    +0.000 A 
ATOM     18  C   UNL     1     101.465 123.189 146.311  0.00  0.00    +0.000 A 
ENDBRANCH   4  13
BRANCH  11  19
ATOM     19  O   UNL     1     106.332 125.182 147.688  0.00  0.00    +0.000 OA
ATOM     20  C   UNL     1     107.126 125.382 147.793  0.00  0.00    +0.000 C 
ENDBRANCH  11  19
BRANCH   3  21
ATOM     21  O   UNL     1     106.585 125.522 144.799  0.00  0.00    +0.000 OA
BRANCH  21  30
ATOM     22  O   UNL     1     106.078 126.855 144.709  0.00  0.00    +0.000 OA
ATOM     23  O   UNL     1     106.035 126.674 142.242  0.00  0.00    +0.000 OA
ATOM     24  O   UNL     1     105.542 128.066 142.975  0.00  0.00    +0.000 OA
ATOM     25  O   UNL     1     106.556 125.401 143.153  0.00  0.00    +0.000 OA
ATOM     26  C   UNL     1     106.049 126.734 143.064  0.00  0.00    +0.000 C 
ATOM     27  C   UNL     1     105.803 127.431 143.431  0.00  0.00    +0.000 C 
ATOM     28  C   UNL     1     106.310 126.098 143.521  0.00  0.00    +0.000 C 
ATOM     29  C   UNL     1     105.817 127.491 144.254  0.00  0.00    +0.000 C 
ATOM     30  C   UNL     1     106.324 126.158 144.343  0.00  0.00    +0.000 C 
BRANCH  29  32
ATOM     31  O   UNL     1     106.014 128.508 145.239  0.00  0.00    +0.000 OA
ATOM     32  C   UNL     1     105.571 128.187 144.620  0.00  0.00    +0.000 C 
ENDBRANCH  29  32
ENDBRANCH  21  30
ENDBRANCH   3  21
TORSDOF 5
ENDMDL
MODEL 5
REMARK VINA RESULT:      -8.8      2.350      3.328
REMARK  Name = 13871818
REMARK  5 active torsions:
REMARK  status: ('A' for Active; 'I' for Inactive)
REMARK    1  A    between atoms: O_2  and  C_15
REMARK    2  A    between atoms: O_2  and  C_17
REMARK    3  A    between atoms: O_8  and  C_25
REMARK    4  A    between atoms: C_14  and  C_16
REMARK    5  A    between atoms: C_18  and  C_26
REMARK                            x       y       z     vdW  Elec       q    Type
REMARK                         _______ _______ _______ _____ _____    ______ ____
ROOT
ATOM      1  O   UNL     1     111.835 126.813 135.930  0.00  0.00    +0.000 OA
ATOM      2  O   UNL     1     109.506 127.415 135.346  0.00  0.00    +0.000 OA
ATOM      3  C   UNL     1     112.141 128.897 135.180  0.00  0.00    +0.000 A 
ATOM      4  C   UNL     1     111.226 126.268 136.046  0.00  0.00    +0.000 C 
ATOM      5  C   UNL     1     111.667 127.559 135.619  0.00  0.00    +0.000 A 
ATOM      6  C   UNL     1     110.891 127.760 135.425  0.00  0.00    +0.000 A 
ATOM      7  C   UNL     1     110.450 126.469 135.851  0.00  0.00    +0.000 C 
ATOM      8  C   UNL     1     112.309 128.118 135.503  0.00  0.00    +0.000 A 
ATOM      9  C   UNL     1     111.332 129.105 134.978  0.00  0.00    +0.000 A 
ATOM     10  C   UNL     1     110.283 127.215 135.541  0.00  0.00    +0.000 C 
ATOM     11  C   UNL     1     110.703 128.533 135.101  0.00  0.00    +0.000 A 
ENDROOT
BRANCH   4  13
ATOM     12  O   UNL     1     111.897 123.286 137.288  0.00  0.00    +0.000 OA
ATOM     13  C   UNL     1     111.394 125.522 136.356  0.00  0.00    +0.000 A 
ATOM     14  C   UNL     1     111.540 124.888 135.850  0.00  0.00    +0.000 A 
ATOM     15  C   UNL     1     111.415 125.412 137.174  0.00  0.00    +0.000 A 
ATOM     16  C   UNL     1     111.708 124.143 136.161  0.00  0.00    +0.000 A 
ATOM     17  C   UNL     1     111.583 124.666 137.485  0.00  0.00    +0.000 A 
ATOM     18  C   UNL     1     111.729 124.031 136.978  0.00  0.00    +0.000 A 
ENDBRANCH   4  13
BRANCH  11  19
ATOM     19  O   UNL     1     109.924 128.724 134.909  0.00  0.00    +0.000 OA
ATOM     20  C   UNL     1     109.745 129.473 134.612  0.00  0.00    +0.000 C 
ENDBRANCH  11  19
BRANCH   3  21
ATOM     21  O   UNL     1     112.751 129.439 135.065  0.00  0.00    +0.000 OA
BRANCH  21  30
ATOM     22  O   UNL     1     112.601 130.154 136.294  0.00  0.00    +0.000 OA
ATOM     23  O   UNL     1     115.062 130.332 136.491  0.00  0.00    +0.000 OA
ATOM     24  O   UNL     1     114.092 130.986 137.653  0.00  0.00    +0.000 OA
ATOM     25  O   UNL     1     114.392 129.558 135.197  0.00  0.00    +0.000 OA
ATOM     26  C   UNL     1     114.242 130.273 136.425  0.00  0.00    +0.000 C 
ATOM     27  C   UNL     1     113.756 130.600 137.006  0.00  0.00    +0.000 C 
ATOM     28  C   UNL     1     113.906 129.885 135.778  0.00  0.00    +0.000 C 
ATOM     29  C   UNL     1     112.936 130.540 136.941  0.00  0.00    +0.000 C 
ATOM     30  C   UNL     1     113.086 129.826 135.712  0.00  0.00    +0.000 C 
BRANCH  29  32
ATOM     31  O   UNL     1     111.888 131.435 137.319  0.00  0.00    +0.000 OA
ATOM     32  C   UNL     1     112.451 130.867 137.522  0.00  0.00    +0.000 C 
ENDBRANCH  29  32
ENDBRANCH  21  30
ENDBRANCH   3  21
TORSDOF 5
ENDMDL
MODEL 6
REMARK VINA RESULT:      -8.8      8.558     10.543
REMARK  Name = 13871818
REMARK  5 active torsions:
REMARK  status: ('A' for Active; 'I' for Inactive)
REMARK    1  A    between atoms: O_2  and  C_15
REMARK    2  A    between atoms: O_2  and  C_17
REMARK    3  A    between atoms: O_8  and  C_25
REMARK    4  A    between atoms: C_14  and  C_16
REMARK    5  A    between atoms: C_18  and  C_26
REMARK                            x       y       z     vdW  Elec       q    Type
REMARK                         _______ _______ _______ _____ _____    ______ ____
ROOT
ATOM      1  O   UNL     1     106.588 125.788 146.210  0.00  0.00    +0.000 OA
ATOM      2  O   UNL     1     106.508 128.237 146.561  0.00  0.00    +0.000 OA
ATOM      3  C   UNL     1     105.747 126.442 144.245  0.00  0.00    +0.000 A 
ATOM      4  C   UNL     1     106.844 126.111 146.925  0.00  0.00    +0.000 C 
ATOM      5  C   UNL     1     106.306 126.282 145.612  0.00  0.00    +0.000 A 
ATOM      6  C   UNL     1     106.279 127.098 145.729  0.00  0.00    +0.000 A 
ATOM      7  C   UNL     1     106.817 126.928 147.042  0.00  0.00    +0.000 C 
ATOM      8  C   UNL     1     106.042 125.933 144.872  0.00  0.00    +0.000 A 
ATOM      9  C   UNL     1     105.719 127.292 144.368  0.00  0.00    +0.000 A 
ATOM     10  C   UNL     1     106.534 127.421 146.444  0.00  0.00    +0.000 C 
ATOM     11  C   UNL     1     105.987 127.622 145.114  0.00  0.00    +0.000 A 
ENDROOT
BRANCH   4  13
ATOM     12  O   UNL     1     107.974 124.139 149.317  0.00  0.00    +0.000 OA
ATOM     13  C   UNL     1     107.126 125.618 147.523  0.00  0.00    +0.000 A 
ATOM     14  C   UNL     1     106.609 125.327 148.097  0.00  0.00    +0.000 A 
ATOM     15  C   UNL     1     107.926 125.416 147.547  0.00  0.00    +0.000 A 
ATOM     16  C   UNL     1     106.892 124.834 148.694  0.00  0.00    +0.000 A 
ATOM     17  C   UNL     1     108.208 124.923 148.145  0.00  0.00    +0.000 A 
ATOM     18  C   UNL     1     107.691 124.632 148.719  0.00  0.00    +0.000 A 
ENDBRANCH   4  13
BRANCH  11  19
ATOM     19  O   UNL     1     105.964 128.437 145.240  0.00  0.00    +0.000 OA
ATOM     20  C   UNL     1     105.450 128.908 144.798  0.00  0.00    +0.000 C 
ENDBRANCH  11  19
BRANCH   3  21
ATOM     21  O   UNL     1     105.492 126.116 143.531  0.00  0.00    +0.000 OA
BRANCH  21  30
ATOM     22  O   UNL     1     106.641 126.432 142.742  0.00  0.00    +0.000 OA
ATOM     23  O   UNL     1     106.498 124.218 141.647  0.00  0.00    +0.000 OA
ATOM     24  O   UNL     1     107.693 125.272 141.224  0.00  0.00    +0.000 OA
ATOM     25  O   UNL     1     105.396 124.640 142.801  0.00  0.00    +0.000 OA
ATOM     26  C   UNL     1     106.545 124.956 142.012  0.00  0.00    +0.000 C 
ATOM     27  C   UNL     1     107.143 125.483 141.801  0.00  0.00    +0.000 C 
ATOM     28  C   UNL     1     105.994 125.167 142.590  0.00  0.00    +0.000 C 
ATOM     29  C   UNL     1     107.191 126.222 142.166  0.00  0.00    +0.000 C 
ATOM     30  C   UNL     1     106.042 125.906 142.955  0.00  0.00    +0.000 C 
BRANCH  29  32
ATOM     31  O   UNL     1     108.384 126.937 142.494  0.00  0.00    +0.000 OA
ATOM     32  C   UNL     1     107.789 126.748 141.954  0.00  0.00    +0.000 C 
ENDBRANCH  29  32
ENDBRANCH  21  30
ENDBRANCH   3  21
TORSDOF 5
ENDMDL
MODEL 7
REMARK VINA RESULT:      -8.8      1.584      2.610
REMARK  Name = 13871818
REMARK  5 active torsions:
REMARK  status: ('A' for Active; 'I' for Inactive)
REMARK    1  A    between atoms: O_2  and  C_15
REMARK    2  A    between atoms: O_2  and  C_17
REMARK    3  A    between atoms: O_8  and  C_25
REMARK    4  A    between atoms: C_14  and  C_16
REMARK    5  A    between atoms: C_18  and  C_26
REMARK                            x       y       z     vdW  Elec       q    Type
REMARK                         _______ _______ _______ _____ _____    ______ ____
ROOT
ATOM      1  O   UNL     1     112.394 127.209 137.193  0.00  0.00    +0.000 OA
ATOM      2  O   UNL     1     113.890 128.753 135.965  0.00  0.00    +0.000 OA
ATOM      3  C   UNL     1     111.237 129.112 137.380  0.00  0.00    +0.000 A 
ATOM      4  C   UNL     1     113.097 126.928 136.864  0.00  0.00    +0.000 C 
ATOM      5  C   UNL     1     112.190 128.004 137.113  0.00  0.00    +0.000 A 
ATOM      6  C   UNL     1     112.688 128.519 136.704  0.00  0.00    +0.000 A 
ATOM      7  C   UNL     1     113.595 127.443 136.455  0.00  0.00    +0.000 C 
ATOM      8  C   UNL     1     111.456 128.284 137.460  0.00  0.00    +0.000 A 
ATOM      9  C   UNL     1     111.756 129.647 136.953  0.00  0.00    +0.000 A 
ATOM     10  C   UNL     1     113.391 128.238 136.375  0.00  0.00    +0.000 C 
ATOM     11  C   UNL     1     112.486 129.349 136.613  0.00  0.00    +0.000 A 
ENDROOT
BRANCH   4  13
ATOM     12  O   UNL     1     113.916 123.748 137.186  0.00  0.00    +0.000 OA
ATOM     13  C   UNL     1     113.302 126.133 136.945  0.00  0.00    +0.000 A 
ATOM     14  C   UNL     1     112.940 125.564 136.469  0.00  0.00    +0.000 A 
ATOM     15  C   UNL     1     113.868 125.907 137.501  0.00  0.00    +0.000 A 
ATOM     16  C   UNL     1     113.145 124.769 136.550  0.00  0.00    +0.000 A 
ATOM     17  C   UNL     1     114.073 125.112 137.582  0.00  0.00    +0.000 A 
ATOM     18  C   UNL     1     113.711 124.543 137.106  0.00  0.00    +0.000 A 
ENDBRANCH   4  13
BRANCH  11  19
ATOM     19  O   UNL     1     112.991 129.856 136.202  0.00  0.00    +0.000 OA
ATOM     20  C   UNL     1     113.072 130.641 136.443  0.00  0.00    +0.000 C 
ENDBRANCH  11  19
BRANCH   3  21
ATOM     21  O   UNL     1     110.534 129.390 137.710  0.00  0.00    +0.000 OA
BRANCH  21  30
ATOM     22  O   UNL     1     109.634 128.910 136.708  0.00  0.00    +0.000 OA
ATOM     23  O   UNL     1     108.351 131.021 136.849  0.00  0.00    +0.000 OA
ATOM     24  O   UNL     1     107.880 129.838 135.801  0.00  0.00    +0.000 OA
ATOM     25  O   UNL     1     109.678 130.797 137.804  0.00  0.00    +0.000 OA
ATOM     26  C   UNL     1     108.779 130.317 136.802  0.00  0.00    +0.000 C 
ATOM     27  C   UNL     1     108.543 129.725 136.278  0.00  0.00    +0.000 C 
ATOM     28  C   UNL     1     109.443 130.205 137.280  0.00  0.00    +0.000 C 
ATOM     29  C   UNL     1     108.971 129.021 136.231  0.00  0.00    +0.000 C 
ATOM     30  C   UNL     1     109.871 129.501 137.233  0.00  0.00    +0.000 C 
BRANCH  29  32
ATOM     31  O   UNL     1     108.505 127.691 135.994  0.00  0.00    +0.000 OA
ATOM     32  C   UNL     1     108.736 128.430 135.707  0.00  0.00    +0.000 C 
ENDBRANCH  29  32
ENDBRANCH  21  30
ENDBRANCH   3  21
TORSDOF 5
ENDMDL
MODEL 8
REMARK VINA RESULT:      -8.8      1.735      2.092
REMARK  Name = 13871818
REMARK  5 active torsions:
REMARK  status: ('A' for Active; 'I' for Inactive)
REMARK    1  A    between atoms: O_2  and  C_15
REMARK    2  A    between atoms: O_2  and  C_17
REMARK    3  A    between atoms: O_8  and  C_25
REMARK    4  A    between atoms: C_14  and  C_16
REMARK    5  A    between atoms: C_18  and  C_26
REMARK                            x       y       z     vdW  Elec       q    Type
REMARK                         _______ _______ _______ _____ _____    ______ ____
ROOT
ATOM      1  O   UNL     1     111.667 126.093 136.978  0.00  0.00    +0.000 OA
ATOM      2  O   UNL     1     111.227 125.405 139.315  0.00  0.00    +0.000 OA
ATOM      3  C   UNL     1     109.571 126.830 137.219  0.00  0.00    +0.000 A 
ATOM      4  C   UNL     1     112.252 125.703 137.411  0.00  0.00    +0.000 C 
ATOM      5  C   UNL     1     110.936 126.254 137.324  0.00  0.00    +0.000 A 
ATOM      6  C   UNL     1     110.789 126.024 138.103  0.00  0.00    +0.000 A 
ATOM      7  C   UNL     1     112.104 125.474 138.189  0.00  0.00    +0.000 C 
ATOM      8  C   UNL     1     110.335 126.660 136.864  0.00  0.00    +0.000 A 
ATOM      9  C   UNL     1     109.419 126.591 138.030  0.00  0.00    +0.000 A 
ATOM     10  C   UNL     1     111.373 125.634 138.536  0.00  0.00    +0.000 C 
ATOM     11  C   UNL     1     110.031 126.186 138.475  0.00  0.00    +0.000 A 
ENDROOT
BRANCH   4  13
ATOM     12  O   UNL     1     115.177 125.060 136.026  0.00  0.00    +0.000 OA
ATOM     13  C   UNL     1     112.983 125.542 137.065  0.00  0.00    +0.000 A 
ATOM     14  C   UNL     1     113.565 126.126 137.041  0.00  0.00    +0.000 A 
ATOM     15  C   UNL     1     113.132 124.797 136.742  0.00  0.00    +0.000 A 
ATOM     16  C   UNL     1     114.296 125.965 136.694  0.00  0.00    +0.000 A 
ATOM     17  C   UNL     1     113.863 124.636 136.396  0.00  0.00    +0.000 A 
ATOM     18  C   UNL     1     114.445 125.220 136.372  0.00  0.00    +0.000 A 
ENDBRANCH   4  13
BRANCH  11  19
ATOM     19  O   UNL     1     109.894 125.952 139.254  0.00  0.00    +0.000 OA
ATOM     20  C   UNL     1     109.158 126.090 139.602  0.00  0.00    +0.000 C 
ENDBRANCH  11  19
BRANCH   3  21
ATOM     21  O   UNL     1     108.988 127.220 136.784  0.00  0.00    +0.000 OA
BRANCH  21  30
ATOM     22  O   UNL     1     109.173 128.536 137.311  0.00  0.00    +0.000 OA
ATOM     23  O   UNL     1     108.907 129.483 135.039  0.00  0.00    +0.000 OA
ATOM     24  O   UNL     1     109.180 130.482 136.323  0.00  0.00    +0.000 OA
ATOM     25  O   UNL     1     108.811 127.852 135.270  0.00  0.00    +0.000 OA
ATOM     26  C   UNL     1     108.996 129.167 135.797  0.00  0.00    +0.000 C 
ATOM     27  C   UNL     1     109.132 129.666 136.439  0.00  0.00    +0.000 C 
ATOM     28  C   UNL     1     108.948 128.351 135.912  0.00  0.00    +0.000 C 
ATOM     29  C   UNL     1     109.221 129.351 137.196  0.00  0.00    +0.000 C 
ATOM     30  C   UNL     1     109.036 128.035 136.669  0.00  0.00    +0.000 C 
BRANCH  29  32
ATOM     31  O   UNL     1     108.849 129.839 138.486  0.00  0.00    +0.000 OA
ATOM     32  C   UNL     1     109.358 129.851 137.837  0.00  0.00    +0.000 C 
ENDBRANCH  29  32
ENDBRANCH  21  30
ENDBRANCH   3  21
TORSDOF 5
ENDMDL
MODEL 9
REMARK VINA RESULT:      -8.8      3.289      4.325
REMARK  Name = 13871818
REMARK  5 active torsions:
REMARK  status: ('A' for Active; 'I' for Inactive)
REMARK    1  A    between atoms: O_2  and  C_15
REMARK    2  A    between atoms: O_2  and  C_17
REMARK    3  A    between atoms: O_8  and  C_25
REMARK    4  A    between atoms: C_14  and  C_16
REMARK    5  A    between atoms: C_18  and  C_26
REMARK                            x       y       z     vdW  Elec       q    Type
REMARK                         _______ _______ _______ _____ _____    ______ ____
ROOT
ATOM      1  O   UNL     1     113.041 127.389 137.386  0.00  0.00    +0.000 OA
ATOM      2  O   UNL     1     114.280 128.537 135.577  0.00  0.00    +0.000 OA
ATOM      3  C   UNL     1     112.657 129.521 137.936  0.00  0.00    +0.000 A 
ATOM      4  C   UNL     1     113.437 126.947 136.812  0.00  0.00    +0.000 C 
ATOM      5  C   UNL     1     113.059 128.213 137.358  0.00  0.00    +0.000 A 
ATOM      6  C   UNL     1     113.471 128.596 136.755  0.00  0.00    +0.000 A 
ATOM      7  C   UNL     1     113.849 127.330 136.210  0.00  0.00    +0.000 C 
ATOM      8  C   UNL     1     112.643 128.661 137.961  0.00  0.00    +0.000 A 
ATOM      9  C   UNL     1     113.087 129.919 137.308  0.00  0.00    +0.000 A 
ATOM     10  C   UNL     1     113.867 128.155 136.181  0.00  0.00    +0.000 C 
ATOM     11  C   UNL     1     113.497 129.454 136.714  0.00  0.00    +0.000 A 
ENDROOT
BRANCH   4  13
ATOM     12  O   UNL     1     113.368 123.650 136.928  0.00  0.00    +0.000 OA
ATOM     13  C   UNL     1     113.419 126.123 136.841  0.00  0.00    +0.000 A 
ATOM     14  C   UNL     1     112.781 125.712 136.518  0.00  0.00    +0.000 A 
ATOM     15  C   UNL     1     114.041 125.710 137.194  0.00  0.00    +0.000 A 
ATOM     16  C   UNL     1     112.764 124.888 136.547  0.00  0.00    +0.000 A 
ATOM     17  C   UNL     1     114.024 124.885 137.222  0.00  0.00    +0.000 A 
ATOM     18  C   UNL     1     113.385 124.475 136.899  0.00  0.00    +0.000 A 
ENDBRANCH   4  13
BRANCH  11  19
ATOM     19  O   UNL     1     113.913 129.828 136.107  0.00  0.00    +0.000 OA
ATOM     20  C   UNL     1     114.039 130.643 136.136  0.00  0.00    +0.000 C 
ENDBRANCH  11  19
BRANCH   3  21
ATOM     21  O   UNL     1     112.261 129.960 138.512  0.00  0.00    +0.000 OA
BRANCH  21  30
ATOM     22  O   UNL     1     113.357 130.189 139.399  0.00  0.00    +0.000 OA
ATOM     23  O   UNL     1     111.879 129.760 141.337  0.00  0.00    +0.000 OA
ATOM     24  O   UNL     1     113.467 130.131 141.578  0.00  0.00    +0.000 OA
ATOM     25  O   UNL     1     111.275 129.674 139.804  0.00  0.00    +0.000 OA
ATOM     26  C   UNL     1     112.372 129.903 140.691  0.00  0.00    +0.000 C 
ATOM     27  C   UNL     1     113.166 130.089 140.811  0.00  0.00    +0.000 C 
ATOM     28  C   UNL     1     112.070 129.860 139.924  0.00  0.00    +0.000 C 
ATOM     29  C   UNL     1     113.659 130.232 140.165  0.00  0.00    +0.000 C 
ATOM     30  C   UNL     1     112.563 130.003 139.278  0.00  0.00    +0.000 C 
BRANCH  29  32
ATOM     31  O   UNL     1     114.765 131.117 139.979  0.00  0.00    +0.000 OA
ATOM     32  C   UNL     1     114.453 130.417 140.286  0.00  0.00    +0.000 C 
ENDBRANCH  29  32
ENDBRANCH  21  30
ENDBRANCH   3  21
TORSDOF 5
ENDMDL
MODEL 10
REMARK VINA RESULT:      -8.8      2.288      4.190
REMARK  Name = 13871818
REMARK  5 active torsions:
REMARK  status: ('A' for Active; 'I' for Inactive)
REMARK    1  A    between atoms: O_2  and  C_15
REMARK    2  A    between atoms: O_2  and  C_17
REMARK    3  A    between atoms: O_8  and  C_25
REMARK    4  A    between atoms: C_14  and  C_16
REMARK    5  A    between atoms: C_18  and  C_26
REMARK                            x       y       z     vdW  Elec       q    Type
REMARK                         _______ _______ _______ _____ _____    ______ ____
ROOT
ATOM      1  O   UNL     1     112.561 128.311 135.403  0.00  0.00    +0.000 OA
ATOM      2  O   UNL     1     110.611 129.776 134.985  0.00  0.00    +0.000 OA
ATOM      3  C   UNL     1     110.911 126.806 135.487  0.00  0.00    +0.000 A 
ATOM      4  C   UNL     1     112.671 129.120 135.284  0.00  0.00    +0.000 C 
ATOM      5  C   UNL     1     111.802 127.990 135.382  0.00  0.00    +0.000 A 
ATOM      6  C   UNL     1     111.151 128.478 135.243  0.00  0.00    +0.000 A 
ATOM      7  C   UNL     1     112.021 129.608 135.145  0.00  0.00    +0.000 C 
ATOM      8  C   UNL     1     111.701 127.146 135.508  0.00  0.00    +0.000 A 
ATOM      9  C   UNL     1     110.235 127.315 135.342  0.00  0.00    +0.000 A 
ATOM     10  C   UNL     1     111.261 129.287 135.124  0.00  0.00    +0.000 C 
ATOM     11  C   UNL     1     110.355 128.156 135.219  0.00  0.00    +0.000 A 
ENDROOT
BRANCH   4  13
ATOM     12  O   UNL     1     115.710 130.403 135.367  0.00  0.00    +0.000 OA
ATOM     13  C   UNL     1     113.431 129.441 135.305  0.00  0.00    +0.000 A 
ATOM     14  C   UNL     1     113.744 129.713 136.018  0.00  0.00    +0.000 A 
ATOM     15  C   UNL     1     113.877 129.489 134.612  0.00  0.00    +0.000 A 
ATOM     16  C   UNL     1     114.504 130.034 136.038  0.00  0.00    +0.000 A 
ATOM     17  C   UNL     1     114.637 129.810 134.633  0.00  0.00    +0.000 A 
ATOM     18  C   UNL     1     114.950 130.082 135.346  0.00  0.00    +0.000 A 
ENDBRANCH   4  13
BRANCH  11  19
ATOM     19  O   UNL     1     109.711 128.653 135.079  0.00  0.00    +0.000 OA
ATOM     20  C   UNL     1     108.976 128.477 135.410  0.00  0.00    +0.000 C 
ENDBRANCH  11  19
BRANCH   3  21
ATOM     21  O   UNL     1     110.805 125.996 135.606  0.00  0.00    +0.000 OA
BRANCH  21  30
ATOM     22  O   UNL     1     110.608 126.038 137.021  0.00  0.00    +0.000 OA
ATOM     23  O   UNL     1     111.923 123.955 137.265  0.00  0.00    +0.000 OA
ATOM     24  O   UNL     1     111.288 124.691 138.598  0.00  0.00    +0.000 OA
ATOM     25  O   UNL     1     111.681 124.608 135.769  0.00  0.00    +0.000 OA
ATOM     26  C   UNL     1     111.485 124.649 137.184  0.00  0.00    +0.000 C 
ATOM     27  C   UNL     1     111.167 125.018 137.850  0.00  0.00    +0.000 C 
ATOM     28  C   UNL     1     111.364 124.976 136.435  0.00  0.00    +0.000 C 
ATOM     29  C   UNL     1     110.729 125.712 137.769  0.00  0.00    +0.000 C 
ATOM     30  C   UNL     1     110.925 125.670 136.354  0.00  0.00    +0.000 C 
BRANCH  29  32
ATOM     31  O   UNL     1     109.619 126.307 138.443  0.00  0.00    +0.000 OA
ATOM     32  C   UNL     1     110.412 126.080 138.435  0.00  0.00    +0.000 C 
ENDBRANCH  29  32
ENDBRANCH  21  30
ENDBRANCH   3  21
TORSDOF 5
ENDMDL
