MODEL 1
REMARK VINA RESULT:      -7.8      0.000      0.000
REMARK  Name = 44260036
REMARK  4 active torsions:
REMARK  status: ('A' for Active; 'I' for Inactive)
REMARK    1  A    between atoms: O_2  and  C_13
REMARK    2  A    between atoms: O_3  and  C_18
REMARK    3  A    between atoms: O_7  and  C_24
REMARK    4  A    between atoms: C_12  and  C_14
REMARK                            x       y       z     vdW  Elec       q    Type
REMARK                         _______ _______ _______ _____ _____    ______ ____
ROOT
ATOM      1  O   UNL     1     106.511 125.257 146.408  0.00  0.00    +0.000 OA
ATOM      2  O   UNL     1     107.968 125.277 147.236  0.00  0.00    +0.000 OA
ATOM      3  O   UNL     1     105.143 124.303 148.767  0.00  0.00    +0.000 OA
ATOM      4  O   UNL     1     104.428 124.540 147.536  0.00  0.00    +0.000 OA
ATOM      5  C   UNL     1     105.836 124.786 147.575  0.00  0.00    +0.000 A 
ATOM      6  C   UNL     1     106.530 125.025 147.199  0.00  0.00    +0.000 A 
ATOM      7  C   UNL     1     105.798 125.251 145.992  0.00  0.00    +0.000 A 
ATOM      8  C   UNL     1     105.104 125.012 146.368  0.00  0.00    +0.000 A 
ATOM      9  C   UNL     1     105.123 124.779 147.160  0.00  0.00    +0.000 A 
ATOM     10  C   UNL     1     107.279 125.036 147.621  0.00  0.00    +0.000 A 
ATOM     11  C   UNL     1     105.842 124.541 148.399  0.00  0.00    +0.000 A 
ATOM     12  C   UNL     1     107.305 124.795 148.445  0.00  0.00    +0.000 A 
ATOM     13  C   UNL     1     106.581 124.545 148.837  0.00  0.00    +0.000 A 
ENDROOT
BRANCH   7  16
ATOM     14  O   UNL     1     106.090 124.621 143.220  0.00  0.00    +0.000 OA
ATOM     15  O   UNL     1     105.394 127.276 144.016  0.00  0.00    +0.000 OA
ATOM     16  C   UNL     1     105.780 125.484 145.201  0.00  0.00    +0.000 A 
ATOM     17  C   UNL     1     105.596 126.263 145.004  0.00  0.00    +0.000 A 
ATOM     18  C   UNL     1     105.944 124.936 144.607  0.00  0.00    +0.000 A 
ATOM     19  C   UNL     1     105.926 125.169 143.815  0.00  0.00    +0.000 A 
ATOM     20  C   UNL     1     105.577 126.496 144.213  0.00  0.00    +0.000 A 
ATOM     21  C   UNL     1     105.742 125.948 143.619  0.00  0.00    +0.000 A 
BRANCH  21  22
ATOM     22  O   UNL     1     105.723 126.181 142.827  0.00  0.00    +0.000 OA
ATOM     23  C   UNL     1     106.416 126.428 142.453  0.00  0.00    +0.000 C 
ENDBRANCH  21  22
ENDBRANCH   7  16
BRANCH   8  24
ATOM     24  O   UNL     1     104.391 125.005 145.954  0.00  0.00    +0.000 OA
ATOM     25  C   UNL     1     103.741 124.598 146.257  0.00  0.00    +0.000 C 
ENDBRANCH   8  24
BRANCH  12  26
ATOM     26  O   UNL     1     108.019 124.802 148.857  0.00  0.00    +0.000 OA
ATOM     27  C   UNL     1     108.063 124.471 149.612  0.00  0.00    +0.000 C 
ENDBRANCH  12  26
TORSDOF 4
ENDMDL
MODEL 2
REMARK VINA RESULT:      -7.7      2.370      4.691
REMARK  Name = 44260036
REMARK  4 active torsions:
REMARK  status: ('A' for Active; 'I' for Inactive)
REMARK    1  A    between atoms: O_2  and  C_13
REMARK    2  A    between atoms: O_3  and  C_18
REMARK    3  A    between atoms: O_7  and  C_24
REMARK    4  A    between atoms: C_12  and  C_14
REMARK                            x       y       z     vdW  Elec       q    Type
REMARK                         _______ _______ _______ _____ _____    ______ ____
ROOT
ATOM      1  O   UNL     1     103.400 124.143 146.434  0.00  0.00    +0.000 OA
ATOM      2  O   UNL     1     103.043 123.403 144.973  0.00  0.00    +0.000 OA
ATOM      3  O   UNL     1     100.710 123.666 147.372  0.00  0.00    +0.000 OA
ATOM      4  O   UNL     1     101.680 124.337 148.203  0.00  0.00    +0.000 OA
ATOM      5  C   UNL     1     102.070 123.906 146.897  0.00  0.00    +0.000 A 
ATOM      6  C   UNL     1     102.643 123.842 146.307  0.00  0.00    +0.000 A 
ATOM      7  C   UNL     1     103.585 124.509 147.150  0.00  0.00    +0.000 A 
ATOM      8  C   UNL     1     103.012 124.573 147.739  0.00  0.00    +0.000 A 
ATOM      9  C   UNL     1     102.253 124.272 147.613  0.00  0.00    +0.000 A 
ATOM     10  C   UNL     1     102.463 123.463 145.557  0.00  0.00    +0.000 A 
ATOM     11  C   UNL     1     101.276 123.597 146.778  0.00  0.00    +0.000 A 
ATOM     12  C   UNL     1     101.676 123.147 145.419  0.00  0.00    +0.000 A 
ATOM     13  C   UNL     1     101.079 123.215 146.034  0.00  0.00    +0.000 A 
ENDROOT
BRANCH   7  16
ATOM     14  O   UNL     1     105.429 126.690 147.052  0.00  0.00    +0.000 OA
ATOM     15  O   UNL     1     106.286 124.136 148.007  0.00  0.00    +0.000 OA
ATOM     16  C   UNL     1     104.342 124.810 147.276  0.00  0.00    +0.000 A 
ATOM     17  C   UNL     1     104.935 124.322 147.579  0.00  0.00    +0.000 A 
ATOM     18  C   UNL     1     104.507 125.599 147.101  0.00  0.00    +0.000 A 
ATOM     19  C   UNL     1     105.265 125.901 147.227  0.00  0.00    +0.000 A 
ATOM     20  C   UNL     1     105.692 124.623 147.705  0.00  0.00    +0.000 A 
ATOM     21  C   UNL     1     105.857 125.412 147.530  0.00  0.00    +0.000 A 
BRANCH  21  22
ATOM     22  O   UNL     1     106.615 125.714 147.656  0.00  0.00    +0.000 OA
ATOM     23  C   UNL     1     107.193 125.637 147.072  0.00  0.00    +0.000 C 
ENDBRANCH  21  22
ENDBRANCH   7  16
BRANCH   8  24
ATOM     24  O   UNL     1     103.195 124.939 148.456  0.00  0.00    +0.000 OA
ATOM     25  C   UNL     1     102.758 124.764 149.133  0.00  0.00    +0.000 C 
ENDBRANCH   8  24
BRANCH  12  26
ATOM     26  O   UNL     1     101.495 122.782 144.702  0.00  0.00    +0.000 OA
ATOM     27  C   UNL     1     100.714 122.763 144.435  0.00  0.00    +0.000 C 
ENDBRANCH  12  26
TORSDOF 4
ENDMDL
MODEL 3
REMARK VINA RESULT:      -7.6      1.705      3.544
REMARK  Name = 44260036
REMARK  4 active torsions:
REMARK  status: ('A' for Active; 'I' for Inactive)
REMARK    1  A    between atoms: O_2  and  C_13
REMARK    2  A    between atoms: O_3  and  C_18
REMARK    3  A    between atoms: O_7  and  C_24
REMARK    4  A    between atoms: C_12  and  C_14
REMARK                            x       y       z     vdW  Elec       q    Type
REMARK                         _______ _______ _______ _____ _____    ______ ____
ROOT
ATOM      1  O   UNL     1     103.657 124.552 146.376  0.00  0.00    +0.000 OA
ATOM      2  O   UNL     1     102.196 123.922 145.849  0.00  0.00    +0.000 OA
ATOM      3  O   UNL     1     102.940 124.012 149.122  0.00  0.00    +0.000 OA
ATOM      4  O   UNL     1     104.206 124.618 148.789  0.00  0.00    +0.000 OA
ATOM      5  C   UNL     1     103.302 124.284 147.733  0.00  0.00    +0.000 A 
ATOM      6  C   UNL     1     103.119 124.262 146.929  0.00  0.00    +0.000 A 
ATOM      7  C   UNL     1     104.379 124.864 146.626  0.00  0.00    +0.000 A 
ATOM      8  C   UNL     1     104.562 124.886 147.430  0.00  0.00    +0.000 A 
ATOM      9  C   UNL     1     104.023 124.596 147.984  0.00  0.00    +0.000 A 
ATOM     10  C   UNL     1     102.370 123.940 146.656  0.00  0.00    +0.000 A 
ATOM     11  C   UNL     1     102.749 123.986 148.321  0.00  0.00    +0.000 A 
ATOM     12  C   UNL     1     101.805 123.637 147.228  0.00  0.00    +0.000 A 
ATOM     13  C   UNL     1     101.996 123.660 148.066  0.00  0.00    +0.000 A 
ENDROOT
BRANCH   7  16
ATOM     14  O   UNL     1     105.516 127.059 145.193  0.00  0.00    +0.000 OA
ATOM     15  O   UNL     1     106.476 124.406 144.738  0.00  0.00    +0.000 OA
ATOM     16  C   UNL     1     104.918 125.153 146.073  0.00  0.00    +0.000 A 
ATOM     17  C   UNL     1     105.427 124.635 145.682  0.00  0.00    +0.000 A 
ATOM     18  C   UNL     1     104.947 125.961 145.910  0.00  0.00    +0.000 A 
ATOM     19  C   UNL     1     105.487 126.251 145.356  0.00  0.00    +0.000 A 
ATOM     20  C   UNL     1     105.966 124.924 145.129  0.00  0.00    +0.000 A 
ATOM     21  C   UNL     1     105.995 125.732 144.966  0.00  0.00    +0.000 A 
BRANCH  21  22
ATOM     22  O   UNL     1     106.535 126.022 144.412  0.00  0.00    +0.000 OA
ATOM     23  C   UNL     1     106.307 126.118 143.625  0.00  0.00    +0.000 C 
ENDBRANCH  21  22
ENDBRANCH   7  16
BRANCH   8  24
ATOM     24  O   UNL     1     105.283 125.197 147.681  0.00  0.00    +0.000 OA
ATOM     25  C   UNL     1     105.526 125.098 148.463  0.00  0.00    +0.000 C 
ENDBRANCH   8  24
BRANCH  12  26
ATOM     26  O   UNL     1     101.084 123.326 146.974  0.00  0.00    +0.000 OA
ATOM     27  C   UNL     1     100.710 122.739 147.417  0.00  0.00    +0.000 C 
ENDBRANCH  12  26
TORSDOF 4
ENDMDL
MODEL 4
REMARK VINA RESULT:      -7.6     11.421     12.396
REMARK  Name = 44260036
REMARK  4 active torsions:
REMARK  status: ('A' for Active; 'I' for Inactive)
REMARK    1  A    between atoms: O_2  and  C_13
REMARK    2  A    between atoms: O_3  and  C_18
REMARK    3  A    between atoms: O_7  and  C_24
REMARK    4  A    between atoms: C_12  and  C_14
REMARK                            x       y       z     vdW  Elec       q    Type
REMARK                         _______ _______ _______ _____ _____    ______ ____
ROOT
ATOM      1  O   UNL     1     112.837 126.676 136.528  0.00  0.00    +0.000 OA
ATOM      2  O   UNL     1     113.434 125.223 137.113  0.00  0.00    +0.000 OA
ATOM      3  O   UNL     1     110.494 125.338 135.496  0.00  0.00    +0.000 OA
ATOM      4  O   UNL     1     110.670 126.760 135.336  0.00  0.00    +0.000 OA
ATOM      5  C   UNL     1     111.679 126.013 136.018  0.00  0.00    +0.000 A 
ATOM      6  C   UNL     1     112.402 125.985 136.415  0.00  0.00    +0.000 A 
ATOM      7  C   UNL     1     112.551 127.395 136.243  0.00  0.00    +0.000 A 
ATOM      8  C   UNL     1     111.829 127.424 135.846  0.00  0.00    +0.000 A 
ATOM      9  C   UNL     1     111.392 126.732 135.733  0.00  0.00    +0.000 A 
ATOM     10  C   UNL     1     112.711 125.241 136.717  0.00  0.00    +0.000 A 
ATOM     11  C   UNL     1     111.215 125.299 135.894  0.00  0.00    +0.000 A 
ATOM     12  C   UNL     1     112.261 124.518 136.602  0.00  0.00    +0.000 A 
ATOM     13  C   UNL     1     111.508 124.548 136.188  0.00  0.00    +0.000 A 
ENDROOT
BRANCH   7  16
ATOM     14  O   UNL     1     114.553 129.231 135.354  0.00  0.00    +0.000 OA
ATOM     15  O   UNL     1     113.166 129.708 137.806  0.00  0.00    +0.000 OA
ATOM     16  C   UNL     1     112.987 128.086 136.356  0.00  0.00    +0.000 A 
ATOM     17  C   UNL     1     112.858 128.552 137.025  0.00  0.00    +0.000 A 
ATOM     18  C   UNL     1     113.552 128.313 135.799  0.00  0.00    +0.000 A 
ATOM     19  C   UNL     1     113.988 129.004 135.911  0.00  0.00    +0.000 A 
ATOM     20  C   UNL     1     113.294 129.242 137.137  0.00  0.00    +0.000 A 
ATOM     21  C   UNL     1     113.859 129.469 136.580  0.00  0.00    +0.000 A 
BRANCH  21  22
ATOM     22  O   UNL     1     114.296 130.161 136.692  0.00  0.00    +0.000 OA
ATOM     23  C   UNL     1     113.998 130.884 136.429  0.00  0.00    +0.000 C 
ENDBRANCH  21  22
ENDBRANCH   7  16
BRANCH   8  24
ATOM     24  O   UNL     1     111.542 128.143 135.561  0.00  0.00    +0.000 OA
ATOM     25  C   UNL     1     110.977 128.153 134.960  0.00  0.00    +0.000 C 
ENDBRANCH   8  24
BRANCH  12  26
ATOM     26  O   UNL     1     112.550 123.800 136.888  0.00  0.00    +0.000 OA
ATOM     27  C   UNL     1     112.025 123.201 137.103  0.00  0.00    +0.000 C 
ENDBRANCH  12  26
TORSDOF 4
ENDMDL
MODEL 5
REMARK VINA RESULT:      -7.6      5.178      7.583
REMARK  Name = 44260036
REMARK  4 active torsions:
REMARK  status: ('A' for Active; 'I' for Inactive)
REMARK    1  A    between atoms: O_2  and  C_13
REMARK    2  A    between atoms: O_3  and  C_18
REMARK    3  A    between atoms: O_7  and  C_24
REMARK    4  A    between atoms: C_12  and  C_14
REMARK                            x       y       z     vdW  Elec       q    Type
REMARK                         _______ _______ _______ _____ _____    ______ ____
ROOT
ATOM      1  O   UNL     1     103.567 130.118 142.343  0.00  0.00    +0.000 OA
ATOM      2  O   UNL     1     104.446 129.735 143.718  0.00  0.00    +0.000 OA
ATOM      3  O   UNL     1     104.455 127.689 141.056  0.00  0.00    +0.000 OA
ATOM      4  O   UNL     1     103.573 128.610 140.381  0.00  0.00    +0.000 OA
ATOM      5  C   UNL     1     104.007 128.917 141.708  0.00  0.00    +0.000 A 
ATOM      6  C   UNL     1     104.004 129.419 142.362  0.00  0.00    +0.000 A 
ATOM      7  C   UNL     1     103.130 130.314 141.671  0.00  0.00    +0.000 A 
ATOM      8  C   UNL     1     103.133 129.812 141.017  0.00  0.00    +0.000 A 
ATOM      9  C   UNL     1     103.571 129.112 141.035  0.00  0.00    +0.000 A 
ATOM     10  C   UNL     1     104.455 129.226 143.068  0.00  0.00    +0.000 A 
ATOM     11  C   UNL     1     104.459 128.185 141.714  0.00  0.00    +0.000 A 
ATOM     12  C   UNL     1     104.913 128.500 143.093  0.00  0.00    +0.000 A 
ATOM     13  C   UNL     1     104.915 127.976 142.411  0.00  0.00    +0.000 A 
ENDROOT
BRANCH   7  16
ATOM     14  O   UNL     1     102.923 133.088 141.015  0.00  0.00    +0.000 OA
ATOM     15  O   UNL     1     100.710 131.734 142.216  0.00  0.00    +0.000 OA
ATOM     16  C   UNL     1     102.693 131.013 141.653  0.00  0.00    +0.000 A 
ATOM     17  C   UNL     1     101.920 131.024 141.943  0.00  0.00    +0.000 A 
ATOM     18  C   UNL     1     103.027 131.701 141.343  0.00  0.00    +0.000 A 
ATOM     19  C   UNL     1     102.589 132.400 141.325  0.00  0.00    +0.000 A 
ATOM     20  C   UNL     1     101.483 131.723 141.925  0.00  0.00    +0.000 A 
ATOM     21  C   UNL     1     101.817 132.411 141.616  0.00  0.00    +0.000 A 
BRANCH  21  22
ATOM     22  O   UNL     1     101.379 133.110 141.597  0.00  0.00    +0.000 OA
ATOM     23  C   UNL     1     101.393 133.623 142.243  0.00  0.00    +0.000 C 
ENDBRANCH  21  22
ENDBRANCH   7  16
BRANCH   8  24
ATOM     24  O   UNL     1     102.697 130.007 140.344  0.00  0.00    +0.000 OA
ATOM     25  C   UNL     1     102.399 129.412 139.858  0.00  0.00    +0.000 C 
ENDBRANCH   8  24
BRANCH  12  26
ATOM     26  O   UNL     1     105.347 128.306 143.767  0.00  0.00    +0.000 OA
ATOM     27  C   UNL     1     105.679 127.554 143.842  0.00  0.00    +0.000 C 
ENDBRANCH  12  26
TORSDOF 4
ENDMDL
MODEL 6
REMARK VINA RESULT:      -7.6      1.151      4.675
REMARK  Name = 44260036
REMARK  4 active torsions:
REMARK  status: ('A' for Active; 'I' for Inactive)
REMARK    1  A    between atoms: O_2  and  C_13
REMARK    2  A    between atoms: O_3  and  C_18
REMARK    3  A    between atoms: O_7  and  C_24
REMARK    4  A    between atoms: C_12  and  C_14
REMARK                            x       y       z     vdW  Elec       q    Type
REMARK                         _______ _______ _______ _____ _____    ______ ____
ROOT
ATOM      1  O   UNL     1     106.412 125.181 145.802  0.00  0.00    +0.000 OA
ATOM      2  O   UNL     1     105.979 124.066 144.629  0.00  0.00    +0.000 OA
ATOM      3  O   UNL     1     106.106 127.343 143.910  0.00  0.00    +0.000 OA
ATOM      4  O   UNL     1     106.505 127.597 145.273  0.00  0.00    +0.000 OA
ATOM      5  C   UNL     1     106.260 126.249 144.866  0.00  0.00    +0.000 A 
ATOM      6  C   UNL     1     106.229 125.444 145.042  0.00  0.00    +0.000 A 
ATOM      7  C   UNL     1     106.626 125.723 146.387  0.00  0.00    +0.000 A 
ATOM      8  C   UNL     1     106.657 126.529 146.210  0.00  0.00    +0.000 A 
ATOM      9  C   UNL     1     106.474 126.792 145.449  0.00  0.00    +0.000 A 
ATOM     10  C   UNL     1     106.008 124.869 144.443  0.00  0.00    +0.000 A 
ATOM     11  C   UNL     1     106.072 126.536 144.077  0.00  0.00    +0.000 A 
ATOM     12  C   UNL     1     105.816 125.137 143.649  0.00  0.00    +0.000 A 
ATOM     13  C   UNL     1     105.849 125.977 143.465  0.00  0.00    +0.000 A 
ENDROOT
BRANCH   7  16
ATOM     14  O   UNL     1     105.803 125.078 149.046  0.00  0.00    +0.000 OA
ATOM     15  O   UNL     1     108.544 124.792 148.290  0.00  0.00    +0.000 OA
ATOM     16  C   UNL     1     106.808 125.461 147.146  0.00  0.00    +0.000 A 
ATOM     17  C   UNL     1     107.585 125.258 147.338  0.00  0.00    +0.000 A 
ATOM     18  C   UNL     1     106.214 125.401 147.716  0.00  0.00    +0.000 A 
ATOM     19  C   UNL     1     106.397 125.138 148.477  0.00  0.00    +0.000 A 
ATOM     20  C   UNL     1     107.767 124.995 148.098  0.00  0.00    +0.000 A 
ATOM     21  C   UNL     1     107.173 124.935 148.667  0.00  0.00    +0.000 A 
BRANCH  21  22
ATOM     22  O   UNL     1     107.356 124.672 149.428  0.00  0.00    +0.000 OA
ATOM     23  C   UNL     1     107.301 123.870 149.612  0.00  0.00    +0.000 C 
ENDBRANCH  21  22
ENDBRANCH   7  16
BRANCH   8  24
ATOM     24  O   UNL     1     106.871 127.071 146.793  0.00  0.00    +0.000 OA
ATOM     25  C   UNL     1     107.045 127.851 146.588  0.00  0.00    +0.000 C 
ENDBRANCH   8  24
BRANCH  12  26
ATOM     26  O   UNL     1     105.603 124.593 143.067  0.00  0.00    +0.000 OA
ATOM     27  C   UNL     1     105.805 124.730 142.279  0.00  0.00    +0.000 C 
ENDBRANCH  12  26
TORSDOF 4
ENDMDL
MODEL 7
REMARK VINA RESULT:      -7.5     11.140     13.221
REMARK  Name = 44260036
REMARK  4 active torsions:
REMARK  status: ('A' for Active; 'I' for Inactive)
REMARK    1  A    between atoms: O_2  and  C_13
REMARK    2  A    between atoms: O_3  and  C_18
REMARK    3  A    between atoms: O_7  and  C_24
REMARK    4  A    between atoms: C_12  and  C_14
REMARK                            x       y       z     vdW  Elec       q    Type
REMARK                         _______ _______ _______ _____ _____    ______ ____
ROOT
ATOM      1  O   UNL     1     113.829 128.293 135.878  0.00  0.00    +0.000 OA
ATOM      2  O   UNL     1     114.761 128.873 134.612  0.00  0.00    +0.000 OA
ATOM      3  O   UNL     1     113.983 130.850 137.211  0.00  0.00    +0.000 OA
ATOM      4  O   UNL     1     113.255 129.750 137.794  0.00  0.00    +0.000 OA
ATOM      5  C   UNL     1     113.906 129.558 136.536  0.00  0.00    +0.000 A 
ATOM      6  C   UNL     1     114.097 129.072 135.898  0.00  0.00    +0.000 A 
ATOM      7  C   UNL     1     113.369 127.998 136.497  0.00  0.00    +0.000 A 
ATOM      8  C   UNL     1     113.178 128.484 137.135  0.00  0.00    +0.000 A 
ATOM      9  C   UNL     1     113.446 129.264 137.155  0.00  0.00    +0.000 A 
ATOM     10  C   UNL     1     114.575 129.367 135.247  0.00  0.00    +0.000 A 
ATOM     11  C   UNL     1     114.179 130.373 136.569  0.00  0.00    +0.000 A 
ATOM     12  C   UNL     1     114.858 130.178 135.262  0.00  0.00    +0.000 A 
ATOM     13  C   UNL     1     114.658 130.684 135.928  0.00  0.00    +0.000 A 
ENDROOT
BRANCH   7  16
ATOM     14  O   UNL     1     113.784 125.223 137.041  0.00  0.00    +0.000 OA
ATOM     15  O   UNL     1     111.343 126.093 135.835  0.00  0.00    +0.000 OA
ATOM     16  C   UNL     1     113.101 127.219 136.477  0.00  0.00    +0.000 A 
ATOM     17  C   UNL     1     112.356 127.046 136.166  0.00  0.00    +0.000 A 
ATOM     18  C   UNL     1     113.577 126.611 136.768  0.00  0.00    +0.000 A 
ATOM     19  C   UNL     1     113.308 125.831 136.749  0.00  0.00    +0.000 A 
ATOM     20  C   UNL     1     112.088 126.266 136.146  0.00  0.00    +0.000 A 
ATOM     21  C   UNL     1     112.564 125.659 136.438  0.00  0.00    +0.000 A 
BRANCH  21  22
ATOM     22  O   UNL     1     112.296 124.878 136.418  0.00  0.00    +0.000 OA
ATOM     23  C   UNL     1     111.863 124.575 137.051  0.00  0.00    +0.000 C 
ENDBRANCH  21  22
ENDBRANCH   7  16
BRANCH   8  24
ATOM     24  O   UNL     1     112.718 128.191 137.754  0.00  0.00    +0.000 OA
ATOM     25  C   UNL     1     112.729 128.564 138.490  0.00  0.00    +0.000 C 
ENDBRANCH   8  24
BRANCH  12  26
ATOM     26  O   UNL     1     115.317 130.469 134.642  0.00  0.00    +0.000 OA
ATOM     27  C   UNL     1     115.645 131.225 134.691  0.00  0.00    +0.000 C 
ENDBRANCH  12  26
TORSDOF 4
ENDMDL
MODEL 8
REMARK VINA RESULT:      -7.5     10.243     11.963
REMARK  Name = 44260036
REMARK  4 active torsions:
REMARK  status: ('A' for Active; 'I' for Inactive)
REMARK    1  A    between atoms: O_2  and  C_13
REMARK    2  A    between atoms: O_3  and  C_18
REMARK    3  A    between atoms: O_7  and  C_24
REMARK    4  A    between atoms: C_12  and  C_14
REMARK                            x       y       z     vdW  Elec       q    Type
REMARK                         _______ _______ _______ _____ _____    ______ ____
ROOT
ATOM      1  O   UNL     1     110.218 127.323 136.298  0.00  0.00    +0.000 OA
ATOM      2  O   UNL     1     108.645 127.900 136.259  0.00  0.00    +0.000 OA
ATOM      3  O   UNL     1     111.216 129.884 135.408  0.00  0.00    +0.000 OA
ATOM      4  O   UNL     1     112.113 128.785 135.670  0.00  0.00    +0.000 OA
ATOM      5  C   UNL     1     110.710 128.589 135.858  0.00  0.00    +0.000 A 
ATOM      6  C   UNL     1     110.078 128.102 136.067  0.00  0.00    +0.000 A 
ATOM      7  C   UNL     1     110.989 127.030 136.320  0.00  0.00    +0.000 A 
ATOM      8  C   UNL     1     111.621 127.518 136.111  0.00  0.00    +0.000 A 
ATOM      9  C   UNL     1     111.481 128.298 135.880  0.00  0.00    +0.000 A 
ATOM     10  C   UNL     1     109.270 128.395 136.048  0.00  0.00    +0.000 A 
ATOM     11  C   UNL     1     110.578 129.404 135.615  0.00  0.00    +0.000 A 
ATOM     12  C   UNL     1     109.119 129.205 135.808  0.00  0.00    +0.000 A 
ATOM     13  C   UNL     1     109.777 129.714 135.591  0.00  0.00    +0.000 A 
ENDROOT
BRANCH   7  16
ATOM     14  O   UNL     1     111.331 124.273 135.648  0.00  0.00    +0.000 OA
ATOM     15  O   UNL     1     111.485 125.109 138.377  0.00  0.00    +0.000 OA
ATOM     16  C   UNL     1     111.128 126.251 136.551  0.00  0.00    +0.000 A 
ATOM     17  C   UNL     1     111.237 126.069 137.348  0.00  0.00    +0.000 A 
ATOM     18  C   UNL     1     111.160 125.652 135.984  0.00  0.00    +0.000 A 
ATOM     19  C   UNL     1     111.299 124.872 136.215  0.00  0.00    +0.000 A 
ATOM     20  C   UNL     1     111.377 125.290 137.579  0.00  0.00    +0.000 A 
ATOM     21  C   UNL     1     111.408 124.692 137.012  0.00  0.00    +0.000 A 
BRANCH  21  22
ATOM     22  O   UNL     1     111.548 123.911 137.243  0.00  0.00    +0.000 OA
ATOM     23  C   UNL     1     112.303 123.589 137.171  0.00  0.00    +0.000 C 
ENDBRANCH  21  22
ENDBRANCH   7  16
BRANCH   8  24
ATOM     24  O   UNL     1     112.392 127.226 136.132  0.00  0.00    +0.000 OA
ATOM     25  C   UNL     1     113.028 127.746 136.208  0.00  0.00    +0.000 C 
ENDBRANCH   8  24
BRANCH  12  26
ATOM     26  O   UNL     1     108.346 129.495 135.788  0.00  0.00    +0.000 OA
ATOM     27  C   UNL     1     108.209 130.308 135.825  0.00  0.00    +0.000 C 
ENDBRANCH  12  26
TORSDOF 4
ENDMDL
MODEL 9
REMARK VINA RESULT:      -7.5      9.389     10.839
REMARK  Name = 44260036
REMARK  4 active torsions:
REMARK  status: ('A' for Active; 'I' for Inactive)
REMARK    1  A    between atoms: O_2  and  C_13
REMARK    2  A    between atoms: O_3  and  C_18
REMARK    3  A    between atoms: O_7  and  C_24
REMARK    4  A    between atoms: C_12  and  C_14
REMARK                            x       y       z     vdW  Elec       q    Type
REMARK                         _______ _______ _______ _____ _____    ______ ____
ROOT
ATOM      1  O   UNL     1     110.493 126.636 136.380  0.00  0.00    +0.000 OA
ATOM      2  O   UNL     1     110.989 125.254 135.572  0.00  0.00    +0.000 OA
ATOM      3  O   UNL     1     111.319 125.500 138.904  0.00  0.00    +0.000 OA
ATOM      4  O   UNL     1     110.736 126.818 138.836  0.00  0.00    +0.000 OA
ATOM      5  C   UNL     1     110.902 126.073 137.627  0.00  0.00    +0.000 A 
ATOM      6  C   UNL     1     110.821 126.013 136.808  0.00  0.00    +0.000 A 
ATOM      7  C   UNL     1     110.245 127.320 136.768  0.00  0.00    +0.000 A 
ATOM      8  C   UNL     1     110.326 127.381 137.587  0.00  0.00    +0.000 A 
ATOM      9  C   UNL     1     110.655 126.757 138.017  0.00  0.00    +0.000 A 
ATOM     10  C   UNL     1     111.074 125.305 136.391  0.00  0.00    +0.000 A 
ATOM     11  C   UNL     1     111.242 125.431 138.087  0.00  0.00    +0.000 A 
ATOM     12  C   UNL     1     111.417 124.653 136.833  0.00  0.00    +0.000 A 
ATOM     13  C   UNL     1     111.501 124.716 137.687  0.00  0.00    +0.000 A 
ENDROOT
BRANCH   7  16
ATOM     14  O   UNL     1     107.952 128.677 135.736  0.00  0.00    +0.000 OA
ATOM     15  O   UNL     1     110.569 129.704 135.226  0.00  0.00    +0.000 OA
ATOM     16  C   UNL     1     109.918 127.943 136.340  0.00  0.00    +0.000 A 
ATOM     17  C   UNL     1     110.407 128.512 135.997  0.00  0.00    +0.000 A 
ATOM     18  C   UNL     1     109.099 127.998 136.252  0.00  0.00    +0.000 A 
ATOM     19  C   UNL     1     108.770 128.622 135.823  0.00  0.00    +0.000 A 
ATOM     20  C   UNL     1     110.079 129.135 135.568  0.00  0.00    +0.000 A 
ATOM     21  C   UNL     1     109.261 129.190 135.481  0.00  0.00    +0.000 A 
BRANCH  21  22
ATOM     22  O   UNL     1     108.932 129.814 135.052  0.00  0.00    +0.000 OA
ATOM     23  C   UNL     1     108.764 130.529 135.426  0.00  0.00    +0.000 C 
ENDBRANCH  21  22
ENDBRANCH   7  16
BRANCH   8  24
ATOM     24  O   UNL     1     110.079 128.065 137.977  0.00  0.00    +0.000 OA
ATOM     25  C   UNL     1     110.370 128.239 138.729  0.00  0.00    +0.000 C 
ENDBRANCH   8  24
BRANCH  12  26
ATOM     26  O   UNL     1     111.663 123.970 136.441  0.00  0.00    +0.000 OA
ATOM     27  C   UNL     1     111.998 123.348 136.867  0.00  0.00    +0.000 C 
ENDBRANCH  12  26
TORSDOF 4
ENDMDL
MODEL 10
REMARK VINA RESULT:      -7.4     10.620     11.521
REMARK  Name = 44260036
REMARK  4 active torsions:
REMARK  status: ('A' for Active; 'I' for Inactive)
REMARK    1  A    between atoms: O_2  and  C_13
REMARK    2  A    between atoms: O_3  and  C_18
REMARK    3  A    between atoms: O_7  and  C_24
REMARK    4  A    between atoms: C_12  and  C_14
REMARK                            x       y       z     vdW  Elec       q    Type
REMARK                         _______ _______ _______ _____ _____    ______ ____
ROOT
ATOM      1  O   UNL     1     111.814 126.790 136.724  0.00  0.00    +0.000 OA
ATOM      2  O   UNL     1     113.280 126.719 137.534  0.00  0.00    +0.000 OA
ATOM      3  O   UNL     1     111.981 123.973 136.104  0.00  0.00    +0.000 OA
ATOM      4  O   UNL     1     110.857 124.766 135.670  0.00  0.00    +0.000 OA
ATOM      5  C   UNL     1     111.898 125.397 136.418  0.00  0.00    +0.000 A 
ATOM      6  C   UNL     1     112.217 126.072 136.769  0.00  0.00    +0.000 A 
ATOM      7  C   UNL     1     111.092 126.834 136.327  0.00  0.00    +0.000 A 
ATOM      8  C   UNL     1     110.773 126.160 135.975  0.00  0.00    +0.000 A 
ATOM      9  C   UNL     1     111.176 125.440 136.021  0.00  0.00    +0.000 A 
ATOM     10  C   UNL     1     112.968 126.039 137.186  0.00  0.00    +0.000 A 
ATOM     11  C   UNL     1     112.308 124.642 136.458  0.00  0.00    +0.000 A 
ATOM     12  C   UNL     1     113.392 125.293 137.236  0.00  0.00    +0.000 A 
ATOM     13  C   UNL     1     113.060 124.590 136.870  0.00  0.00    +0.000 A 
ENDROOT
BRANCH   7  16
ATOM     14  O   UNL     1     109.145 128.650 137.366  0.00  0.00    +0.000 OA
ATOM     15  O   UNL     1     110.622 129.330 135.015  0.00  0.00    +0.000 OA
ATOM     16  C   UNL     1     110.690 127.552 136.281  0.00  0.00    +0.000 A 
ATOM     17  C   UNL     1     110.857 128.082 135.671  0.00  0.00    +0.000 A 
ATOM     18  C   UNL     1     110.119 127.742 136.846  0.00  0.00    +0.000 A 
ATOM     19  C   UNL     1     109.716 128.461 136.801  0.00  0.00    +0.000 A 
ATOM     20  C   UNL     1     110.454 128.800 135.625  0.00  0.00    +0.000 A 
ATOM     21  C   UNL     1     109.884 128.989 136.190  0.00  0.00    +0.000 A 
BRANCH  21  22
ATOM     22  O   UNL     1     109.480 129.708 136.145  0.00  0.00    +0.000 OA
ATOM     23  C   UNL     1     108.751 129.749 135.762  0.00  0.00    +0.000 C 
ENDBRANCH  21  22
ENDBRANCH   7  16
BRANCH   8  24
ATOM     24  O   UNL     1     110.051 126.203 135.579  0.00  0.00    +0.000 OA
ATOM     25  C   UNL     1     109.898 125.699 134.944  0.00  0.00    +0.000 C 
ENDBRANCH   8  24
BRANCH  12  26
ATOM     26  O   UNL     1     114.114 125.252 137.634  0.00  0.00    +0.000 OA
ATOM     27  C   UNL     1     114.694 124.722 137.383  0.00  0.00    +0.000 C 
ENDBRANCH  12  26
TORSDOF 4
ENDMDL
