MODEL 1
REMARK VINA RESULT:      -9.8      0.000      0.000
REMARK  Name = 74095102
REMARK  6 active torsions:
REMARK  status: ('A' for Active; 'I' for Inactive)
REMARK    1  A    between atoms: O_2  and  C_14
REMARK    2  A    between atoms: O_2  and  C_21
REMARK    3  A    between atoms: O_3  and  C_18
REMARK    4  A    between atoms: O_3  and  C_20
REMARK    5  A    between atoms: O_11  and  C_36
REMARK    6  A    between atoms: C_22  and  C_25
REMARK                            x       y       z     vdW  Elec       q    Type
REMARK                         _______ _______ _______ _____ _____    ______ ____
ROOT
ATOM      1  O   UNL     1     105.650 124.358 147.655  0.00  0.00    +0.000 OA
ATOM      2  O   UNL     1     107.062 125.665 146.098  0.00  0.00    +0.000 OA
ATOM      3  O   UNL     1     108.154 125.665 147.041  0.00  0.00    +0.000 OA
ATOM      4  O   UNL     1     107.810 124.316 149.608  0.00  0.00    +0.000 OA
ATOM      5  C   UNL     1     105.824 125.020 146.401  0.00  0.00    +0.000 A 
ATOM      6  C   UNL     1     105.352 124.584 146.919  0.00  0.00    +0.000 A 
ATOM      7  C   UNL     1     106.591 125.230 146.617  0.00  0.00    +0.000 A 
ATOM      8  C   UNL     1     106.888 125.004 147.353  0.00  0.00    +0.000 A 
ATOM      9  C   UNL     1     106.418 124.568 147.872  0.00  0.00    +0.000 A 
ATOM     10  C   UNL     1     107.690 125.229 147.566  0.00  0.00    +0.000 A 
ATOM     11  C   UNL     1     106.716 124.327 148.641  0.00  0.00    +0.000 A 
ATOM     12  C   UNL     1     108.005 124.996 148.332  0.00  0.00    +0.000 A 
ATOM     13  C   UNL     1     107.515 124.543 148.872  0.00  0.00    +0.000 A 
ENDROOT
BRANCH   6  16
ATOM     14  O   UNL     1     103.570 122.956 145.389  0.00  0.00    +0.000 OA
ATOM     15  O   UNL     1     102.527 124.950 147.150  0.00  0.00    +0.000 OA
ATOM     16  C   UNL     1     104.585 124.374 146.703  0.00  0.00    +0.000 A 
ATOM     17  C   UNL     1     103.940 124.767 147.035  0.00  0.00    +0.000 A 
ATOM     18  C   UNL     1     104.462 123.770 146.155  0.00  0.00    +0.000 A 
ATOM     19  C   UNL     1     103.694 123.559 145.938  0.00  0.00    +0.000 A 
ATOM     20  C   UNL     1     103.173 124.557 146.819  0.00  0.00    +0.000 A 
ATOM     21  C   UNL     1     103.049 123.953 146.270  0.00  0.00    +0.000 A 
BRANCH  21  22
ATOM     22  O   UNL     1     102.281 123.743 146.053  0.00  0.00    +0.000 OA
ATOM     23  C   UNL     1     101.896 123.129 146.447  0.00  0.00    +0.000 C 
ENDBRANCH  21  22
ENDBRANCH   6  16
BRANCH   5  24
ATOM     24  O   UNL     1     105.526 125.245 145.665  0.00  0.00    +0.000 OA
BRANCH  24  32
ATOM     25  O   UNL     1     105.351 126.612 146.043  0.00  0.00    +0.000 OA
ATOM     26  O   UNL     1     105.666 127.304 143.688  0.00  0.00    +0.000 OA
ATOM     27  O   UNL     1     105.736 125.707 144.095  0.00  0.00    +0.000 OA
ATOM     28  C   UNL     1     105.421 127.641 145.054  0.00  0.00    +0.000 C 
ATOM     29  C   UNL     1     105.561 127.074 144.473  0.00  0.00    +0.000 C 
ATOM     30  C   UNL     1     105.596 126.274 144.676  0.00  0.00    +0.000 C 
ATOM     31  C   UNL     1     105.316 127.411 145.839  0.00  0.00    +0.000 C 
ATOM     32  C   UNL     1     105.491 126.044 145.461  0.00  0.00    +0.000 C 
ATOM     33  C   UNL     1     105.176 127.978 146.421  0.00  0.00    +0.000 C 
BRANCH  28  34
ATOM     34  O   UNL     1     105.386 128.440 144.851  0.00  0.00    +0.000 OA
BRANCH  34  36
ATOM     35  O   UNL     1     106.708 128.781 144.430  0.00  0.00    +0.000 OA
ATOM     36  C   UNL     1     106.058 128.913 144.920  0.00  0.00    +0.000 C 
ATOM     37  C   UNL     1     106.081 129.519 145.481  0.00  0.00    +0.000 C 
ENDBRANCH  34  36
ENDBRANCH  28  34
ENDBRANCH  24  32
ENDBRANCH   5  24
TORSDOF 6
ENDMDL
MODEL 2
REMARK VINA RESULT:      -9.4      0.960      4.030
REMARK  Name = 74095102
REMARK  6 active torsions:
REMARK  status: ('A' for Active; 'I' for Inactive)
REMARK    1  A    between atoms: O_2  and  C_14
REMARK    2  A    between atoms: O_2  and  C_21
REMARK    3  A    between atoms: O_3  and  C_18
REMARK    4  A    between atoms: O_3  and  C_20
REMARK    5  A    between atoms: O_11  and  C_36
REMARK    6  A    between atoms: C_22  and  C_25
REMARK                            x       y       z     vdW  Elec       q    Type
REMARK                         _______ _______ _______ _____ _____    ______ ____
ROOT
ATOM      1  O   UNL     1     106.682 125.623 146.809  0.00  0.00    +0.000 OA
ATOM      2  O   UNL     1     104.827 124.802 148.228  0.00  0.00    +0.000 OA
ATOM      3  O   UNL     1     105.761 124.287 149.200  0.00  0.00    +0.000 OA
ATOM      4  O   UNL     1     108.624 124.609 148.728  0.00  0.00    +0.000 OA
ATOM      5  C   UNL     1     105.282 125.462 147.045  0.00  0.00    +0.000 A 
ATOM      6  C   UNL     1     105.900 125.736 146.572  0.00  0.00    +0.000 A 
ATOM      7  C   UNL     1     105.445 125.076 147.754  0.00  0.00    +0.000 A 
ATOM      8  C   UNL     1     106.227 124.962 147.992  0.00  0.00    +0.000 A 
ATOM      9  C   UNL     1     106.846 125.235 147.519  0.00  0.00    +0.000 A 
ATOM     10  C   UNL     1     106.385 124.558 148.733  0.00  0.00    +0.000 A 
ATOM     11  C   UNL     1     107.665 125.124 147.755  0.00  0.00    +0.000 A 
ATOM     12  C   UNL     1     107.198 124.437 148.986  0.00  0.00    +0.000 A 
ATOM     13  C   UNL     1     107.841 124.721 148.493  0.00  0.00    +0.000 A 
ENDROOT
BRANCH   6  16
ATOM     14  O   UNL     1     105.690 125.694 143.722  0.00  0.00    +0.000 OA
ATOM     15  O   UNL     1     105.128 128.099 145.161  0.00  0.00    +0.000 OA
ATOM     16  C   UNL     1     105.737 126.123 145.862  0.00  0.00    +0.000 A 
ATOM     17  C   UNL     1     105.514 126.918 145.866  0.00  0.00    +0.000 A 
ATOM     18  C   UNL     1     105.795 125.715 145.147  0.00  0.00    +0.000 A 
ATOM     19  C   UNL     1     105.632 126.102 144.436  0.00  0.00    +0.000 A 
ATOM     20  C   UNL     1     105.351 127.304 145.157  0.00  0.00    +0.000 A 
ATOM     21  C   UNL     1     105.410 126.896 144.442  0.00  0.00    +0.000 A 
BRANCH  21  22
ATOM     22  O   UNL     1     105.246 127.283 143.731  0.00  0.00    +0.000 OA
ATOM     23  C   UNL     1     105.859 127.627 143.298  0.00  0.00    +0.000 C 
ENDBRANCH  21  22
ENDBRANCH   6  16
BRANCH   5  24
ATOM     24  O   UNL     1     104.500 125.576 146.808  0.00  0.00    +0.000 OA
BRANCH  24  32
ATOM     25  O   UNL     1     104.276 124.246 146.334  0.00  0.00    +0.000 OA
ATOM     26  O   UNL     1     101.948 124.341 147.168  0.00  0.00    +0.000 OA
ATOM     27  O   UNL     1     102.948 125.639 147.363  0.00  0.00    +0.000 OA
ATOM     28  C   UNL     1     103.000 123.629 146.514  0.00  0.00    +0.000 C 
ATOM     29  C   UNL     1     102.724 124.309 146.890  0.00  0.00    +0.000 C 
ATOM     30  C   UNL     1     103.224 124.959 146.988  0.00  0.00    +0.000 C 
ATOM     31  C   UNL     1     103.776 123.598 146.237  0.00  0.00    +0.000 C 
ATOM     32  C   UNL     1     104.000 124.927 146.710  0.00  0.00    +0.000 C 
ATOM     33  C   UNL     1     104.053 122.918 145.861  0.00  0.00    +0.000 C 
BRANCH  28  34
ATOM     34  O   UNL     1     102.501 122.981 146.417  0.00  0.00    +0.000 OA
BRANCH  34  36
ATOM     35  O   UNL     1     102.198 123.114 145.026  0.00  0.00    +0.000 OA
ATOM     36  C   UNL     1     101.952 122.972 145.801  0.00  0.00    +0.000 C 
ATOM     37  C   UNL     1     101.155 122.822 145.959  0.00  0.00    +0.000 C 
ENDBRANCH  34  36
ENDBRANCH  28  34
ENDBRANCH  24  32
ENDBRANCH   5  24
TORSDOF 6
ENDMDL
MODEL 3
REMARK VINA RESULT:      -9.2      9.791     11.882
REMARK  Name = 74095102
REMARK  6 active torsions:
REMARK  status: ('A' for Active; 'I' for Inactive)
REMARK    1  A    between atoms: O_2  and  C_14
REMARK    2  A    between atoms: O_2  and  C_21
REMARK    3  A    between atoms: O_3  and  C_18
REMARK    4  A    between atoms: O_3  and  C_20
REMARK    5  A    between atoms: O_11  and  C_36
REMARK    6  A    between atoms: C_22  and  C_25
REMARK                            x       y       z     vdW  Elec       q    Type
REMARK                         _______ _______ _______ _____ _____    ______ ____
ROOT
ATOM      1  O   UNL     1     113.441 127.203 136.183  0.00  0.00    +0.000 OA
ATOM      2  O   UNL     1     112.316 128.531 137.943  0.00  0.00    +0.000 OA
ATOM      3  O   UNL     1     112.963 129.738 137.486  0.00  0.00    +0.000 OA
ATOM      4  O   UNL     1     114.781 129.597 135.206  0.00  0.00    +0.000 OA
ATOM      5  C   UNL     1     112.552 127.278 137.299  0.00  0.00    +0.000 A 
ATOM      6  C   UNL     1     112.927 126.834 136.712  0.00  0.00    +0.000 A 
ATOM      7  C   UNL     1     112.691 128.088 137.356  0.00  0.00    +0.000 A 
ATOM      8  C   UNL     1     113.205 128.457 136.826  0.00  0.00    +0.000 A 
ATOM      9  C   UNL     1     113.580 128.015 136.240  0.00  0.00    +0.000 A 
ATOM     10  C   UNL     1     113.342 129.302 136.896  0.00  0.00    +0.000 A 
ATOM     11  C   UNL     1     114.118 128.386 135.682  0.00  0.00    +0.000 A 
ATOM     12  C   UNL     1     113.876 129.692 136.347  0.00  0.00    +0.000 A 
ATOM     13  C   UNL     1     114.266 129.231 135.737  0.00  0.00    +0.000 A 
ENDROOT
BRANCH   6  16
ATOM     14  O   UNL     1     111.227 124.661 135.966  0.00  0.00    +0.000 OA
ATOM     15  O   UNL     1     113.792 124.140 137.115  0.00  0.00    +0.000 OA
ATOM     16  C   UNL     1     112.788 126.024 136.655  0.00  0.00    +0.000 A 
ATOM     17  C   UNL     1     113.359 125.487 136.913  0.00  0.00    +0.000 A 
ATOM     18  C   UNL     1     112.077 125.748 136.339  0.00  0.00    +0.000 A 
ATOM     19  C   UNL     1     111.938 124.937 136.282  0.00  0.00    +0.000 A 
ATOM     20  C   UNL     1     113.221 124.677 136.856  0.00  0.00    +0.000 A 
ATOM     21  C   UNL     1     112.510 124.401 136.540  0.00  0.00    +0.000 A 
BRANCH  21  22
ATOM     22  O   UNL     1     112.370 123.590 136.483  0.00  0.00    +0.000 OA
ATOM     23  C   UNL     1     111.993 123.192 137.099  0.00  0.00    +0.000 C 
ENDBRANCH  21  22
ENDBRANCH   6  16
BRANCH   5  24
ATOM     24  O   UNL     1     112.038 126.909 137.828  0.00  0.00    +0.000 OA
BRANCH  24  32
ATOM     25  O   UNL     1     112.964 126.932 138.917  0.00  0.00    +0.000 OA
ATOM     26  O   UNL     1     111.080 127.065 140.516  0.00  0.00    +0.000 OA
ATOM     27  O   UNL     1     110.782 126.997 138.895  0.00  0.00    +0.000 OA
ATOM     28  C   UNL     1     112.484 127.010 140.261  0.00  0.00    +0.000 C 
ATOM     29  C   UNL     1     111.708 127.021 139.983  0.00  0.00    +0.000 C 
ATOM     30  C   UNL     1     111.558 126.987 139.172  0.00  0.00    +0.000 C 
ATOM     31  C   UNL     1     113.112 126.966 139.728  0.00  0.00    +0.000 C 
ATOM     32  C   UNL     1     112.186 126.943 138.639  0.00  0.00    +0.000 C 
ATOM     33  C   UNL     1     113.889 126.956 140.004  0.00  0.00    +0.000 C 
BRANCH  28  34
ATOM     34  O   UNL     1     112.633 127.044 141.071  0.00  0.00    +0.000 OA
BRANCH  34  36
ATOM     35  O   UNL     1     113.130 128.375 141.223  0.00  0.00    +0.000 OA
ATOM     36  C   UNL     1     112.623 127.770 141.462  0.00  0.00    +0.000 C 
ATOM     37  C   UNL     1     112.105 127.892 142.093  0.00  0.00    +0.000 C 
ENDBRANCH  34  36
ENDBRANCH  28  34
ENDBRANCH  24  32
ENDBRANCH   5  24
TORSDOF 6
ENDMDL
MODEL 4
REMARK VINA RESULT:      -9.1      1.225      2.042
REMARK  Name = 74095102
REMARK  6 active torsions:
REMARK  status: ('A' for Active; 'I' for Inactive)
REMARK    1  A    between atoms: O_2  and  C_14
REMARK    2  A    between atoms: O_2  and  C_21
REMARK    3  A    between atoms: O_3  and  C_18
REMARK    4  A    between atoms: O_3  and  C_20
REMARK    5  A    between atoms: O_11  and  C_36
REMARK    6  A    between atoms: C_22  and  C_25
REMARK                            x       y       z     vdW  Elec       q    Type
REMARK                         _______ _______ _______ _____ _____    ______ ____
ROOT
ATOM      1  O   UNL     1     105.539 124.815 148.416  0.00  0.00    +0.000 OA
ATOM      2  O   UNL     1     106.778 126.244 146.819  0.00  0.00    +0.000 OA
ATOM      3  O   UNL     1     108.041 125.809 147.365  0.00  0.00    +0.000 OA
ATOM      4  O   UNL     1     108.050 123.893 149.568  0.00  0.00    +0.000 OA
ATOM      5  C   UNL     1     105.540 125.753 147.338  0.00  0.00    +0.000 A 
ATOM      6  C   UNL     1     105.127 125.276 147.871  0.00  0.00    +0.000 A 
ATOM      7  C   UNL     1     106.364 125.768 147.351  0.00  0.00    +0.000 A 
ATOM      8  C   UNL     1     106.777 125.306 147.897  0.00  0.00    +0.000 A 
ATOM      9  C   UNL     1     106.365 124.830 148.430  0.00  0.00    +0.000 A 
ATOM     10  C   UNL     1     107.636 125.330 147.901  0.00  0.00    +0.000 A 
ATOM     11  C   UNL     1     106.782 124.344 149.003  0.00  0.00    +0.000 A 
ATOM     12  C   UNL     1     108.071 124.851 148.467  0.00  0.00    +0.000 A 
ATOM     13  C   UNL     1     107.641 124.356 149.021  0.00  0.00    +0.000 A 
ENDROOT
BRANCH   6  16
ATOM     14  O   UNL     1     102.619 126.493 148.503  0.00  0.00    +0.000 OA
ATOM     15  O   UNL     1     102.686 123.971 147.161  0.00  0.00    +0.000 OA
ATOM     16  C   UNL     1     104.303 125.261 147.858  0.00  0.00    +0.000 A 
ATOM     17  C   UNL     1     103.906 124.624 147.516  0.00  0.00    +0.000 A 
ATOM     18  C   UNL     1     103.874 125.885 148.187  0.00  0.00    +0.000 A 
ATOM     19  C   UNL     1     103.048 125.870 148.174  0.00  0.00    +0.000 A 
ATOM     20  C   UNL     1     103.082 124.609 147.503  0.00  0.00    +0.000 A 
ATOM     21  C   UNL     1     102.653 125.232 147.832  0.00  0.00    +0.000 A 
BRANCH  21  22
ATOM     22  O   UNL     1     101.828 125.217 147.819  0.00  0.00    +0.000 OA
ATOM     23  C   UNL     1     101.412 124.881 148.447  0.00  0.00    +0.000 C 
ENDBRANCH  21  22
ENDBRANCH   6  16
BRANCH   5  24
ATOM     24  O   UNL     1     105.128 126.214 146.793  0.00  0.00    +0.000 OA
BRANCH  24  32
ATOM     25  O   UNL     1     105.426 125.364 145.683  0.00  0.00    +0.000 OA
ATOM     26  O   UNL     1     105.324 127.314 144.162  0.00  0.00    +0.000 OA
ATOM     27  O   UNL     1     105.060 127.514 145.779  0.00  0.00    +0.000 OA
ATOM     28  C   UNL     1     105.524 125.914 144.368  0.00  0.00    +0.000 C 
ATOM     29  C   UNL     1     105.358 126.664 144.669  0.00  0.00    +0.000 C 
ATOM     30  C   UNL     1     105.226 126.765 145.478  0.00  0.00    +0.000 C 
ATOM     31  C   UNL     1     105.558 125.265 144.875  0.00  0.00    +0.000 C 
ATOM     32  C   UNL     1     105.260 126.115 145.985  0.00  0.00    +0.000 C 
ATOM     33  C   UNL     1     105.723 124.514 144.575  0.00  0.00    +0.000 C 
BRANCH  28  34
ATOM     34  O   UNL     1     105.656 125.814 143.561  0.00  0.00    +0.000 OA
BRANCH  34  36
ATOM     35  O   UNL     1     107.081 125.916 143.552  0.00  0.00    +0.000 OA
ATOM     36  C   UNL     1     106.350 126.099 143.218  0.00  0.00    +0.000 C 
ATOM     37  C   UNL     1     106.313 126.568 142.539  0.00  0.00    +0.000 C 
ENDBRANCH  34  36
ENDBRANCH  28  34
ENDBRANCH  24  32
ENDBRANCH   5  24
TORSDOF 6
ENDMDL
MODEL 5
REMARK VINA RESULT:      -9.1     10.456     11.838
REMARK  Name = 74095102
REMARK  6 active torsions:
REMARK  status: ('A' for Active; 'I' for Inactive)
REMARK    1  A    between atoms: O_2  and  C_14
REMARK    2  A    between atoms: O_2  and  C_21
REMARK    3  A    between atoms: O_3  and  C_18
REMARK    4  A    between atoms: O_3  and  C_20
REMARK    5  A    between atoms: O_11  and  C_36
REMARK    6  A    between atoms: C_22  and  C_25
REMARK                            x       y       z     vdW  Elec       q    Type
REMARK                         _______ _______ _______ _____ _____    ______ ____
ROOT
ATOM      1  O   UNL     1     111.058 125.343 136.584  0.00  0.00    +0.000 OA
ATOM      2  O   UNL     1     113.324 126.310 136.342  0.00  0.00    +0.000 OA
ATOM      3  O   UNL     1     113.931 125.035 136.639  0.00  0.00    +0.000 OA
ATOM      4  O   UNL     1     112.213 122.739 137.191  0.00  0.00    +0.000 OA
ATOM      5  C   UNL     1     111.903 126.463 136.315  0.00  0.00    +0.000 A 
ATOM      6  C   UNL     1     111.148 126.141 136.396  0.00  0.00    +0.000 A 
ATOM      7  C   UNL     1     112.568 125.988 136.423  0.00  0.00    +0.000 A 
ATOM      8  C   UNL     1     112.478 125.190 136.612  0.00  0.00    +0.000 A 
ATOM      9  C   UNL     1     111.724 124.867 136.693  0.00  0.00    +0.000 A 
ATOM     10  C   UNL     1     113.180 124.705 136.722  0.00  0.00    +0.000 A 
ATOM     11  C   UNL     1     111.616 124.037 136.889  0.00  0.00    +0.000 A 
ATOM     12  C   UNL     1     113.092 123.873 136.918  0.00  0.00    +0.000 A 
ATOM     13  C   UNL     1     112.306 123.537 137.002  0.00  0.00    +0.000 A 
ENDROOT
BRANCH   6  16
ATOM     14  O   UNL     1     108.957 127.617 137.487  0.00  0.00    +0.000 OA
ATOM     15  O   UNL     1     109.344 127.518 134.657  0.00  0.00    +0.000 OA
ATOM     16  C   UNL     1     110.483 126.616 136.288  0.00  0.00    +0.000 A 
ATOM     17  C   UNL     1     110.246 126.830 135.526  0.00  0.00    +0.000 A 
ATOM     18  C   UNL     1     110.053 126.879 136.941  0.00  0.00    +0.000 A 
ATOM     19  C   UNL     1     109.387 127.355 136.834  0.00  0.00    +0.000 A 
ATOM     20  C   UNL     1     109.581 127.305 135.419  0.00  0.00    +0.000 A 
ATOM     21  C   UNL     1     109.151 127.567 136.072  0.00  0.00    +0.000 A 
BRANCH  21  22
ATOM     22  O   UNL     1     108.485 128.043 135.964  0.00  0.00    +0.000 OA
ATOM     23  C   UNL     1     108.573 128.856 135.853  0.00  0.00    +0.000 C 
ENDBRANCH  21  22
ENDBRANCH   6  16
BRANCH   5  24
ATOM     24  O   UNL     1     111.993 127.261 136.126  0.00  0.00    +0.000 OA
BRANCH  24  32
ATOM     25  O   UNL     1     112.361 127.649 137.451  0.00  0.00    +0.000 OA
ATOM     26  O   UNL     1     113.739 129.488 136.530  0.00  0.00    +0.000 OA
ATOM     27  O   UNL     1     112.911 128.487 135.512  0.00  0.00    +0.000 OA
ATOM     28  C   UNL     1     113.234 128.763 137.652  0.00  0.00    +0.000 C 
ATOM     29  C   UNL     1     113.279 128.875 136.837  0.00  0.00    +0.000 C 
ATOM     30  C   UNL     1     112.866 128.375 136.327  0.00  0.00    +0.000 C 
ATOM     31  C   UNL     1     112.775 128.150 137.959  0.00  0.00    +0.000 C 
ATOM     32  C   UNL     1     112.407 127.762 136.634  0.00  0.00    +0.000 C 
ATOM     33  C   UNL     1     112.729 128.037 138.775  0.00  0.00    +0.000 C 
BRANCH  28  34
ATOM     34  O   UNL     1     113.648 129.263 138.161  0.00  0.00    +0.000 OA
BRANCH  34  36
ATOM     35  O   UNL     1     112.558 130.064 138.622  0.00  0.00    +0.000 OA
ATOM     36  C   UNL     1     113.336 130.001 138.357  0.00  0.00    +0.000 C 
ATOM     37  C   UNL     1     113.803 130.678 138.287  0.00  0.00    +0.000 C 
ENDBRANCH  34  36
ENDBRANCH  28  34
ENDBRANCH  24  32
ENDBRANCH   5  24
TORSDOF 6
ENDMDL
MODEL 6
REMARK VINA RESULT:      -9.0      9.166     11.096
REMARK  Name = 74095102
REMARK  6 active torsions:
REMARK  status: ('A' for Active; 'I' for Inactive)
REMARK    1  A    between atoms: O_2  and  C_14
REMARK    2  A    between atoms: O_2  and  C_21
REMARK    3  A    between atoms: O_3  and  C_18
REMARK    4  A    between atoms: O_3  and  C_20
REMARK    5  A    between atoms: O_11  and  C_36
REMARK    6  A    between atoms: C_22  and  C_25
REMARK                            x       y       z     vdW  Elec       q    Type
REMARK                         _______ _______ _______ _____ _____    ______ ____
ROOT
ATOM      1  O   UNL     1     113.572 126.131 138.904  0.00  0.00    +0.000 OA
ATOM      2  O   UNL     1     112.207 126.995 137.028  0.00  0.00    +0.000 OA
ATOM      3  O   UNL     1     112.974 126.226 136.078  0.00  0.00    +0.000 OA
ATOM      4  O   UNL     1     115.162 124.552 137.045  0.00  0.00    +0.000 OA
ATOM      5  C   UNL     1     112.502 126.949 138.425  0.00  0.00    +0.000 A 
ATOM      6  C   UNL     1     112.956 126.661 139.051  0.00  0.00    +0.000 A 
ATOM      7  C   UNL     1     112.662 126.707 137.653  0.00  0.00    +0.000 A 
ATOM      8  C   UNL     1     113.277 126.177 137.506  0.00  0.00    +0.000 A 
ATOM      9  C   UNL     1     113.732 125.889 138.131  0.00  0.00    +0.000 A 
ATOM     10  C   UNL     1     113.433 125.933 136.697  0.00  0.00    +0.000 A 
ATOM     11  C   UNL     1     114.375 125.337 137.991  0.00  0.00    +0.000 A 
ATOM     12  C   UNL     1     114.073 125.381 136.538  0.00  0.00    +0.000 A 
ATOM     13  C   UNL     1     114.547 125.082 137.189  0.00  0.00    +0.000 A 
ENDROOT
BRANCH   6  16
ATOM     14  O   UNL     1     111.389 126.461 141.432  0.00  0.00    +0.000 OA
ATOM     15  O   UNL     1     113.563 128.311 141.304  0.00  0.00    +0.000 OA
ATOM     16  C   UNL     1     112.797 126.903 139.823  0.00  0.00    +0.000 A 
ATOM     17  C   UNL     1     113.260 127.486 140.177  0.00  0.00    +0.000 A 
ATOM     18  C   UNL     1     112.173 126.561 140.241  0.00  0.00    +0.000 A 
ATOM     19  C   UNL     1     112.013 126.803 141.014  0.00  0.00    +0.000 A 
ATOM     20  C   UNL     1     113.100 127.728 140.949  0.00  0.00    +0.000 A 
ATOM     21  C   UNL     1     112.476 127.386 141.367  0.00  0.00    +0.000 A 
BRANCH  21  22
ATOM     22  O   UNL     1     112.316 127.628 142.141  0.00  0.00    +0.000 OA
ATOM     23  C   UNL     1     111.800 128.257 142.277  0.00  0.00    +0.000 C 
ENDBRANCH  21  22
ENDBRANCH   6  16
BRANCH   5  24
ATOM     24  O   UNL     1     111.887 127.478 138.572  0.00  0.00    +0.000 OA
BRANCH  24  32
ATOM     25  O   UNL     1     112.607 128.610 138.080  0.00  0.00    +0.000 OA
ATOM     26  O   UNL     1     110.474 129.691 137.442  0.00  0.00    +0.000 OA
ATOM     27  O   UNL     1     110.464 128.199 138.147  0.00  0.00    +0.000 OA
ATOM     28  C   UNL     1     111.900 129.716 137.515  0.00  0.00    +0.000 C 
ATOM     29  C   UNL     1     111.185 129.330 137.655  0.00  0.00    +0.000 C 
ATOM     30  C   UNL     1     111.180 128.584 138.007  0.00  0.00    +0.000 C 
ATOM     31  C   UNL     1     112.611 129.356 137.728  0.00  0.00    +0.000 C 
ATOM     32  C   UNL     1     111.891 128.224 138.220  0.00  0.00    +0.000 C 
ATOM     33  C   UNL     1     113.327 129.741 137.588  0.00  0.00    +0.000 C 
BRANCH  28  34
ATOM     34  O   UNL     1     111.905 130.461 137.163  0.00  0.00    +0.000 OA
BRANCH  34  36
ATOM     35  O   UNL     1     112.081 131.204 138.371  0.00  0.00    +0.000 OA
ATOM     36  C   UNL     1     111.754 131.133 137.617  0.00  0.00    +0.000 C 
ATOM     37  C   UNL     1     111.274 131.735 137.318  0.00  0.00    +0.000 C 
ENDBRANCH  34  36
ENDBRANCH  28  34
ENDBRANCH  24  32
ENDBRANCH   5  24
TORSDOF 6
ENDMDL
MODEL 7
REMARK VINA RESULT:      -9.0     10.609     13.037
REMARK  Name = 74095102
REMARK  6 active torsions:
REMARK  status: ('A' for Active; 'I' for Inactive)
REMARK    1  A    between atoms: O_2  and  C_14
REMARK    2  A    between atoms: O_2  and  C_21
REMARK    3  A    between atoms: O_3  and  C_18
REMARK    4  A    between atoms: O_3  and  C_20
REMARK    5  A    between atoms: O_11  and  C_36
REMARK    6  A    between atoms: C_22  and  C_25
REMARK                            x       y       z     vdW  Elec       q    Type
REMARK                         _______ _______ _______ _____ _____    ______ ____
ROOT
ATOM      1  O   UNL     1     111.344 129.804 135.870  0.00  0.00    +0.000 OA
ATOM      2  O   UNL     1     110.676 128.252 137.680  0.00  0.00    +0.000 OA
ATOM      3  O   UNL     1     109.282 128.416 137.346  0.00  0.00    +0.000 OA
ATOM      4  O   UNL     1     108.550 130.184 135.140  0.00  0.00    +0.000 OA
ATOM      5  C   UNL     1     111.696 128.937 136.951  0.00  0.00    +0.000 A 
ATOM      6  C   UNL     1     111.919 129.455 136.348  0.00  0.00    +0.000 A 
ATOM      7  C   UNL     1     110.899 128.769 137.077  0.00  0.00    +0.000 A 
ATOM      8  C   UNL     1     110.323 129.118 136.599  0.00  0.00    +0.000 A 
ATOM      9  C   UNL     1     110.545 129.635 135.996  0.00  0.00    +0.000 A 
ATOM     10  C   UNL     1     109.496 128.934 136.741  0.00  0.00    +0.000 A 
ATOM     11  C   UNL     1     109.956 130.005 135.492  0.00  0.00    +0.000 A 
ATOM     12  C   UNL     1     108.892 129.295 136.246  0.00  0.00    +0.000 A 
ATOM     13  C   UNL     1     109.123 129.834 135.619  0.00  0.00    +0.000 A 
ENDROOT
BRANCH   6  16
ATOM     14  O   UNL     1     114.311 130.819 137.113  0.00  0.00    +0.000 OA
ATOM     15  O   UNL     1     114.313 129.103 134.827  0.00  0.00    +0.000 OA
ATOM     16  C   UNL     1     112.716 129.623 136.222  0.00  0.00    +0.000 A 
ATOM     17  C   UNL     1     113.116 129.279 135.588  0.00  0.00    +0.000 A 
ATOM     18  C   UNL     1     113.114 130.137 136.730  0.00  0.00    +0.000 A 
ATOM     19  C   UNL     1     113.913 130.305 136.604  0.00  0.00    +0.000 A 
ATOM     20  C   UNL     1     113.913 129.447 135.462  0.00  0.00    +0.000 A 
ATOM     21  C   UNL     1     114.312 129.960 135.970  0.00  0.00    +0.000 A 
BRANCH  21  22
ATOM     22  O   UNL     1     115.110 130.129 135.844  0.00  0.00    +0.000 OA
ATOM     23  C   UNL     1     115.326 130.774 135.378  0.00  0.00    +0.000 C 
ENDBRANCH  21  22
ENDBRANCH   6  16
BRANCH   5  24
ATOM     24  O   UNL     1     112.272 128.589 137.428  0.00  0.00    +0.000 OA
BRANCH  24  32
ATOM     25  O   UNL     1     112.166 127.308 136.803  0.00  0.00    +0.000 OA
ATOM     26  O   UNL     1     112.841 126.219 138.920  0.00  0.00    +0.000 OA
ATOM     27  O   UNL     1     112.721 127.863 138.840  0.00  0.00    +0.000 OA
ATOM     28  C   UNL     1     112.451 126.123 137.550  0.00  0.00    +0.000 C 
ATOM     29  C   UNL     1     112.616 126.582 138.214  0.00  0.00    +0.000 C 
ATOM     30  C   UNL     1     112.556 127.404 138.175  0.00  0.00    +0.000 C 
ATOM     31  C   UNL     1     112.226 126.486 136.844  0.00  0.00    +0.000 C 
ATOM     32  C   UNL     1     112.331 127.767 137.469  0.00  0.00    +0.000 C 
ATOM     33  C   UNL     1     112.061 126.028 136.178  0.00  0.00    +0.000 C 
BRANCH  28  34
ATOM     34  O   UNL     1     112.511 125.302 137.590  0.00  0.00    +0.000 OA
BRANCH  34  36
ATOM     35  O   UNL     1     111.321 124.990 138.318  0.00  0.00    +0.000 OA
ATOM     36  C   UNL     1     111.832 124.844 137.687  0.00  0.00    +0.000 C 
ATOM     37  C   UNL     1     111.663 124.238 137.152  0.00  0.00    +0.000 C 
ENDBRANCH  34  36
ENDBRANCH  28  34
ENDBRANCH  24  32
ENDBRANCH   5  24
TORSDOF 6
ENDMDL
MODEL 8
REMARK VINA RESULT:      -8.9     10.711     12.615
REMARK  Name = 74095102
REMARK  6 active torsions:
REMARK  status: ('A' for Active; 'I' for Inactive)
REMARK    1  A    between atoms: O_2  and  C_14
REMARK    2  A    between atoms: O_2  and  C_21
REMARK    3  A    between atoms: O_3  and  C_18
REMARK    4  A    between atoms: O_3  and  C_20
REMARK    5  A    between atoms: O_11  and  C_36
REMARK    6  A    between atoms: C_22  and  C_25
REMARK                            x       y       z     vdW  Elec       q    Type
REMARK                         _______ _______ _______ _____ _____    ______ ____
ROOT
ATOM      1  O   UNL     1     110.687 129.495 137.016  0.00  0.00    +0.000 OA
ATOM      2  O   UNL     1     111.515 127.603 135.651  0.00  0.00    +0.000 OA
ATOM      3  O   UNL     1     110.208 127.410 135.072  0.00  0.00    +0.000 OA
ATOM      4  O   UNL     1     108.022 129.164 135.890  0.00  0.00    +0.000 OA
ATOM      5  C   UNL     1     111.754 128.633 136.612  0.00  0.00    +0.000 A 
ATOM      6  C   UNL     1     111.478 129.264 137.067  0.00  0.00    +0.000 A 
ATOM      7  C   UNL     1     111.240 128.234 136.106  0.00  0.00    +0.000 A 
ATOM      8  C   UNL     1     110.449 128.464 136.055  0.00  0.00    +0.000 A 
ATOM      9  C   UNL     1     110.173 129.094 136.509  0.00  0.00    +0.000 A 
ATOM     10  C   UNL     1     109.924 128.039 135.524  0.00  0.00    +0.000 A 
ATOM     11  C   UNL     1     109.352 129.345 136.465  0.00  0.00    +0.000 A 
ATOM     12  C   UNL     1     109.099 128.275 135.466  0.00  0.00    +0.000 A 
ATOM     13  C   UNL     1     108.812 128.932 135.940  0.00  0.00    +0.000 A 
ENDROOT
BRANCH   6  16
ATOM     14  O   UNL     1     113.608 131.127 137.464  0.00  0.00    +0.000 OA
ATOM     15  O   UNL     1     112.433 129.802 139.707  0.00  0.00    +0.000 OA
ATOM     16  C   UNL     1     111.992 129.664 137.573  0.00  0.00    +0.000 A 
ATOM     17  C   UNL     1     111.955 129.533 138.387  0.00  0.00    +0.000 A 
ATOM     18  C   UNL     1     112.543 130.195 137.265  0.00  0.00    +0.000 A 
ATOM     19  C   UNL     1     113.057 130.596 137.772  0.00  0.00    +0.000 A 
ATOM     20  C   UNL     1     112.469 129.933 138.893  0.00  0.00    +0.000 A 
ATOM     21  C   UNL     1     113.020 130.464 138.585  0.00  0.00    +0.000 A 
BRANCH  21  22
ATOM     22  O   UNL     1     113.535 130.865 139.091  0.00  0.00    +0.000 OA
ATOM     23  C   UNL     1     114.254 130.522 139.303  0.00  0.00    +0.000 C 
ENDBRANCH  21  22
ENDBRANCH   6  16
BRANCH   5  24
ATOM     24  O   UNL     1     112.544 128.403 136.663  0.00  0.00    +0.000 OA
BRANCH  24  32
ATOM     25  O   UNL     1     112.264 127.243 137.450  0.00  0.00    +0.000 OA
ATOM     26  O   UNL     1     114.253 126.118 136.498  0.00  0.00    +0.000 OA
ATOM     27  O   UNL     1     113.870 127.653 136.029  0.00  0.00    +0.000 OA
ATOM     28  C   UNL     1     113.119 126.101 137.367  0.00  0.00    +0.000 C 
ATOM     29  C   UNL     1     113.590 126.493 136.815  0.00  0.00    +0.000 C 
ATOM     30  C   UNL     1     113.399 127.261 136.580  0.00  0.00    +0.000 C 
ATOM     31  C   UNL     1     112.456 126.476 137.684  0.00  0.00    +0.000 C 
ATOM     32  C   UNL     1     112.736 127.636 136.897  0.00  0.00    +0.000 C 
ATOM     33  C   UNL     1     111.984 126.084 138.235  0.00  0.00    +0.000 C 
BRANCH  28  34
ATOM     34  O   UNL     1     113.310 125.334 137.601  0.00  0.00    +0.000 OA
BRANCH  34  36
ATOM     35  O   UNL     1     112.321 124.609 136.868  0.00  0.00    +0.000 OA
ATOM     36  C   UNL     1     113.100 124.693 137.126  0.00  0.00    +0.000 C 
ATOM     37  C   UNL     1     113.668 124.135 136.910  0.00  0.00    +0.000 C 
ENDBRANCH  34  36
ENDBRANCH  28  34
ENDBRANCH  24  32
ENDBRANCH   5  24
TORSDOF 6
ENDMDL
MODEL 9
REMARK VINA RESULT:      -8.9      9.694     11.676
REMARK  Name = 74095102
REMARK  6 active torsions:
REMARK  status: ('A' for Active; 'I' for Inactive)
REMARK    1  A    between atoms: O_2  and  C_14
REMARK    2  A    between atoms: O_2  and  C_21
REMARK    3  A    between atoms: O_3  and  C_18
REMARK    4  A    between atoms: O_3  and  C_20
REMARK    5  A    between atoms: O_11  and  C_36
REMARK    6  A    between atoms: C_22  and  C_25
REMARK                            x       y       z     vdW  Elec       q    Type
REMARK                         _______ _______ _______ _____ _____    ______ ____
ROOT
ATOM      1  O   UNL     1     112.219 125.257 138.187  0.00  0.00    +0.000 OA
ATOM      2  O   UNL     1     111.290 126.727 136.425  0.00  0.00    +0.000 OA
ATOM      3  O   UNL     1     111.117 125.602 135.538  0.00  0.00    +0.000 OA
ATOM      4  O   UNL     1     111.898 122.941 136.452  0.00  0.00    +0.000 OA
ATOM      5  C   UNL     1     111.835 126.557 137.735  0.00  0.00    +0.000 A 
ATOM      6  C   UNL     1     112.144 126.068 138.323  0.00  0.00    +0.000 A 
ATOM      7  C   UNL     1     111.600 126.237 137.013  0.00  0.00    +0.000 A 
ATOM      8  C   UNL     1     111.674 125.427 136.877  0.00  0.00    +0.000 A 
ATOM      9  C   UNL     1     111.983 124.936 137.464  0.00  0.00    +0.000 A 
ATOM     10  C   UNL     1     111.425 125.105 136.120  0.00  0.00    +0.000 A 
ATOM     11  C   UNL     1     112.066 124.091 137.335  0.00  0.00    +0.000 A 
ATOM     12  C   UNL     1     111.501 124.261 135.973  0.00  0.00    +0.000 A 
ATOM     13  C   UNL     1     111.823 123.752 136.584  0.00  0.00    +0.000 A 
ENDROOT
BRANCH   6  16
ATOM     14  O   UNL     1     114.218 126.939 140.086  0.00  0.00    +0.000 OA
ATOM     15  O   UNL     1     111.484 127.118 140.897  0.00  0.00    +0.000 OA
ATOM     16  C   UNL     1     112.380 126.388 139.045  0.00  0.00    +0.000 A 
ATOM     17  C   UNL     1     111.814 126.593 139.610  0.00  0.00    +0.000 A 
ATOM     18  C   UNL     1     113.181 126.503 139.204  0.00  0.00    +0.000 A 
ATOM     19  C   UNL     1     113.417 126.824 139.927  0.00  0.00    +0.000 A 
ATOM     20  C   UNL     1     112.049 126.913 140.332  0.00  0.00    +0.000 A 
ATOM     21  C   UNL     1     112.850 127.029 140.491  0.00  0.00    +0.000 A 
BRANCH  21  22
ATOM     22  O   UNL     1     113.086 127.349 141.215  0.00  0.00    +0.000 OA
ATOM     23  C   UNL     1     113.135 128.167 141.306  0.00  0.00    +0.000 C 
ENDBRANCH  21  22
ENDBRANCH   6  16
BRANCH   5  24
ATOM     24  O   UNL     1     111.761 127.368 137.871  0.00  0.00    +0.000 OA
BRANCH  24  32
ATOM     25  O   UNL     1     112.866 127.716 137.035  0.00  0.00    +0.000 OA
ATOM     26  O   UNL     1     111.809 129.900 136.547  0.00  0.00    +0.000 OA
ATOM     27  O   UNL     1     111.056 128.824 137.545  0.00  0.00    +0.000 OA
ATOM     28  C   UNL     1     112.890 128.982 136.373  0.00  0.00    +0.000 C 
ATOM     29  C   UNL     1     112.161 129.172 136.709  0.00  0.00    +0.000 C 
ATOM     30  C   UNL     1     111.784 128.634 137.209  0.00  0.00    +0.000 C 
ATOM     31  C   UNL     1     113.242 128.254 136.536  0.00  0.00    +0.000 C 
ATOM     32  C   UNL     1     112.137 127.906 137.372  0.00  0.00    +0.000 C 
ATOM     33  C   UNL     1     113.971 128.064 136.199  0.00  0.00    +0.000 C 
BRANCH  28  34
ATOM     34  O   UNL     1     113.266 129.520 135.874  0.00  0.00    +0.000 OA
BRANCH  34  36
ATOM     35  O   UNL     1     112.516 129.280 134.682  0.00  0.00    +0.000 OA
ATOM     36  C   UNL     1     113.238 129.413 135.056  0.00  0.00    +0.000 C 
ATOM     37  C   UNL     1     113.934 129.439 134.613  0.00  0.00    +0.000 C 
ENDBRANCH  34  36
ENDBRANCH  28  34
ENDBRANCH  24  32
ENDBRANCH   5  24
TORSDOF 6
ENDMDL
MODEL 10
REMARK VINA RESULT:      -8.9      9.756     11.466
REMARK  Name = 74095102
REMARK  6 active torsions:
REMARK  status: ('A' for Active; 'I' for Inactive)
REMARK    1  A    between atoms: O_2  and  C_14
REMARK    2  A    between atoms: O_2  and  C_21
REMARK    3  A    between atoms: O_3  and  C_18
REMARK    4  A    between atoms: O_3  and  C_20
REMARK    5  A    between atoms: O_11  and  C_36
REMARK    6  A    between atoms: C_22  and  C_25
REMARK                            x       y       z     vdW  Elec       q    Type
REMARK                         _______ _______ _______ _____ _____    ______ ____
ROOT
ATOM      1  O   UNL     1     111.429 126.230 138.724  0.00  0.00    +0.000 OA
ATOM      2  O   UNL     1     113.648 127.287 138.435  0.00  0.00    +0.000 OA
ATOM      3  O   UNL     1     113.817 127.390 139.864  0.00  0.00    +0.000 OA
ATOM      4  O   UNL     1     111.701 126.405 141.618  0.00  0.00    +0.000 OA
ATOM      5  C   UNL     1     112.468 126.713 137.870  0.00  0.00    +0.000 A 
ATOM      6  C   UNL     1     111.728 126.361 137.966  0.00  0.00    +0.000 A 
ATOM      7  C   UNL     1     112.908 126.934 138.531  0.00  0.00    +0.000 A 
ATOM      8  C   UNL     1     112.610 126.803 139.288  0.00  0.00    +0.000 A 
ATOM      9  C   UNL     1     111.870 126.451 139.386  0.00  0.00    +0.000 A 
ATOM     10  C   UNL     1     113.079 127.038 139.969  0.00  0.00    +0.000 A 
ATOM     11  C   UNL     1     111.547 126.309 140.169  0.00  0.00    +0.000 A 
ATOM     12  C   UNL     1     112.772 126.904 140.761  0.00  0.00    +0.000 A 
ATOM     13  C   UNL     1     112.002 126.537 140.861  0.00  0.00    +0.000 A 
ENDROOT
BRANCH   6  16
ATOM     14  O   UNL     1     109.541 126.817 136.184  0.00  0.00    +0.000 OA
ATOM     15  O   UNL     1     111.268 124.576 135.781  0.00  0.00    +0.000 OA
ATOM     16  C   UNL     1     111.287 126.139 137.305  0.00  0.00    +0.000 A 
ATOM     17  C   UNL     1     111.498 125.468 136.874  0.00  0.00    +0.000 A 
ATOM     18  C   UNL     1     110.635 126.589 137.075  0.00  0.00    +0.000 A 
ATOM     19  C   UNL     1     110.193 126.368 136.414  0.00  0.00    +0.000 A 
ATOM     20  C   UNL     1     111.057 125.247 136.213  0.00  0.00    +0.000 A 
ATOM     21  C   UNL     1     110.405 125.697 135.983  0.00  0.00    +0.000 A 
BRANCH  21  22
ATOM     22  O   UNL     1     109.964 125.476 135.321  0.00  0.00    +0.000 OA
ATOM     23  C   UNL     1     110.045 125.892 134.614  0.00  0.00    +0.000 C 
ENDBRANCH  21  22
ENDBRANCH   6  16
BRANCH   5  24
ATOM     24  O   UNL     1     112.767 126.844 137.112  0.00  0.00    +0.000 OA
BRANCH  24  32
ATOM     25  O   UNL     1     112.504 128.249 137.135  0.00  0.00    +0.000 OA
ATOM     26  O   UNL     1     114.414 128.631 135.609  0.00  0.00    +0.000 OA
ATOM     27  O   UNL     1     114.040 127.099 136.095  0.00  0.00    +0.000 OA
ATOM     28  C   UNL     1     113.328 129.141 136.383  0.00  0.00    +0.000 C 
ATOM     29  C   UNL     1     113.777 128.503 136.117  0.00  0.00    +0.000 C 
ATOM     30  C   UNL     1     113.591 127.737 136.360  0.00  0.00    +0.000 C 
ATOM     31  C   UNL     1     112.691 129.014 136.892  0.00  0.00    +0.000 C 
ATOM     32  C   UNL     1     112.954 127.610 136.869  0.00  0.00    +0.000 C 
ATOM     33  C   UNL     1     112.241 129.652 137.158  0.00  0.00    +0.000 C 
BRANCH  28  34
ATOM     34  O   UNL     1     113.515 129.907 136.140  0.00  0.00    +0.000 OA
BRANCH  34  36
ATOM     35  O   UNL     1     114.101 130.457 137.322  0.00  0.00    +0.000 OA
ATOM     36  C   UNL     1     114.127 130.319 136.509  0.00  0.00    +0.000 C 
ATOM     37  C   UNL     1     114.767 130.593 136.065  0.00  0.00    +0.000 C 
ENDBRANCH  34  36
ENDBRANCH  28  34
ENDBRANCH  24  32
ENDBRANCH   5  24
TORSDOF 6
ENDMDL
