MODEL 1
REMARK VINA RESULT:     -10.2      0.000      0.000
REMARK  Name = 44259411
REMARK  6 active torsions:
REMARK  status: ('A' for Active; 'I' for Inactive)
REMARK    1  A    between atoms: O_2  and  C_16
REMARK    2  A    between atoms: O_2  and  C_18
REMARK    3  A    between atoms: O_10  and  C_34
REMARK    4  A    between atoms: C_19  and  C_24
REMARK    5  A    between atoms: C_23  and  C_26
REMARK    6  A    between atoms: C_26  and  C_31
REMARK                            x       y       z     vdW  Elec       q    Type
REMARK                         _______ _______ _______ _____ _____    ______ ____
ROOT
ATOM      1  O   UNL     1     112.579 126.917 136.405  0.00  0.00    +0.000 OA
ATOM      2  O   UNL     1     110.375 127.156 135.306  0.00  0.00    +0.000 OA
ATOM      3  O   UNL     1     110.141 125.736 135.401  0.00  0.00    +0.000 OA
ATOM      4  O   UNL     1     112.177 124.041 136.631  0.00  0.00    +0.000 OA
ATOM      5  C   UNL     1     111.580 127.742 135.802  0.00  0.00    +0.000 A 
ATOM      6  C   UNL     1     112.315 127.662 136.169  0.00  0.00    +0.000 A 
ATOM      7  C   UNL     1     111.109 127.076 135.672  0.00  0.00    +0.000 A 
ATOM      8  C   UNL     1     111.374 126.331 135.909  0.00  0.00    +0.000 A 
ATOM      9  C   UNL     1     112.109 126.252 136.275  0.00  0.00    +0.000 A 
ATOM     10  C   UNL     1     112.395 125.482 136.526  0.00  0.00    +0.000 A 
ATOM     11  C   UNL     1     110.875 125.646 135.768  0.00  0.00    +0.000 A 
ATOM     12  C   UNL     1     111.910 124.785 136.394  0.00  0.00    +0.000 A 
ATOM     13  C   UNL     1     111.145 124.868 136.012  0.00  0.00    +0.000 A 
ENDROOT
BRANCH   6  15
ATOM     14  O   UNL     1     113.380 129.631 137.945  0.00  0.00    +0.000 OA
ATOM     15  C   UNL     1     112.785 128.327 136.299  0.00  0.00    +0.000 A 
ATOM     16  C   UNL     1     112.847 128.646 137.057  0.00  0.00    +0.000 A 
ATOM     17  C   UNL     1     113.193 128.673 135.670  0.00  0.00    +0.000 A 
ATOM     18  C   UNL     1     113.318 129.312 137.187  0.00  0.00    +0.000 A 
ATOM     19  C   UNL     1     113.663 129.338 135.801  0.00  0.00    +0.000 A 
ATOM     20  C   UNL     1     113.726 129.658 136.559  0.00  0.00    +0.000 A 
BRANCH  20  21
ATOM     21  O   UNL     1     114.196 130.323 136.689  0.00  0.00    +0.000 OA
ATOM     22  C   UNL     1     114.612 130.664 136.063  0.00  0.00    +0.000 C 
ENDBRANCH  20  21
ENDBRANCH   6  15
BRANCH   5  23
ATOM     23  O   UNL     1     111.316 128.487 135.566  0.00  0.00    +0.000 OA
BRANCH  23  32
ATOM     24  O   UNL     1     110.396 128.630 136.650  0.00  0.00    +0.000 OA
ATOM     25  O   UNL     1     108.929 130.021 135.222  0.00  0.00    +0.000 OA
ATOM     26  O   UNL     1     108.498 129.700 136.782  0.00  0.00    +0.000 OA
ATOM     27  O   UNL     1     110.338 129.414 134.614  0.00  0.00    +0.000 OA
ATOM     28  C   UNL     1     109.418 129.557 135.698  0.00  0.00    +0.000 C 
ATOM     29  C   UNL     1     109.203 129.396 136.478  0.00  0.00    +0.000 C 
ATOM     30  C   UNL     1     110.122 129.254 135.394  0.00  0.00    +0.000 C 
ATOM     31  C   UNL     1     109.692 128.933 136.954  0.00  0.00    +0.000 C 
ATOM     32  C   UNL     1     110.611 128.790 135.870  0.00  0.00    +0.000 C 
ATOM     33  C   UNL     1     109.476 128.772 137.734  0.00  0.00    +0.000 C 
ENDBRANCH  23  32
ENDBRANCH   5  23
BRANCH  10  34
ATOM     34  C   UNL     1     113.131 125.411 136.892  0.00  0.00    +0.000 C 
BRANCH  34  35
ATOM     35  C   UNL     1     113.768 125.084 136.481  0.00  0.00    +0.000 C 
ATOM     36  C   UNL     1     114.509 125.035 136.839  0.00  0.00    +0.000 C 
ATOM     37  C   UNL     1     115.145 124.708 136.429  0.00  0.00    +0.000 C 
ATOM     38  C   UNL     1     114.615 125.314 137.609  0.00  0.00    +0.000 C 
ENDBRANCH  34  35
ENDBRANCH  10  34
TORSDOF 6
ENDMDL
MODEL 2
REMARK VINA RESULT:      -9.7      0.865      1.464
REMARK  Name = 44259411
REMARK  6 active torsions:
REMARK  status: ('A' for Active; 'I' for Inactive)
REMARK    1  A    between atoms: O_2  and  C_16
REMARK    2  A    between atoms: O_2  and  C_18
REMARK    3  A    between atoms: O_10  and  C_34
REMARK    4  A    between atoms: C_19  and  C_24
REMARK    5  A    between atoms: C_23  and  C_26
REMARK    6  A    between atoms: C_26  and  C_31
REMARK                            x       y       z     vdW  Elec       q    Type
REMARK                         _______ _______ _______ _____ _____    ______ ____
ROOT
ATOM      1  O   UNL     1     112.342 127.088 136.857  0.00  0.00    +0.000 OA
ATOM      2  O   UNL     1     109.874 127.243 136.977  0.00  0.00    +0.000 OA
ATOM      3  O   UNL     1     109.740 125.866 136.566  0.00  0.00    +0.000 OA
ATOM      4  O   UNL     1     112.147 124.304 136.024  0.00  0.00    +0.000 OA
ATOM      5  C   UNL     1     111.161 127.849 137.121  0.00  0.00    +0.000 A 
ATOM      6  C   UNL     1     111.983 127.797 137.081  0.00  0.00    +0.000 A 
ATOM      7  C   UNL     1     110.697 127.191 136.937  0.00  0.00    +0.000 A 
ATOM      8  C   UNL     1     111.055 126.482 136.713  0.00  0.00    +0.000 A 
ATOM      9  C   UNL     1     111.878 126.432 136.673  0.00  0.00    +0.000 A 
ATOM     10  C   UNL     1     112.263 125.700 136.441  0.00  0.00    +0.000 A 
ATOM     11  C   UNL     1     110.562 125.806 136.523  0.00  0.00    +0.000 A 
ATOM     12  C   UNL     1     111.786 125.011 136.247  0.00  0.00    +0.000 A 
ATOM     13  C   UNL     1     110.929 125.065 136.289  0.00  0.00    +0.000 A 
ENDROOT
BRANCH   6  15
ATOM     14  O   UNL     1     113.623 129.982 136.242  0.00  0.00    +0.000 OA
ATOM     15  C   UNL     1     112.447 128.454 137.265  0.00  0.00    +0.000 A 
ATOM     16  C   UNL     1     112.803 128.889 136.661  0.00  0.00    +0.000 A 
ATOM     17  C   UNL     1     112.554 128.676 138.052  0.00  0.00    +0.000 A 
ATOM     18  C   UNL     1     113.267 129.547 136.845  0.00  0.00    +0.000 A 
ATOM     19  C   UNL     1     113.017 129.333 138.236  0.00  0.00    +0.000 A 
ATOM     20  C   UNL     1     113.374 129.769 137.633  0.00  0.00    +0.000 A 
BRANCH  20  21
ATOM     21  O   UNL     1     113.837 130.425 137.816  0.00  0.00    +0.000 OA
ATOM     22  C   UNL     1     114.008 130.604 138.604  0.00  0.00    +0.000 C 
ENDBRANCH  20  21
ENDBRANCH   6  15
BRANCH   5  23
ATOM     23  O   UNL     1     110.802 128.557 137.345  0.00  0.00    +0.000 OA
BRANCH  23  32
ATOM     24  O   UNL     1     110.381 128.914 136.027  0.00  0.00    +0.000 OA
ATOM     25  O   UNL     1     108.378 130.024 136.967  0.00  0.00    +0.000 OA
ATOM     26  O   UNL     1     108.625 130.011 135.336  0.00  0.00    +0.000 OA
ATOM     27  O   UNL     1     109.467 129.297 137.972  0.00  0.00    +0.000 OA
ATOM     28  C   UNL     1     109.046 129.654 136.654  0.00  0.00    +0.000 C 
ATOM     29  C   UNL     1     109.170 129.647 135.839  0.00  0.00    +0.000 C 
ATOM     30  C   UNL     1     109.590 129.290 137.156  0.00  0.00    +0.000 C 
ATOM     31  C   UNL     1     109.837 129.278 135.525  0.00  0.00    +0.000 C 
ATOM     32  C   UNL     1     110.258 128.920 136.842  0.00  0.00    +0.000 C 
ATOM     33  C   UNL     1     109.960 129.272 134.709  0.00  0.00    +0.000 C 
ENDBRANCH  23  32
ENDBRANCH   5  23
BRANCH  10  34
ATOM     34  C   UNL     1     113.086 125.657 136.403  0.00  0.00    +0.000 C 
BRANCH  34  35
ATOM     35  C   UNL     1     113.503 125.209 136.957  0.00  0.00    +0.000 C 
ATOM     36  C   UNL     1     114.327 125.177 136.926  0.00  0.00    +0.000 C 
ATOM     37  C   UNL     1     114.743 124.729 137.480  0.00  0.00    +0.000 C 
ATOM     38  C   UNL     1     114.734 125.593 136.341  0.00  0.00    +0.000 C 
ENDBRANCH  34  35
ENDBRANCH  10  34
TORSDOF 6
ENDMDL
MODEL 3
REMARK VINA RESULT:      -9.4     12.083     13.997
REMARK  Name = 44259411
REMARK  6 active torsions:
REMARK  status: ('A' for Active; 'I' for Inactive)
REMARK    1  A    between atoms: O_2  and  C_16
REMARK    2  A    between atoms: O_2  and  C_18
REMARK    3  A    between atoms: O_10  and  C_34
REMARK    4  A    between atoms: C_19  and  C_24
REMARK    5  A    between atoms: C_23  and  C_26
REMARK    6  A    between atoms: C_26  and  C_31
REMARK                            x       y       z     vdW  Elec       q    Type
REMARK                         _______ _______ _______ _____ _____    ______ ____
ROOT
ATOM      1  O   UNL     1     103.688 125.281 147.122  0.00  0.00    +0.000 OA
ATOM      2  O   UNL     1     105.771 124.365 146.148  0.00  0.00    +0.000 OA
ATOM      3  O   UNL     1     105.067 123.201 145.668  0.00  0.00    +0.000 OA
ATOM      4  O   UNL     1     102.203 122.959 146.182  0.00  0.00    +0.000 OA
ATOM      5  C   UNL     1     105.090 125.395 146.868  0.00  0.00    +0.000 A 
ATOM      6  C   UNL     1     104.395 125.700 147.192  0.00  0.00    +0.000 A 
ATOM      7  C   UNL     1     105.076 124.670 146.473  0.00  0.00    +0.000 A 
ATOM      8  C   UNL     1     104.369 124.251 146.402  0.00  0.00    +0.000 A 
ATOM      9  C   UNL     1     103.675 124.557 146.727  0.00  0.00    +0.000 A 
ATOM     10  C   UNL     1     102.932 124.131 146.661  0.00  0.00    +0.000 A 
ATOM     11  C   UNL     1     104.368 123.499 145.989  0.00  0.00    +0.000 A 
ATOM     12  C   UNL     1     102.911 123.375 146.251  0.00  0.00    +0.000 A 
ATOM     13  C   UNL     1     103.635 123.057 145.913  0.00  0.00    +0.000 A 
ENDROOT
BRANCH   6  15
ATOM     14  O   UNL     1     104.170 127.204 149.612  0.00  0.00    +0.000 OA
ATOM     15  C   UNL     1     104.408 126.425 147.587  0.00  0.00    +0.000 A 
ATOM     16  C   UNL     1     104.283 126.452 148.402  0.00  0.00    +0.000 A 
ATOM     17  C   UNL     1     104.548 127.121 147.167  0.00  0.00    +0.000 A 
ATOM     18  C   UNL     1     104.296 127.177 148.797  0.00  0.00    +0.000 A 
ATOM     19  C   UNL     1     104.561 127.845 147.562  0.00  0.00    +0.000 A 
ATOM     20  C   UNL     1     104.435 127.873 148.377  0.00  0.00    +0.000 A 
BRANCH  20  21
ATOM     21  O   UNL     1     104.448 128.597 148.772  0.00  0.00    +0.000 OA
ATOM     22  C   UNL     1     104.716 129.274 148.385  0.00  0.00    +0.000 C 
ENDBRANCH  20  21
ENDBRANCH   6  15
BRANCH   5  23
ATOM     23  O   UNL     1     105.797 125.814 146.938  0.00  0.00    +0.000 OA
BRANCH  23  32
ATOM     24  O   UNL     1     106.275 125.010 148.018  0.00  0.00    +0.000 OA
ATOM     25  O   UNL     1     108.607 125.501 147.351  0.00  0.00    +0.000 OA
ATOM     26  O   UNL     1     108.308 124.533 148.654  0.00  0.00    +0.000 OA
ATOM     27  O   UNL     1     107.352 126.141 146.493  0.00  0.00    +0.000 OA
ATOM     28  C   UNL     1     107.830 125.337 147.574  0.00  0.00    +0.000 C 
ATOM     29  C   UNL     1     107.680 124.853 148.225  0.00  0.00    +0.000 C 
ATOM     30  C   UNL     1     107.202 125.657 147.145  0.00  0.00    +0.000 C 
ATOM     31  C   UNL     1     106.903 124.690 148.447  0.00  0.00    +0.000 C 
ATOM     32  C   UNL     1     106.424 125.493 147.368  0.00  0.00    +0.000 C 
ATOM     33  C   UNL     1     106.754 124.206 149.098  0.00  0.00    +0.000 C 
ENDBRANCH  23  32
ENDBRANCH   5  23
BRANCH  10  34
ATOM     34  C   UNL     1     102.242 124.443 146.988  0.00  0.00    +0.000 C 
BRANCH  34  35
ATOM     35  C   UNL     1     101.867 124.054 147.611  0.00  0.00    +0.000 C 
ATOM     36  C   UNL     1     101.223 124.404 147.989  0.00  0.00    +0.000 C 
ATOM     37  C   UNL     1     100.847 124.015 148.612  0.00  0.00    +0.000 C 
ATOM     38  C   UNL     1     100.953 125.145 147.743  0.00  0.00    +0.000 C 
ENDBRANCH  34  35
ENDBRANCH  10  34
TORSDOF 6
ENDMDL
MODEL 4
REMARK VINA RESULT:      -9.3      2.228      3.268
REMARK  Name = 44259411
REMARK  6 active torsions:
REMARK  status: ('A' for Active; 'I' for Inactive)
REMARK    1  A    between atoms: O_2  and  C_16
REMARK    2  A    between atoms: O_2  and  C_18
REMARK    3  A    between atoms: O_10  and  C_34
REMARK    4  A    between atoms: C_19  and  C_24
REMARK    5  A    between atoms: C_23  and  C_26
REMARK    6  A    between atoms: C_26  and  C_31
REMARK                            x       y       z     vdW  Elec       q    Type
REMARK                         _______ _______ _______ _____ _____    ______ ____
ROOT
ATOM      1  O   UNL     1     111.972 126.457 137.691  0.00  0.00    +0.000 OA
ATOM      2  O   UNL     1     110.469 128.407 137.438  0.00  0.00    +0.000 OA
ATOM      3  O   UNL     1     109.973 127.897 136.182  0.00  0.00    +0.000 OA
ATOM      4  O   UNL     1     111.018 125.367 135.165  0.00  0.00    +0.000 OA
ATOM      5  C   UNL     1     111.458 127.696 138.185  0.00  0.00    +0.000 A 
ATOM      6  C   UNL     1     111.959 127.046 138.269  0.00  0.00    +0.000 A 
ATOM      7  C   UNL     1     110.970 127.757 137.522  0.00  0.00    +0.000 A 
ATOM      8  C   UNL     1     110.984 127.169 136.944  0.00  0.00    +0.000 A 
ATOM      9  C   UNL     1     111.485 126.519 137.029  0.00  0.00    +0.000 A 
ATOM     10  C   UNL     1     111.508 125.900 136.434  0.00  0.00    +0.000 A 
ATOM     11  C   UNL     1     110.471 127.244 136.259  0.00  0.00    +0.000 A 
ATOM     12  C   UNL     1     111.002 125.957 135.741  0.00  0.00    +0.000 A 
ATOM     13  C   UNL     1     110.481 126.634 135.653  0.00  0.00    +0.000 A 
ENDROOT
BRANCH   6  15
ATOM     14  O   UNL     1     112.304 126.437 141.040  0.00  0.00    +0.000 OA
ATOM     15  C   UNL     1     112.447 126.985 138.932  0.00  0.00    +0.000 A 
ATOM     16  C   UNL     1     112.131 126.742 139.655  0.00  0.00    +0.000 A 
ATOM     17  C   UNL     1     113.249 127.167 138.873  0.00  0.00    +0.000 A 
ATOM     18  C   UNL     1     112.619 126.681 140.318  0.00  0.00    +0.000 A 
ATOM     19  C   UNL     1     113.736 127.106 139.535  0.00  0.00    +0.000 A 
ATOM     20  C   UNL     1     113.422 126.863 140.258  0.00  0.00    +0.000 A 
BRANCH  20  21
ATOM     21  O   UNL     1     113.909 126.801 140.920  0.00  0.00    +0.000 OA
ATOM     22  C   UNL     1     114.638 127.186 140.934  0.00  0.00    +0.000 C 
ENDBRANCH  20  21
ENDBRANCH   6  15
BRANCH   5  23
ATOM     23  O   UNL     1     111.445 128.285 138.763  0.00  0.00    +0.000 OA
BRANCH  23  32
ATOM     24  O   UNL     1     112.181 129.217 137.969  0.00  0.00    +0.000 OA
ATOM     25  O   UNL     1     111.079 131.093 139.149  0.00  0.00    +0.000 OA
ATOM     26  O   UNL     1     112.183 131.400 137.962  0.00  0.00    +0.000 OA
ATOM     27  O   UNL     1     110.710 129.535 139.550  0.00  0.00    +0.000 OA
ATOM     28  C   UNL     1     111.447 130.468 138.756  0.00  0.00    +0.000 C 
ATOM     29  C   UNL     1     111.999 130.620 138.162  0.00  0.00    +0.000 C 
ATOM     30  C   UNL     1     111.263 129.689 138.956  0.00  0.00    +0.000 C 
ATOM     31  C   UNL     1     112.366 129.995 137.769  0.00  0.00    +0.000 C 
ATOM     32  C   UNL     1     111.630 129.063 138.562  0.00  0.00    +0.000 C 
ATOM     33  C   UNL     1     112.918 130.149 137.175  0.00  0.00    +0.000 C 
ENDBRANCH  23  32
ENDBRANCH   5  23
BRANCH  10  34
ATOM     34  C   UNL     1     112.012 125.253 136.527  0.00  0.00    +0.000 C 
BRANCH  34  35
ATOM     35  C   UNL     1     111.704 124.513 136.723  0.00  0.00    +0.000 C 
ATOM     36  C   UNL     1     112.211 123.875 136.849  0.00  0.00    +0.000 C 
ATOM     37  C   UNL     1     111.903 123.135 137.046  0.00  0.00    +0.000 C 
ATOM     38  C   UNL     1     113.027 123.976 136.779  0.00  0.00    +0.000 C 
ENDBRANCH  34  35
ENDBRANCH  10  34
TORSDOF 6
ENDMDL
MODEL 5
REMARK VINA RESULT:      -9.3      2.407      3.833
REMARK  Name = 44259411
REMARK  6 active torsions:
REMARK  status: ('A' for Active; 'I' for Inactive)
REMARK    1  A    between atoms: O_2  and  C_16
REMARK    2  A    between atoms: O_2  and  C_18
REMARK    3  A    between atoms: O_10  and  C_34
REMARK    4  A    between atoms: C_19  and  C_24
REMARK    5  A    between atoms: C_23  and  C_26
REMARK    6  A    between atoms: C_26  and  C_31
REMARK                            x       y       z     vdW  Elec       q    Type
REMARK                         _______ _______ _______ _____ _____    ______ ____
ROOT
ATOM      1  O   UNL     1     112.752 126.206 138.737  0.00  0.00    +0.000 OA
ATOM      2  O   UNL     1     110.471 125.624 137.971  0.00  0.00    +0.000 OA
ATOM      3  O   UNL     1     109.917 125.994 139.251  0.00  0.00    +0.000 OA
ATOM      4  O   UNL     1     111.703 126.971 141.344  0.00  0.00    +0.000 OA
ATOM      5  C   UNL     1     111.873 125.729 137.716  0.00  0.00    +0.000 A 
ATOM      6  C   UNL     1     112.633 125.923 137.971  0.00  0.00    +0.000 A 
ATOM      7  C   UNL     1     111.231 125.818 138.227  0.00  0.00    +0.000 A 
ATOM      8  C   UNL     1     111.350 126.102 138.993  0.00  0.00    +0.000 A 
ATOM      9  C   UNL     1     112.110 126.296 139.247  0.00  0.00    +0.000 A 
ATOM     10  C   UNL     1     112.246 126.592 140.042  0.00  0.00    +0.000 A 
ATOM     11  C   UNL     1     110.674 126.191 139.515  0.00  0.00    +0.000 A 
ATOM     12  C   UNL     1     111.582 126.687 140.579  0.00  0.00    +0.000 A 
ATOM     13  C   UNL     1     110.790 126.485 140.313  0.00  0.00    +0.000 A 
ENDROOT
BRANCH   6  15
ATOM     14  O   UNL     1     114.541 127.058 136.172  0.00  0.00    +0.000 OA
ATOM     15  C   UNL     1     113.275 125.833 137.460  0.00  0.00    +0.000 A 
ATOM     16  C   UNL     1     113.587 126.490 137.071  0.00  0.00    +0.000 A 
ATOM     17  C   UNL     1     113.605 125.086 137.338  0.00  0.00    +0.000 A 
ATOM     18  C   UNL     1     114.229 126.401 136.560  0.00  0.00    +0.000 A 
ATOM     19  C   UNL     1     114.246 124.997 136.828  0.00  0.00    +0.000 A 
ATOM     20  C   UNL     1     114.559 125.654 136.439  0.00  0.00    +0.000 A 
BRANCH  20  21
ATOM     21  O   UNL     1     115.200 125.565 135.928  0.00  0.00    +0.000 OA
ATOM     22  C   UNL     1     115.492 124.812 135.759  0.00  0.00    +0.000 C 
ENDBRANCH  20  21
ENDBRANCH   6  15
BRANCH   5  23
ATOM     23  O   UNL     1     111.755 125.445 136.950  0.00  0.00    +0.000 OA
BRANCH  23  32
ATOM     24  O   UNL     1     111.195 126.674 136.482  0.00  0.00    +0.000 OA
ATOM     25  O   UNL     1     109.904 125.434 134.772  0.00  0.00    +0.000 OA
ATOM     26  O   UNL     1     109.774 127.076 134.875  0.00  0.00    +0.000 OA
ATOM     27  O   UNL     1     110.894 124.619 135.810  0.00  0.00    +0.000 OA
ATOM     28  C   UNL     1     110.334 125.847 135.342  0.00  0.00    +0.000 C 
ATOM     29  C   UNL     1     110.270 126.668 135.394  0.00  0.00    +0.000 C 
ATOM     30  C   UNL     1     110.830 125.440 135.861  0.00  0.00    +0.000 C 
ATOM     31  C   UNL     1     110.700 127.081 135.964  0.00  0.00    +0.000 C 
ATOM     32  C   UNL     1     111.260 125.853 136.431  0.00  0.00    +0.000 C 
ATOM     33  C   UNL     1     110.635 127.902 136.015  0.00  0.00    +0.000 C 
ENDBRANCH  23  32
ENDBRANCH   5  23
BRANCH  10  34
ATOM     34  C   UNL     1     113.010 126.784 140.289  0.00  0.00    +0.000 C 
BRANCH  34  35
ATOM     35  C   UNL     1     113.220 127.572 140.409  0.00  0.00    +0.000 C 
ATOM     36  C   UNL     1     113.988 127.764 140.640  0.00  0.00    +0.000 C 
ATOM     37  C   UNL     1     114.198 128.553 140.759  0.00  0.00    +0.000 C 
ATOM     38  C   UNL     1     114.547 127.167 140.751  0.00  0.00    +0.000 C 
ENDBRANCH  34  35
ENDBRANCH  10  34
TORSDOF 6
ENDMDL
MODEL 6
REMARK VINA RESULT:      -9.2      1.516      1.953
REMARK  Name = 44259411
REMARK  6 active torsions:
REMARK  status: ('A' for Active; 'I' for Inactive)
REMARK    1  A    between atoms: O_2  and  C_16
REMARK    2  A    between atoms: O_2  and  C_18
REMARK    3  A    between atoms: O_10  and  C_34
REMARK    4  A    between atoms: C_19  and  C_24
REMARK    5  A    between atoms: C_23  and  C_26
REMARK    6  A    between atoms: C_26  and  C_31
REMARK                            x       y       z     vdW  Elec       q    Type
REMARK                         _______ _______ _______ _____ _____    ______ ____
ROOT
ATOM      1  O   UNL     1     112.661 127.711 137.267  0.00  0.00    +0.000 OA
ATOM      2  O   UNL     1     110.468 128.802 137.616  0.00  0.00    +0.000 OA
ATOM      3  O   UNL     1     109.975 127.648 138.328  0.00  0.00    +0.000 OA
ATOM      4  O   UNL     1     111.735 125.346 138.693  0.00  0.00    +0.000 OA
ATOM      5  C   UNL     1     111.796 128.835 137.090  0.00  0.00    +0.000 A 
ATOM      6  C   UNL     1     112.527 128.470 136.974  0.00  0.00    +0.000 A 
ATOM      7  C   UNL     1     111.199 128.438 137.500  0.00  0.00    +0.000 A 
ATOM      8  C   UNL     1     111.333 127.678 137.792  0.00  0.00    +0.000 A 
ATOM      9  C   UNL     1     112.064 127.315 137.675  0.00  0.00    +0.000 A 
ATOM     10  C   UNL     1     112.216 126.524 137.975  0.00  0.00    +0.000 A 
ATOM     11  C   UNL     1     110.703 127.276 138.216  0.00  0.00    +0.000 A 
ATOM     12  C   UNL     1     111.598 126.106 138.402  0.00  0.00    +0.000 A 
ATOM     13  C   UNL     1     110.836 126.485 138.523  0.00  0.00    +0.000 A 
ENDROOT
BRANCH   6  15
ATOM     14  O   UNL     1     114.098 128.819 134.612  0.00  0.00    +0.000 OA
ATOM     15  C   UNL     1     113.125 128.867 136.565  0.00  0.00    +0.000 A 
ATOM     16  C   UNL     1     113.313 128.644 135.793  0.00  0.00    +0.000 A 
ATOM     17  C   UNL     1     113.534 129.485 136.928  0.00  0.00    +0.000 A 
ATOM     18  C   UNL     1     113.910 129.041 135.384  0.00  0.00    +0.000 A 
ATOM     19  C   UNL     1     114.130 129.880 136.519  0.00  0.00    +0.000 A 
ATOM     20  C   UNL     1     114.319 129.659 135.747  0.00  0.00    +0.000 A 
BRANCH  20  21
ATOM     21  O   UNL     1     114.916 130.054 135.338  0.00  0.00    +0.000 OA
ATOM     22  C   UNL     1     115.329 130.669 135.702  0.00  0.00    +0.000 C 
ENDBRANCH  20  21
ENDBRANCH   6  15
BRANCH   5  23
ATOM     23  O   UNL     1     111.662 129.594 136.798  0.00  0.00    +0.000 OA
BRANCH  23  32
ATOM     24  O   UNL     1     110.860 129.143 135.705  0.00  0.00    +0.000 OA
ATOM     25  O   UNL     1     109.626 131.288 135.726  0.00  0.00    +0.000 OA
ATOM     26  O   UNL     1     109.234 130.122 134.626  0.00  0.00    +0.000 OA
ATOM     27  O   UNL     1     110.840 131.024 136.812  0.00  0.00    +0.000 OA
ATOM     28  C   UNL     1     110.037 130.573 135.719  0.00  0.00    +0.000 C 
ATOM     29  C   UNL     1     109.842 129.989 135.170  0.00  0.00    +0.000 C 
ATOM     30  C   UNL     1     110.644 130.441 136.261  0.00  0.00    +0.000 C 
ATOM     31  C   UNL     1     110.253 129.274 135.163  0.00  0.00    +0.000 C 
ATOM     32  C   UNL     1     111.055 129.725 136.255  0.00  0.00    +0.000 C 
ATOM     33  C   UNL     1     110.057 128.691 134.613  0.00  0.00    +0.000 C 
ENDBRANCH  23  32
ENDBRANCH   5  23
BRANCH  10  34
ATOM     34  C   UNL     1     112.950 126.168 137.854  0.00  0.00    +0.000 C 
BRANCH  34  35
ATOM     35  C   UNL     1     113.014 125.508 137.362  0.00  0.00    +0.000 C 
ATOM     36  C   UNL     1     113.750 125.158 137.234  0.00  0.00    +0.000 C 
ATOM     37  C   UNL     1     113.813 124.499 136.742  0.00  0.00    +0.000 C 
ATOM     38  C   UNL     1     114.423 125.467 137.598  0.00  0.00    +0.000 C 
ENDBRANCH  34  35
ENDBRANCH  10  34
TORSDOF 6
ENDMDL
MODEL 7
REMARK VINA RESULT:      -9.2      2.319      4.918
REMARK  Name = 44259411
REMARK  6 active torsions:
REMARK  status: ('A' for Active; 'I' for Inactive)
REMARK    1  A    between atoms: O_2  and  C_16
REMARK    2  A    between atoms: O_2  and  C_18
REMARK    3  A    between atoms: O_10  and  C_34
REMARK    4  A    between atoms: C_19  and  C_24
REMARK    5  A    between atoms: C_23  and  C_26
REMARK    6  A    between atoms: C_26  and  C_31
REMARK                            x       y       z     vdW  Elec       q    Type
REMARK                         _______ _______ _______ _____ _____    ______ ____
ROOT
ATOM      1  O   UNL     1     112.967 128.198 136.975  0.00  0.00    +0.000 OA
ATOM      2  O   UNL     1     111.759 128.534 139.108  0.00  0.00    +0.000 OA
ATOM      3  O   UNL     1     111.754 129.964 138.913  0.00  0.00    +0.000 OA
ATOM      4  O   UNL     1     112.995 131.073 136.513  0.00  0.00    +0.000 OA
ATOM      5  C   UNL     1     112.359 127.660 138.150  0.00  0.00    +0.000 A 
ATOM      6  C   UNL     1     112.762 127.548 137.439  0.00  0.00    +0.000 A 
ATOM      7  C   UNL     1     112.162 128.423 138.397  0.00  0.00    +0.000 A 
ATOM      8  C   UNL     1     112.368 129.073 137.933  0.00  0.00    +0.000 A 
ATOM      9  C   UNL     1     112.771 128.960 137.221  0.00  0.00    +0.000 A 
ATOM     10  C   UNL     1     112.990 129.628 136.729  0.00  0.00    +0.000 A 
ATOM     11  C   UNL     1     112.157 129.861 138.200  0.00  0.00    +0.000 A 
ATOM     12  C   UNL     1     112.788 130.425 136.980  0.00  0.00    +0.000 A 
ATOM     13  C   UNL     1     112.369 130.542 137.721  0.00  0.00    +0.000 A 
ENDROOT
BRANCH   6  15
ATOM     14  O   UNL     1     114.709 125.485 137.091  0.00  0.00    +0.000 OA
ATOM     15  C   UNL     1     112.959 126.785 137.193  0.00  0.00    +0.000 A 
ATOM     16  C   UNL     1     113.735 126.517 137.265  0.00  0.00    +0.000 A 
ATOM     17  C   UNL     1     112.379 126.292 136.874  0.00  0.00    +0.000 A 
ATOM     18  C   UNL     1     113.932 125.754 137.018  0.00  0.00    +0.000 A 
ATOM     19  C   UNL     1     112.576 125.530 136.628  0.00  0.00    +0.000 A 
ATOM     20  C   UNL     1     113.353 125.260 136.700  0.00  0.00    +0.000 A 
BRANCH  20  21
ATOM     21  O   UNL     1     113.550 124.499 136.454  0.00  0.00    +0.000 OA
ATOM     22  C   UNL     1     112.979 123.902 136.459  0.00  0.00    +0.000 C 
ENDBRANCH  20  21
ENDBRANCH   6  15
BRANCH   5  23
ATOM     23  O   UNL     1     112.153 127.010 138.615  0.00  0.00    +0.000 OA
BRANCH  23  32
ATOM     24  O   UNL     1     113.167 127.255 139.592  0.00  0.00    +0.000 OA
ATOM     25  O   UNL     1     111.754 126.196 141.325  0.00  0.00    +0.000 OA
ATOM     26  O   UNL     1     113.239 126.795 141.724  0.00  0.00    +0.000 OA
ATOM     27  O   UNL     1     111.211 126.304 139.771  0.00  0.00    +0.000 OA
ATOM     28  C   UNL     1     112.225 126.549 140.747  0.00  0.00    +0.000 C 
ATOM     29  C   UNL     1     112.967 126.848 140.946  0.00  0.00    +0.000 C 
ATOM     30  C   UNL     1     111.954 126.603 139.970  0.00  0.00    +0.000 C 
ATOM     31  C   UNL     1     113.439 127.202 140.368  0.00  0.00    +0.000 C 
ATOM     32  C   UNL     1     112.425 126.956 139.392  0.00  0.00    +0.000 C 
ATOM     33  C   UNL     1     114.181 127.501 140.568  0.00  0.00    +0.000 C 
ENDBRANCH  23  32
ENDBRANCH   5  23
BRANCH  10  34
ATOM     34  C   UNL     1     113.393 129.507 136.019  0.00  0.00    +0.000 C 
BRANCH  34  35
ATOM     35  C   UNL     1     114.145 129.829 135.910  0.00  0.00    +0.000 C 
ATOM     36  C   UNL     1     114.557 129.688 135.209  0.00  0.00    +0.000 C 
ATOM     37  C   UNL     1     115.309 130.009 135.100  0.00  0.00    +0.000 C 
ATOM     38  C   UNL     1     114.216 129.225 134.616  0.00  0.00    +0.000 C 
ENDBRANCH  34  35
ENDBRANCH  10  34
TORSDOF 6
ENDMDL
MODEL 8
REMARK VINA RESULT:      -9.1      2.200      4.478
REMARK  Name = 44259411
REMARK  6 active torsions:
REMARK  status: ('A' for Active; 'I' for Inactive)
REMARK    1  A    between atoms: O_2  and  C_16
REMARK    2  A    between atoms: O_2  and  C_18
REMARK    3  A    between atoms: O_10  and  C_34
REMARK    4  A    between atoms: C_19  and  C_24
REMARK    5  A    between atoms: C_23  and  C_26
REMARK    6  A    between atoms: C_26  and  C_31
REMARK                            x       y       z     vdW  Elec       q    Type
REMARK                         _______ _______ _______ _____ _____    ______ ____
ROOT
ATOM      1  O   UNL     1     112.925 128.331 138.552  0.00  0.00    +0.000 OA
ATOM      2  O   UNL     1     111.917 126.078 138.742  0.00  0.00    +0.000 OA
ATOM      3  O   UNL     1     112.004 126.130 140.181  0.00  0.00    +0.000 OA
ATOM      4  O   UNL     1     113.131 128.505 141.452  0.00  0.00    +0.000 OA
ATOM      5  C   UNL     1     112.373 127.166 137.935  0.00  0.00    +0.000 A 
ATOM      6  C   UNL     1     112.709 127.917 137.872  0.00  0.00    +0.000 A 
ATOM      7  C   UNL     1     112.253 126.829 138.679  0.00  0.00    +0.000 A 
ATOM      8  C   UNL     1     112.470 127.243 139.359  0.00  0.00    +0.000 A 
ATOM      9  C   UNL     1     112.806 127.994 139.295  0.00  0.00    +0.000 A 
ATOM     10  C   UNL     1     113.036 128.435 139.995  0.00  0.00    +0.000 A 
ATOM     11  C   UNL     1     112.341 126.882 140.127  0.00  0.00    +0.000 A 
ATOM     12  C   UNL     1     112.914 128.089 140.773  0.00  0.00    +0.000 A 
ATOM     13  C   UNL     1     112.564 127.307 140.839  0.00  0.00    +0.000 A 
ENDROOT
BRANCH   6  15
ATOM     14  O   UNL     1     111.679 129.264 135.571  0.00  0.00    +0.000 OA
ATOM     15  C   UNL     1     112.828 128.254 137.128  0.00  0.00    +0.000 A 
ATOM     16  C   UNL     1     112.194 128.591 136.722  0.00  0.00    +0.000 A 
ATOM     17  C   UNL     1     113.581 128.254 136.791  0.00  0.00    +0.000 A 
ATOM     18  C   UNL     1     112.313 128.928 135.977  0.00  0.00    +0.000 A 
ATOM     19  C   UNL     1     113.700 128.590 136.048  0.00  0.00    +0.000 A 
ATOM     20  C   UNL     1     113.066 128.928 135.640  0.00  0.00    +0.000 A 
BRANCH  20  21
ATOM     21  O   UNL     1     113.185 129.264 134.897  0.00  0.00    +0.000 OA
ATOM     22  C   UNL     1     113.952 129.388 134.617  0.00  0.00    +0.000 C 
ENDBRANCH  20  21
ENDBRANCH   6  15
BRANCH   5  23
ATOM     23  O   UNL     1     112.156 126.752 137.255  0.00  0.00    +0.000 OA
BRANCH  23  32
ATOM     24  O   UNL     1     113.257 125.843 137.315  0.00  0.00    +0.000 OA
ATOM     25  O   UNL     1     111.870 124.093 136.247  0.00  0.00    +0.000 OA
ATOM     26  O   UNL     1     113.433 123.767 136.664  0.00  0.00    +0.000 OA
ATOM     27  O   UNL     1     111.232 125.586 136.542  0.00  0.00    +0.000 OA
ATOM     28  C   UNL     1     112.332 124.676 136.603  0.00  0.00    +0.000 C 
ATOM     29  C   UNL     1     113.114 124.514 136.812  0.00  0.00    +0.000 C 
ATOM     30  C   UNL     1     112.014 125.423 136.751  0.00  0.00    +0.000 C 
ATOM     31  C   UNL     1     113.576 125.097 137.168  0.00  0.00    +0.000 C 
ATOM     32  C   UNL     1     112.476 126.006 137.107  0.00  0.00    +0.000 C 
ATOM     33  C   UNL     1     114.357 124.933 137.376  0.00  0.00    +0.000 C 
ENDBRANCH  23  32
ENDBRANCH   5  23
BRANCH  10  34
ATOM     34  C   UNL     1     113.371 129.185 139.923  0.00  0.00    +0.000 C 
BRANCH  34  35
ATOM     35  C   UNL     1     114.118 129.336 140.239  0.00  0.00    +0.000 C 
ATOM     36  C   UNL     1     114.480 130.067 140.112  0.00  0.00    +0.000 C 
ATOM     37  C   UNL     1     115.227 130.218 140.427  0.00  0.00    +0.000 C 
ATOM     38  C   UNL     1     114.094 130.647 139.670  0.00  0.00    +0.000 C 
ENDBRANCH  34  35
ENDBRANCH  10  34
TORSDOF 6
ENDMDL
MODEL 9
REMARK VINA RESULT:      -9.1      2.585      3.231
REMARK  Name = 44259411
REMARK  6 active torsions:
REMARK  status: ('A' for Active; 'I' for Inactive)
REMARK    1  A    between atoms: O_2  and  C_16
REMARK    2  A    between atoms: O_2  and  C_18
REMARK    3  A    between atoms: O_10  and  C_34
REMARK    4  A    between atoms: C_19  and  C_24
REMARK    5  A    between atoms: C_23  and  C_26
REMARK    6  A    between atoms: C_26  and  C_31
REMARK                            x       y       z     vdW  Elec       q    Type
REMARK                         _______ _______ _______ _____ _____    ______ ____
ROOT
ATOM      1  O   UNL     1     112.507 126.299 138.215  0.00  0.00    +0.000 OA
ATOM      2  O   UNL     1     110.144 126.993 137.970  0.00  0.00    +0.000 OA
ATOM      3  O   UNL     1     109.927 125.996 136.949  0.00  0.00    +0.000 OA
ATOM      4  O   UNL     1     112.144 124.265 136.162  0.00  0.00    +0.000 OA
ATOM      5  C   UNL     1     111.419 127.144 138.596  0.00  0.00    +0.000 A 
ATOM      6  C   UNL     1     112.207 126.912 138.678  0.00  0.00    +0.000 A 
ATOM      7  C   UNL     1     110.931 126.761 138.051  0.00  0.00    +0.000 A 
ATOM      8  C   UNL     1     111.231 126.148 137.588  0.00  0.00    +0.000 A 
ATOM      9  C   UNL     1     112.020 125.917 137.670  0.00  0.00    +0.000 A 
ATOM     10  C   UNL     1     112.344 125.280 137.194  0.00  0.00    +0.000 A 
ATOM     11  C   UNL     1     110.714 125.758 137.024  0.00  0.00    +0.000 A 
ATOM     12  C   UNL     1     111.841 124.878 136.624  0.00  0.00    +0.000 A 
ATOM     13  C   UNL     1     111.021 125.119 136.539  0.00  0.00    +0.000 A 
ENDROOT
BRANCH   6  15
ATOM     14  O   UNL     1     113.581 126.929 141.183  0.00  0.00    +0.000 OA
ATOM     15  C   UNL     1     112.694 127.295 139.223  0.00  0.00    +0.000 A 
ATOM     16  C   UNL     1     112.894 126.921 139.931  0.00  0.00    +0.000 A 
ATOM     17  C   UNL     1     112.982 128.051 139.060  0.00  0.00    +0.000 A 
ATOM     18  C   UNL     1     113.382 127.303 140.476  0.00  0.00    +0.000 A 
ATOM     19  C   UNL     1     113.469 128.433 139.605  0.00  0.00    +0.000 A 
ATOM     20  C   UNL     1     113.669 128.059 140.313  0.00  0.00    +0.000 A 
BRANCH  20  21
ATOM     21  O   UNL     1     114.156 128.441 140.858  0.00  0.00    +0.000 OA
ATOM     22  C   UNL     1     114.407 129.215 140.717  0.00  0.00    +0.000 C 
ENDBRANCH  20  21
ENDBRANCH   6  15
BRANCH   5  23
ATOM     23  O   UNL     1     111.119 127.757 139.059  0.00  0.00    +0.000 OA
BRANCH  23  32
ATOM     24  O   UNL     1     110.383 126.892 139.926  0.00  0.00    +0.000 OA
ATOM     25  O   UNL     1     108.709 128.679 140.289  0.00  0.00    +0.000 OA
ATOM     26  O   UNL     1     108.531 127.218 141.035  0.00  0.00    +0.000 OA
ATOM     27  O   UNL     1     110.003 128.948 139.302  0.00  0.00    +0.000 OA
ATOM     28  C   UNL     1     109.267 128.083 140.168  0.00  0.00    +0.000 C 
ATOM     29  C   UNL     1     109.179 127.353 140.541  0.00  0.00    +0.000 C 
ATOM     30  C   UNL     1     109.914 128.217 139.675  0.00  0.00    +0.000 C 
ATOM     31  C   UNL     1     109.737 126.757 140.420  0.00  0.00    +0.000 C 
ATOM     32  C   UNL     1     110.472 127.622 139.554  0.00  0.00    +0.000 C 
ATOM     33  C   UNL     1     109.647 126.026 140.793  0.00  0.00    +0.000 C 
ENDBRANCH  23  32
ENDBRANCH   5  23
BRANCH  10  34
ATOM     34  C   UNL     1     113.133 125.055 137.282  0.00  0.00    +0.000 C 
BRANCH  34  35
ATOM     35  C   UNL     1     113.682 125.232 136.692  0.00  0.00    +0.000 C 
ATOM     36  C   UNL     1     114.478 125.046 136.800  0.00  0.00    +0.000 C 
ATOM     37  C   UNL     1     115.027 125.223 136.210  0.00  0.00    +0.000 C 
ATOM     38  C   UNL     1     114.726 124.683 137.498  0.00  0.00    +0.000 C 
ENDBRANCH  34  35
ENDBRANCH  10  34
TORSDOF 6
ENDMDL
MODEL 10
REMARK VINA RESULT:      -9.0      2.264      4.987
REMARK  Name = 44259411
REMARK  6 active torsions:
REMARK  status: ('A' for Active; 'I' for Inactive)
REMARK    1  A    between atoms: O_2  and  C_16
REMARK    2  A    between atoms: O_2  and  C_18
REMARK    3  A    between atoms: O_10  and  C_34
REMARK    4  A    between atoms: C_19  and  C_24
REMARK    5  A    between atoms: C_23  and  C_26
REMARK    6  A    between atoms: C_26  and  C_31
REMARK                            x       y       z     vdW  Elec       q    Type
REMARK                         _______ _______ _______ _____ _____    ______ ____
ROOT
ATOM      1  O   UNL     1     112.482 128.310 138.539  0.00  0.00    +0.000 OA
ATOM      2  O   UNL     1     112.435 127.175 136.340  0.00  0.00    +0.000 OA
ATOM      3  O   UNL     1     113.199 128.242 135.741  0.00  0.00    +0.000 OA
ATOM      4  O   UNL     1     114.026 130.500 137.398  0.00  0.00    +0.000 OA
ATOM      5  C   UNL     1     112.079 127.207 137.724  0.00  0.00    +0.000 A 
ATOM      6  C   UNL     1     112.095 127.586 138.456  0.00  0.00    +0.000 A 
ATOM      7  C   UNL     1     112.451 127.553 137.073  0.00  0.00    +0.000 A 
ATOM      8  C   UNL     1     112.837 128.277 137.155  0.00  0.00    +0.000 A 
ATOM      9  C   UNL     1     112.853 128.655 137.889  0.00  0.00    +0.000 A 
ATOM     10  C   UNL     1     113.252 129.410 137.987  0.00  0.00    +0.000 A 
ATOM     11  C   UNL     1     113.220 128.627 136.471  0.00  0.00    +0.000 A 
ATOM     12  C   UNL     1     113.640 129.775 137.313  0.00  0.00    +0.000 A 
ATOM     13  C   UNL     1     113.624 129.381 136.550  0.00  0.00    +0.000 A 
ENDROOT
BRANCH   6  15
ATOM     14  O   UNL     1     112.258 126.192 140.946  0.00  0.00    +0.000 OA
ATOM     15  C   UNL     1     111.724 127.239 139.108  0.00  0.00    +0.000 A 
ATOM     16  C   UNL     1     112.177 126.889 139.701  0.00  0.00    +0.000 A 
ATOM     17  C   UNL     1     110.901 127.244 139.164  0.00  0.00    +0.000 A 
ATOM     18  C   UNL     1     111.805 126.543 140.353  0.00  0.00    +0.000 A 
ATOM     19  C   UNL     1     110.531 126.898 139.814  0.00  0.00    +0.000 A 
ATOM     20  C   UNL     1     110.982 126.547 140.409  0.00  0.00    +0.000 A 
BRANCH  20  21
ATOM     21  O   UNL     1     110.612 126.201 141.059  0.00  0.00    +0.000 OA
ATOM     22  C   UNL     1     109.788 126.176 141.101  0.00  0.00    +0.000 C 
ENDBRANCH  20  21
ENDBRANCH   6  15
BRANCH   5  23
ATOM     23  O   UNL     1     111.693 126.483 137.642  0.00  0.00    +0.000 OA
BRANCH  23  32
ATOM     24  O   UNL     1     112.906 125.730 137.585  0.00  0.00    +0.000 OA
ATOM     25  O   UNL     1     111.773 124.005 136.220  0.00  0.00    +0.000 OA
ATOM     26  O   UNL     1     113.364 123.828 136.618  0.00  0.00    +0.000 OA
ATOM     27  O   UNL     1     110.937 125.332 136.732  0.00  0.00    +0.000 OA
ATOM     28  C   UNL     1     112.151 124.580 136.675  0.00  0.00    +0.000 C 
ATOM     29  C   UNL     1     112.946 124.492 136.874  0.00  0.00    +0.000 C 
ATOM     30  C   UNL     1     111.733 125.244 136.931  0.00  0.00    +0.000 C 
ATOM     31  C   UNL     1     113.324 125.067 137.329  0.00  0.00    +0.000 C 
ATOM     32  C   UNL     1     112.111 125.819 137.386  0.00  0.00    +0.000 C 
ATOM     33  C   UNL     1     114.120 124.978 137.528  0.00  0.00    +0.000 C 
ENDBRANCH  23  32
ENDBRANCH   5  23
BRANCH  10  34
ATOM     34  C   UNL     1     113.263 129.781 138.724  0.00  0.00    +0.000 C 
BRANCH  34  35
ATOM     35  C   UNL     1     113.978 129.893 139.120  0.00  0.00    +0.000 C 
ATOM     36  C   UNL     1     113.982 130.201 139.885  0.00  0.00    +0.000 C 
ATOM     37  C   UNL     1     114.697 130.313 140.281  0.00  0.00    +0.000 C 
ATOM     38  C   UNL     1     113.270 130.398 140.254  0.00  0.00    +0.000 C 
ENDBRANCH  34  35
ENDBRANCH  10  34
TORSDOF 6
ENDMDL
