MODEL 1
REMARK VINA RESULT:      -9.8      0.000      0.000
REMARK  Name = 131750802
REMARK  5 active torsions:
REMARK  status: ('A' for Active; 'I' for Inactive)
REMARK    1  A    between atoms: O_2  and  C_15
REMARK    2  A    between atoms: O_2  and  C_22
REMARK    3  A    between atoms: C_16  and  C_25
REMARK    4  A    between atoms: C_18  and  C_23
REMARK    5  A    between atoms: C_30  and  C_33
REMARK                            x       y       z     vdW  Elec       q    Type
REMARK                         _______ _______ _______ _____ _____    ______ ____
ROOT
ATOM      1  O   UNL     1     104.947 127.629 142.335  0.00  0.00    +0.000 OA
ATOM      2  O   UNL     1     105.841 129.523 141.720  0.00  0.00    +0.000 OA
ATOM      3  O   UNL     1     107.821 127.440 142.561  0.00  0.00    +0.000 OA
ATOM      4  C   UNL     1     105.767 128.746 141.989  0.00  0.00    +0.000 C 
ATOM      5  C   UNL     1     105.020 128.406 142.067  0.00  0.00    +0.000 C 
ATOM      6  C   UNL     1     106.442 128.311 142.179  0.00  0.00    +0.000 C 
ATOM      7  C   UNL     1     106.369 127.535 142.447  0.00  0.00    +0.000 A 
ATOM      8  C   UNL     1     105.621 127.193 142.526  0.00  0.00    +0.000 A 
ATOM      9  C   UNL     1     106.231 125.927 143.004  0.00  0.00    +0.000 A 
ATOM     10  C   UNL     1     105.532 126.385 142.804  0.00  0.00    +0.000 A 
ATOM     11  C   UNL     1     107.078 127.091 142.643  0.00  0.00    +0.000 A 
ATOM     12  C   UNL     1     107.009 126.281 142.923  0.00  0.00    +0.000 A 
ENDROOT
BRANCH   5  14
ATOM     13  O   UNL     1     102.933 129.058 140.227  0.00  0.00    +0.000 OA
ATOM     14  C   UNL     1     104.346 128.842 141.877  0.00  0.00    +0.000 A 
ATOM     15  C   UNL     1     103.976 128.732 141.147  0.00  0.00    +0.000 A 
ATOM     16  C   UNL     1     104.042 129.387 142.415  0.00  0.00    +0.000 A 
ATOM     17  C   UNL     1     102.998 129.713 141.495  0.00  0.00    +0.000 A 
ATOM     18  C   UNL     1     103.303 129.167 140.956  0.00  0.00    +0.000 A 
ATOM     19  C   UNL     1     103.368 129.823 142.225  0.00  0.00    +0.000 A 
BRANCH  17  20
ATOM     20  C   UNL     1     102.324 130.149 141.305  0.00  0.00    +0.000 C 
ATOM     21  C   UNL     1     102.160 130.852 141.704  0.00  0.00    +0.000 C 
ENDBRANCH  17  20
ENDBRANCH   5  14
BRANCH   9  22
ATOM     22  O   UNL     1     106.155 125.150 143.272  0.00  0.00    +0.000 OA
BRANCH  22  30
ATOM     23  O   UNL     1     106.362 125.402 144.663  0.00  0.00    +0.000 OA
ATOM     24  O   UNL     1     104.593 123.764 145.223  0.00  0.00    +0.000 OA
ATOM     25  O   UNL     1     104.975 124.059 143.645  0.00  0.00    +0.000 OA
ATOM     26  O   UNL     1     105.390 124.561 146.427  0.00  0.00    +0.000 OA
ATOM     27  C   UNL     1     105.183 124.310 145.037  0.00  0.00    +0.000 C 
ATOM     28  C   UNL     1     105.373 124.457 144.247  0.00  0.00    +0.000 C 
ATOM     29  C   UNL     1     105.581 124.708 145.639  0.00  0.00    +0.000 C 
ATOM     30  C   UNL     1     105.963 125.003 144.061  0.00  0.00    +0.000 C 
ATOM     31  C   UNL     1     106.171 125.254 145.452  0.00  0.00    +0.000 C 
BRANCH  31  34
ATOM     32  O   UNL     1     107.269 125.340 146.363  0.00  0.00    +0.000 OA
ATOM     33  O   UNL     1     106.271 126.364 146.347  0.00  0.00    +0.000 OA
ATOM     34  C   UNL     1     106.570 125.653 146.054  0.00  0.00    +0.000 C 
ENDBRANCH  31  34
ENDBRANCH  22  30
ENDBRANCH   9  22
TORSDOF 5
ENDMDL
MODEL 2
REMARK VINA RESULT:      -9.7      3.714      5.329
REMARK  Name = 131750802
REMARK  5 active torsions:
REMARK  status: ('A' for Active; 'I' for Inactive)
REMARK    1  A    between atoms: O_2  and  C_15
REMARK    2  A    between atoms: O_2  and  C_22
REMARK    3  A    between atoms: C_16  and  C_25
REMARK    4  A    between atoms: C_18  and  C_23
REMARK    5  A    between atoms: C_30  and  C_33
REMARK                            x       y       z     vdW  Elec       q    Type
REMARK                         _______ _______ _______ _____ _____    ______ ____
ROOT
ATOM      1  O   UNL     1     105.072 124.462 139.635  0.00  0.00    +0.000 OA
ATOM      2  O   UNL     1     103.838 122.747 140.184  0.00  0.00    +0.000 OA
ATOM      3  O   UNL     1     105.603 123.751 142.385  0.00  0.00    +0.000 OA
ATOM      4  C   UNL     1     104.384 123.363 140.236  0.00  0.00    +0.000 C 
ATOM      5  C   UNL     1     104.525 123.846 139.583  0.00  0.00    +0.000 C 
ATOM      6  C   UNL     1     104.789 123.495 140.943  0.00  0.00    +0.000 C 
ATOM      7  C   UNL     1     105.335 124.111 140.995  0.00  0.00    +0.000 A 
ATOM      8  C   UNL     1     105.477 124.595 140.342  0.00  0.00    +0.000 A 
ATOM      9  C   UNL     1     106.468 125.382 141.117  0.00  0.00    +0.000 A 
ATOM     10  C   UNL     1     106.043 125.239 140.384  0.00  0.00    +0.000 A 
ATOM     11  C   UNL     1     105.751 124.239 141.736  0.00  0.00    +0.000 A 
ATOM     12  C   UNL     1     106.321 124.879 141.798  0.00  0.00    +0.000 A 
ENDROOT
BRANCH   5  14
ATOM     13  O   UNL     1     102.138 124.045 138.025  0.00  0.00    +0.000 OA
ATOM     14  C   UNL     1     104.120 123.713 138.876  0.00  0.00    +0.000 A 
ATOM     15  C   UNL     1     103.332 123.945 138.803  0.00  0.00    +0.000 A 
ATOM     16  C   UNL     1     104.503 123.348 138.243  0.00  0.00    +0.000 A 
ATOM     17  C   UNL     1     103.309 123.448 137.465  0.00  0.00    +0.000 A 
ATOM     18  C   UNL     1     102.926 123.813 138.098  0.00  0.00    +0.000 A 
ATOM     19  C   UNL     1     104.098 123.216 137.537  0.00  0.00    +0.000 A 
BRANCH  17  20
ATOM     20  C   UNL     1     102.904 123.315 136.758  0.00  0.00    +0.000 C 
ATOM     21  C   UNL     1     103.274 122.917 136.138  0.00  0.00    +0.000 C 
ENDBRANCH  17  20
ENDBRANCH   5  14
BRANCH   9  22
ATOM     22  O   UNL     1     107.014 125.998 141.167  0.00  0.00    +0.000 OA
BRANCH  22  30
ATOM     23  O   UNL     1     106.133 127.060 141.541  0.00  0.00    +0.000 OA
ATOM     24  O   UNL     1     107.784 127.842 143.211  0.00  0.00    +0.000 OA
ATOM     25  O   UNL     1     108.115 126.520 142.281  0.00  0.00    +0.000 OA
ATOM     26  O   UNL     1     106.353 128.642 143.027  0.00  0.00    +0.000 OA
ATOM     27  C   UNL     1     107.234 127.581 142.654  0.00  0.00    +0.000 C 
ATOM     28  C   UNL     1     107.400 126.920 142.189  0.00  0.00    +0.000 C 
ATOM     29  C   UNL     1     106.519 127.981 142.563  0.00  0.00    +0.000 C 
ATOM     30  C   UNL     1     106.849 126.659 141.633  0.00  0.00    +0.000 C 
ATOM     31  C   UNL     1     105.968 127.720 142.006  0.00  0.00    +0.000 C 
BRANCH  31  34
ATOM     32  O   UNL     1     104.609 127.929 142.394  0.00  0.00    +0.000 OA
ATOM     33  O   UNL     1     105.180 128.711 141.342  0.00  0.00    +0.000 OA
ATOM     34  C   UNL     1     105.253 128.120 141.914  0.00  0.00    +0.000 C 
ENDBRANCH  31  34
ENDBRANCH  22  30
ENDBRANCH   9  22
TORSDOF 5
ENDMDL
MODEL 3
REMARK VINA RESULT:      -9.7      3.346      4.443
REMARK  Name = 131750802
REMARK  5 active torsions:
REMARK  status: ('A' for Active; 'I' for Inactive)
REMARK    1  A    between atoms: O_2  and  C_15
REMARK    2  A    between atoms: O_2  and  C_22
REMARK    3  A    between atoms: C_16  and  C_25
REMARK    4  A    between atoms: C_18  and  C_23
REMARK    5  A    between atoms: C_30  and  C_33
REMARK                            x       y       z     vdW  Elec       q    Type
REMARK                         _______ _______ _______ _____ _____    ______ ____
ROOT
ATOM      1  O   UNL     1     105.159 124.635 140.448  0.00  0.00    +0.000 OA
ATOM      2  O   UNL     1     105.610 122.739 139.465  0.00  0.00    +0.000 OA
ATOM      3  O   UNL     1     107.751 123.706 141.322  0.00  0.00    +0.000 OA
ATOM      4  C   UNL     1     105.686 123.406 139.945  0.00  0.00    +0.000 C 
ATOM      5  C   UNL     1     105.083 123.968 139.968  0.00  0.00    +0.000 C 
ATOM      6  C   UNL     1     106.365 123.510 140.401  0.00  0.00    +0.000 C 
ATOM      7  C   UNL     1     106.441 124.176 140.881  0.00  0.00    +0.000 A 
ATOM      8  C   UNL     1     105.838 124.739 140.905  0.00  0.00    +0.000 A 
ATOM      9  C   UNL     1     106.611 125.552 141.878  0.00  0.00    +0.000 A 
ATOM     10  C   UNL     1     105.906 125.438 141.400  0.00  0.00    +0.000 A 
ATOM     11  C   UNL     1     107.154 124.274 141.352  0.00  0.00    +0.000 A 
ATOM     12  C   UNL     1     107.239 124.966 141.853  0.00  0.00    +0.000 A 
ENDROOT
BRANCH   5  14
ATOM     13  O   UNL     1     102.378 123.079 139.724  0.00  0.00    +0.000 OA
ATOM     14  C   UNL     1     104.404 123.864 139.512  0.00  0.00    +0.000 A 
ATOM     15  C   UNL     1     103.730 123.524 139.846  0.00  0.00    +0.000 A 
ATOM     16  C   UNL     1     104.398 124.099 138.721  0.00  0.00    +0.000 A 
ATOM     17  C   UNL     1     103.045 123.655 138.600  0.00  0.00    +0.000 A 
ATOM     18  C   UNL     1     103.051 123.419 139.390  0.00  0.00    +0.000 A 
ATOM     19  C   UNL     1     103.718 123.995 138.265  0.00  0.00    +0.000 A 
BRANCH  17  20
ATOM     20  C   UNL     1     102.366 123.550 138.143  0.00  0.00    +0.000 C 
ATOM     21  C   UNL     1     102.417 123.549 137.320  0.00  0.00    +0.000 C 
ENDBRANCH  17  20
ENDBRANCH   5  14
BRANCH   9  22
ATOM     22  O   UNL     1     106.685 126.219 142.357  0.00  0.00    +0.000 OA
BRANCH  22  30
ATOM     23  O   UNL     1     106.252 125.563 143.550  0.00  0.00    +0.000 OA
ATOM     24  O   UNL     1     105.282 127.687 144.368  0.00  0.00    +0.000 OA
ATOM     25  O   UNL     1     106.038 127.636 142.902  0.00  0.00    +0.000 OA
ATOM     26  O   UNL     1     105.173 126.323 145.287  0.00  0.00    +0.000 OA
ATOM     27  C   UNL     1     105.605 126.979 144.095  0.00  0.00    +0.000 C 
ATOM     28  C   UNL     1     105.983 126.954 143.362  0.00  0.00    +0.000 C 
ATOM     29  C   UNL     1     105.551 126.297 144.555  0.00  0.00    +0.000 C 
ATOM     30  C   UNL     1     106.307 126.246 143.089  0.00  0.00    +0.000 C 
ATOM     31  C   UNL     1     105.874 125.589 144.282  0.00  0.00    +0.000 C 
BRANCH  31  34
ATOM     32  O   UNL     1     106.443 124.696 145.242  0.00  0.00    +0.000 OA
ATOM     33  O   UNL     1     105.145 124.434 144.702  0.00  0.00    +0.000 OA
ATOM     34  C   UNL     1     105.820 124.906 144.742  0.00  0.00    +0.000 C 
ENDBRANCH  31  34
ENDBRANCH  22  30
ENDBRANCH   9  22
TORSDOF 5
ENDMDL
MODEL 4
REMARK VINA RESULT:      -9.6      2.588      5.773
REMARK  Name = 131750802
REMARK  5 active torsions:
REMARK  status: ('A' for Active; 'I' for Inactive)
REMARK    1  A    between atoms: O_2  and  C_15
REMARK    2  A    between atoms: O_2  and  C_22
REMARK    3  A    between atoms: C_16  and  C_25
REMARK    4  A    between atoms: C_18  and  C_23
REMARK    5  A    between atoms: C_30  and  C_33
REMARK                            x       y       z     vdW  Elec       q    Type
REMARK                         _______ _______ _______ _____ _____    ______ ____
ROOT
ATOM      1  O   UNL     1     106.457 125.851 145.822  0.00  0.00    +0.000 OA
ATOM      2  O   UNL     1     106.737 127.412 147.322  0.00  0.00    +0.000 OA
ATOM      3  O   UNL     1     105.649 128.392 144.710  0.00  0.00    +0.000 OA
ATOM      4  C   UNL     1     106.545 127.039 146.612  0.00  0.00    +0.000 C 
ATOM      5  C   UNL     1     106.649 126.224 146.532  0.00  0.00    +0.000 C 
ATOM      6  C   UNL     1     106.249 127.481 145.982  0.00  0.00    +0.000 C 
ATOM      7  C   UNL     1     106.057 127.108 145.271  0.00  0.00    +0.000 A 
ATOM      8  C   UNL     1     106.161 126.293 145.191  0.00  0.00    +0.000 A 
ATOM      9  C   UNL     1     105.656 126.348 143.796  0.00  0.00    +0.000 A 
ATOM     10  C   UNL     1     105.965 125.893 144.457  0.00  0.00    +0.000 A 
ATOM     11  C   UNL     1     105.749 127.578 144.621  0.00  0.00    +0.000 A 
ATOM     12  C   UNL     1     105.548 127.196 143.879  0.00  0.00    +0.000 A 
ENDROOT
BRANCH   5  14
ATOM     13  O   UNL     1     108.847 124.968 147.858  0.00  0.00    +0.000 OA
ATOM     14  C   UNL     1     106.945 125.783 147.163  0.00  0.00    +0.000 A 
ATOM     15  C   UNL     1     107.748 125.596 147.195  0.00  0.00    +0.000 A 
ATOM     16  C   UNL     1     106.438 125.528 147.763  0.00  0.00    +0.000 A 
ATOM     17  C   UNL     1     107.538 124.900 148.425  0.00  0.00    +0.000 A 
ATOM     18  C   UNL     1     108.044 125.155 147.826  0.00  0.00    +0.000 A 
ATOM     19  C   UNL     1     106.734 125.087 148.394  0.00  0.00    +0.000 A 
BRANCH  17  20
ATOM     20  C   UNL     1     107.834 124.459 149.056  0.00  0.00    +0.000 C 
ATOM     21  C   UNL     1     107.317 124.135 149.612  0.00  0.00    +0.000 C 
ENDBRANCH  17  20
ENDBRANCH   5  14
BRANCH   9  22
ATOM     22  O   UNL     1     105.465 125.972 143.087  0.00  0.00    +0.000 OA
BRANCH  22  30
ATOM     23  O   UNL     1     106.662 126.322 142.389  0.00  0.00    +0.000 OA
ATOM     24  O   UNL     1     106.638 124.126 141.248  0.00  0.00    +0.000 OA
ATOM     25  O   UNL     1     105.449 124.508 142.326  0.00  0.00    +0.000 OA
ATOM     26  O   UNL     1     107.843 125.207 140.932  0.00  0.00    +0.000 OA
ATOM     27  C   UNL     1     106.646 124.858 141.629  0.00  0.00    +0.000 C 
ATOM     28  C   UNL     1     106.051 125.048 142.168  0.00  0.00    +0.000 C 
ATOM     29  C   UNL     1     107.248 125.398 141.470  0.00  0.00    +0.000 C 
ATOM     30  C   UNL     1     106.059 125.780 142.548  0.00  0.00    +0.000 C 
ATOM     31  C   UNL     1     107.256 126.130 141.850  0.00  0.00    +0.000 C 
BRANCH  31  34
ATOM     32  O   UNL     1     107.765 127.227 141.089  0.00  0.00    +0.000 OA
ATOM     33  O   UNL     1     108.553 126.657 142.137  0.00  0.00    +0.000 OA
ATOM     34  C   UNL     1     107.858 126.671 141.692  0.00  0.00    +0.000 C 
ENDBRANCH  31  34
ENDBRANCH  22  30
ENDBRANCH   9  22
TORSDOF 5
ENDMDL
MODEL 5
REMARK VINA RESULT:      -9.4      1.249      1.908
REMARK  Name = 131750802
REMARK  5 active torsions:
REMARK  status: ('A' for Active; 'I' for Inactive)
REMARK    1  A    between atoms: O_2  and  C_15
REMARK    2  A    between atoms: O_2  and  C_22
REMARK    3  A    between atoms: C_16  and  C_25
REMARK    4  A    between atoms: C_18  and  C_23
REMARK    5  A    between atoms: C_30  and  C_33
REMARK                            x       y       z     vdW  Elec       q    Type
REMARK                         _______ _______ _______ _____ _____    ______ ____
ROOT
ATOM      1  O   UNL     1     104.784 128.407 143.178  0.00  0.00    +0.000 OA
ATOM      2  O   UNL     1     105.843 129.048 141.380  0.00  0.00    +0.000 OA
ATOM      3  O   UNL     1     107.621 128.007 143.553  0.00  0.00    +0.000 OA
ATOM      4  C   UNL     1     105.700 128.752 142.136  0.00  0.00    +0.000 C 
ATOM      5  C   UNL     1     104.927 128.703 142.421  0.00  0.00    +0.000 C 
ATOM      6  C   UNL     1     106.330 128.505 142.607  0.00  0.00    +0.000 C 
ATOM      7  C   UNL     1     106.187 128.209 143.364  0.00  0.00    +0.000 A 
ATOM      8  C   UNL     1     105.415 128.160 143.650  0.00  0.00    +0.000 A 
ATOM      9  C   UNL     1     105.906 127.595 144.932  0.00  0.00    +0.000 A 
ATOM     10  C   UNL     1     105.253 127.854 144.436  0.00  0.00    +0.000 A 
ATOM     11  C   UNL     1     106.852 127.955 143.847  0.00  0.00    +0.000 A 
ATOM     12  C   UNL     1     106.710 127.646 144.635  0.00  0.00    +0.000 A 
ENDROOT
BRANCH   5  14
ATOM     13  O   UNL     1     102.910 130.629 141.796  0.00  0.00    +0.000 OA
ATOM     14  C   UNL     1     104.297 128.950 141.949  0.00  0.00    +0.000 A 
ATOM     15  C   UNL     1     103.918 129.665 142.108  0.00  0.00    +0.000 A 
ATOM     16  C   UNL     1     104.046 128.482 141.318  0.00  0.00    +0.000 A 
ATOM     17  C   UNL     1     103.037 129.445 141.006  0.00  0.00    +0.000 A 
ATOM     18  C   UNL     1     103.289 129.913 141.637  0.00  0.00    +0.000 A 
ATOM     19  C   UNL     1     103.416 128.729 140.846  0.00  0.00    +0.000 A 
BRANCH  17  20
ATOM     20  C   UNL     1     102.407 129.692 140.534  0.00  0.00    +0.000 C 
ATOM     21  C   UNL     1     102.269 129.329 139.806  0.00  0.00    +0.000 C 
ENDBRANCH  17  20
ENDBRANCH   5  14
BRANCH   9  22
ATOM     22  O   UNL     1     105.760 127.299 145.688  0.00  0.00    +0.000 OA
BRANCH  22  30
ATOM     23  O   UNL     1     105.698 125.937 145.263  0.00  0.00    +0.000 OA
ATOM     24  O   UNL     1     104.124 125.434 147.106  0.00  0.00    +0.000 OA
ATOM     25  O   UNL     1     104.711 126.964 146.917  0.00  0.00    +0.000 OA
ATOM     26  O   UNL     1     104.586 124.239 146.067  0.00  0.00    +0.000 OA
ATOM     27  C   UNL     1     104.649 125.601 146.492  0.00  0.00    +0.000 C 
ATOM     28  C   UNL     1     104.942 126.367 146.398  0.00  0.00    +0.000 C 
ATOM     29  C   UNL     1     104.879 125.004 145.973  0.00  0.00    +0.000 C 
ATOM     30  C   UNL     1     105.466 126.535 145.783  0.00  0.00    +0.000 C 
ATOM     31  C   UNL     1     105.404 125.172 145.358  0.00  0.00    +0.000 C 
BRANCH  31  34
ATOM     32  O   UNL     1     105.158 124.384 144.192  0.00  0.00    +0.000 OA
ATOM     33  O   UNL     1     106.342 124.169 144.964  0.00  0.00    +0.000 OA
ATOM     34  C   UNL     1     105.635 124.575 144.838  0.00  0.00    +0.000 C 
ENDBRANCH  31  34
ENDBRANCH  22  30
ENDBRANCH   9  22
TORSDOF 5
ENDMDL
MODEL 6
REMARK VINA RESULT:      -9.3      7.888      9.920
REMARK  Name = 131750802
REMARK  5 active torsions:
REMARK  status: ('A' for Active; 'I' for Inactive)
REMARK    1  A    between atoms: O_2  and  C_15
REMARK    2  A    between atoms: O_2  and  C_22
REMARK    3  A    between atoms: C_16  and  C_25
REMARK    4  A    between atoms: C_18  and  C_23
REMARK    5  A    between atoms: C_30  and  C_33
REMARK                            x       y       z     vdW  Elec       q    Type
REMARK                         _______ _______ _______ _____ _____    ______ ____
ROOT
ATOM      1  O   UNL     1     110.511 127.363 136.638  0.00  0.00    +0.000 OA
ATOM      2  O   UNL     1     110.828 126.612 134.614  0.00  0.00    +0.000 OA
ATOM      3  O   UNL     1     109.184 129.110 134.759  0.00  0.00    +0.000 OA
ATOM      4  C   UNL     1     110.570 127.085 135.238  0.00  0.00    +0.000 C 
ATOM      5  C   UNL     1     110.769 126.889 136.014  0.00  0.00    +0.000 C 
ATOM      6  C   UNL     1     110.113 127.754 135.085  0.00  0.00    +0.000 C 
ATOM      7  C   UNL     1     109.854 128.228 135.709  0.00  0.00    +0.000 A 
ATOM      8  C   UNL     1     110.053 128.032 136.486  0.00  0.00    +0.000 A 
ATOM      9  C   UNL     1     109.313 129.216 136.992  0.00  0.00    +0.000 A 
ATOM     10  C   UNL     1     109.790 128.517 137.145  0.00  0.00    +0.000 A 
ATOM     11  C   UNL     1     109.378 128.922 135.539  0.00  0.00    +0.000 A 
ATOM     12  C   UNL     1     109.106 129.420 136.184  0.00  0.00    +0.000 A 
ENDROOT
BRANCH   5  14
ATOM     13  O   UNL     1     113.309 125.702 136.572  0.00  0.00    +0.000 OA
ATOM     14  C   UNL     1     111.227 126.220 136.166  0.00  0.00    +0.000 A 
ATOM     15  C   UNL     1     112.039 126.295 136.293  0.00  0.00    +0.000 A 
ATOM     16  C   UNL     1     110.873 125.475 136.191  0.00  0.00    +0.000 A 
ATOM     17  C   UNL     1     112.143 124.882 136.470  0.00  0.00    +0.000 A 
ATOM     18  C   UNL     1     112.497 125.627 136.445  0.00  0.00    +0.000 A 
ATOM     19  C   UNL     1     111.331 124.806 136.343  0.00  0.00    +0.000 A 
BRANCH  17  20
ATOM     20  C   UNL     1     112.601 124.212 136.622  0.00  0.00    +0.000 C 
ATOM     21  C   UNL     1     112.239 123.509 136.856  0.00  0.00    +0.000 C 
ENDBRANCH  17  20
ENDBRANCH   5  14
BRANCH   9  22
ATOM     22  O   UNL     1     109.057 129.688 137.618  0.00  0.00    +0.000 OA
BRANCH  22  30
ATOM     23  O   UNL     1     110.263 130.432 137.797  0.00  0.00    +0.000 OA
ATOM     24  O   UNL     1     108.938 132.474 138.243  0.00  0.00    +0.000 OA
ATOM     25  O   UNL     1     108.173 131.049 137.916  0.00  0.00    +0.000 OA
ATOM     26  O   UNL     1     110.585 132.537 138.274  0.00  0.00    +0.000 OA
ATOM     27  C   UNL     1     109.380 131.793 138.095  0.00  0.00    +0.000 C 
ATOM     28  C   UNL     1     108.996 131.081 137.931  0.00  0.00    +0.000 C 
ATOM     29  C   UNL     1     110.203 131.825 138.110  0.00  0.00    +0.000 C 
ATOM     30  C   UNL     1     109.438 130.400 137.782  0.00  0.00    +0.000 C 
ATOM     31  C   UNL     1     110.645 131.144 137.961  0.00  0.00    +0.000 C 
BRANCH  31  34
ATOM     32  O   UNL     1     111.887 131.370 137.291  0.00  0.00    +0.000 OA
ATOM     33  O   UNL     1     111.876 131.012 138.675  0.00  0.00    +0.000 OA
ATOM     34  C   UNL     1     111.469 131.175 137.976  0.00  0.00    +0.000 C 
ENDBRANCH  31  34
ENDBRANCH  22  30
ENDBRANCH   9  22
TORSDOF 5
ENDMDL
MODEL 7
REMARK VINA RESULT:      -9.3      7.717     10.296
REMARK  Name = 131750802
REMARK  5 active torsions:
REMARK  status: ('A' for Active; 'I' for Inactive)
REMARK    1  A    between atoms: O_2  and  C_15
REMARK    2  A    between atoms: O_2  and  C_22
REMARK    3  A    between atoms: C_16  and  C_25
REMARK    4  A    between atoms: C_18  and  C_23
REMARK    5  A    between atoms: C_30  and  C_33
REMARK                            x       y       z     vdW  Elec       q    Type
REMARK                         _______ _______ _______ _____ _____    ______ ____
ROOT
ATOM      1  O   UNL     1     111.554 127.057 136.256  0.00  0.00    +0.000 OA
ATOM      2  O   UNL     1     111.096 124.940 136.530  0.00  0.00    +0.000 OA
ATOM      3  O   UNL     1     108.828 126.561 135.439  0.00  0.00    +0.000 OA
ATOM      4  C   UNL     1     111.010 125.738 136.340  0.00  0.00    +0.000 C 
ATOM      5  C   UNL     1     111.641 126.259 136.447  0.00  0.00    +0.000 C 
ATOM      6  C   UNL     1     110.292 126.015 136.042  0.00  0.00    +0.000 C 
ATOM      7  C   UNL     1     110.205 126.813 135.852  0.00  0.00    +0.000 A 
ATOM      8  C   UNL     1     110.836 127.334 135.959  0.00  0.00    +0.000 A 
ATOM      9  C   UNL     1     110.013 128.461 135.454  0.00  0.00    +0.000 A 
ATOM     10  C   UNL     1     110.758 128.167 135.764  0.00  0.00    +0.000 A 
ATOM     11  C   UNL     1     109.453 127.090 135.542  0.00  0.00    +0.000 A 
ATOM     12  C   UNL     1     109.356 127.920 135.342  0.00  0.00    +0.000 A 
ENDROOT
BRANCH   5  14
ATOM     13  O   UNL     1     113.469 125.966 138.624  0.00  0.00    +0.000 OA
ATOM     14  C   UNL     1     112.358 125.981 136.745  0.00  0.00    +0.000 A 
ATOM     15  C   UNL     1     112.555 126.112 137.535  0.00  0.00    +0.000 A 
ATOM     16  C   UNL     1     112.879 125.573 136.252  0.00  0.00    +0.000 A 
ATOM     17  C   UNL     1     113.793 125.427 137.341  0.00  0.00    +0.000 A 
ATOM     18  C   UNL     1     113.272 125.835 137.833  0.00  0.00    +0.000 A 
ATOM     19  C   UNL     1     113.597 125.295 136.550  0.00  0.00    +0.000 A 
BRANCH  17  20
ATOM     20  C   UNL     1     114.511 125.149 137.639  0.00  0.00    +0.000 C 
ATOM     21  C   UNL     1     114.975 124.637 137.188  0.00  0.00    +0.000 C 
ENDBRANCH  17  20
ENDBRANCH   5  14
BRANCH   9  22
ATOM     22  O   UNL     1     109.929 129.260 135.264  0.00  0.00    +0.000 OA
BRANCH  22  30
ATOM     23  O   UNL     1     109.606 129.739 136.571  0.00  0.00    +0.000 OA
ATOM     24  O   UNL     1     107.937 131.282 135.593  0.00  0.00    +0.000 OA
ATOM     25  O   UNL     1     108.816 130.289 134.612  0.00  0.00    +0.000 OA
ATOM     26  O   UNL     1     108.170 131.246 137.225  0.00  0.00    +0.000 OA
ATOM     27  C   UNL     1     108.493 130.768 135.919  0.00  0.00    +0.000 C 
ATOM     28  C   UNL     1     108.933 130.271 135.428  0.00  0.00    +0.000 C 
ATOM     29  C   UNL     1     108.610 130.750 136.735  0.00  0.00    +0.000 C 
ATOM     30  C   UNL     1     109.489 129.757 135.754  0.00  0.00    +0.000 C 
ATOM     31  C   UNL     1     109.166 130.236 137.061  0.00  0.00    +0.000 C 
BRANCH  31  34
ATOM     32  O   UNL     1     109.907 130.642 138.214  0.00  0.00    +0.000 OA
ATOM     33  O   UNL     1     108.779 129.776 138.357  0.00  0.00    +0.000 OA
ATOM     34  C   UNL     1     109.283 130.217 137.877  0.00  0.00    +0.000 C 
ENDBRANCH  31  34
ENDBRANCH  22  30
ENDBRANCH   9  22
TORSDOF 5
ENDMDL
MODEL 8
REMARK VINA RESULT:      -9.3      8.324     10.467
REMARK  Name = 131750802
REMARK  5 active torsions:
REMARK  status: ('A' for Active; 'I' for Inactive)
REMARK    1  A    between atoms: O_2  and  C_15
REMARK    2  A    between atoms: O_2  and  C_22
REMARK    3  A    between atoms: C_16  and  C_25
REMARK    4  A    between atoms: C_18  and  C_23
REMARK    5  A    between atoms: C_30  and  C_33
REMARK                            x       y       z     vdW  Elec       q    Type
REMARK                         _______ _______ _______ _____ _____    ______ ____
ROOT
ATOM      1  O   UNL     1     112.210 127.930 137.216  0.00  0.00    +0.000 OA
ATOM      2  O   UNL     1     114.081 127.868 136.092  0.00  0.00    +0.000 OA
ATOM      3  O   UNL     1     112.799 130.573 136.208  0.00  0.00    +0.000 OA
ATOM      4  C   UNL     1     113.391 128.155 136.442  0.00  0.00    +0.000 C 
ATOM      5  C   UNL     1     112.901 127.644 136.866  0.00  0.00    +0.000 C 
ATOM      6  C   UNL     1     113.191 128.951 136.368  0.00  0.00    +0.000 C 
ATOM      7  C   UNL     1     112.501 129.237 136.718  0.00  0.00    +0.000 A 
ATOM      8  C   UNL     1     112.010 128.727 137.142  0.00  0.00    +0.000 A 
ATOM      9  C   UNL     1     111.075 129.842 137.437  0.00  0.00    +0.000 A 
ATOM     10  C   UNL     1     111.289 129.013 137.511  0.00  0.00    +0.000 A 
ATOM     11  C   UNL     1     112.303 130.069 136.634  0.00  0.00    +0.000 A 
ATOM     12  C   UNL     1     111.585 130.373 136.996  0.00  0.00    +0.000 A 
ENDROOT
BRANCH   5  14
ATOM     13  O   UNL     1     114.261 125.553 138.261  0.00  0.00    +0.000 OA
ATOM     14  C   UNL     1     113.101 126.847 136.940  0.00  0.00    +0.000 A 
ATOM     15  C   UNL     1     113.581 126.598 137.563  0.00  0.00    +0.000 A 
ATOM     16  C   UNL     1     112.822 126.298 136.390  0.00  0.00    +0.000 A 
ATOM     17  C   UNL     1     113.502 125.253 137.088  0.00  0.00    +0.000 A 
ATOM     18  C   UNL     1     113.781 125.802 137.638  0.00  0.00    +0.000 A 
ATOM     19  C   UNL     1     113.022 125.501 136.464  0.00  0.00    +0.000 A 
BRANCH  17  20
ATOM     20  C   UNL     1     113.702 124.456 137.162  0.00  0.00    +0.000 C 
ATOM     21  C   UNL     1     113.256 123.880 136.775  0.00  0.00    +0.000 C 
ENDBRANCH  17  20
ENDBRANCH   5  14
BRANCH   9  22
ATOM     22  O   UNL     1     110.385 130.125 137.788  0.00  0.00    +0.000 OA
BRANCH  22  30
ATOM     23  O   UNL     1     109.511 129.689 136.745  0.00  0.00    +0.000 OA
ATOM     24  O   UNL     1     108.056 131.651 137.142  0.00  0.00    +0.000 OA
ATOM     25  O   UNL     1     109.415 131.433 138.053  0.00  0.00    +0.000 OA
ATOM     26  O   UNL     1     107.668 130.561 135.968  0.00  0.00    +0.000 OA
ATOM     27  C   UNL     1     108.541 130.997 137.010  0.00  0.00    +0.000 C 
ATOM     28  C   UNL     1     109.220 130.889 137.466  0.00  0.00    +0.000 C 
ATOM     29  C   UNL     1     108.347 130.452 136.423  0.00  0.00    +0.000 C 
ATOM     30  C   UNL     1     109.705 130.235 137.333  0.00  0.00    +0.000 C 
ATOM     31  C   UNL     1     108.831 129.798 136.290  0.00  0.00    +0.000 C 
BRANCH  31  34
ATOM     32  O   UNL     1     108.937 129.346 134.939  0.00  0.00    +0.000 OA
ATOM     33  O   UNL     1     108.145 128.614 135.878  0.00  0.00    +0.000 OA
ATOM     34  C   UNL     1     108.638 129.253 135.703  0.00  0.00    +0.000 C 
ENDBRANCH  31  34
ENDBRANCH  22  30
ENDBRANCH   9  22
TORSDOF 5
ENDMDL
MODEL 9
REMARK VINA RESULT:      -9.2      6.654      8.876
REMARK  Name = 131750802
REMARK  5 active torsions:
REMARK  status: ('A' for Active; 'I' for Inactive)
REMARK    1  A    between atoms: O_2  and  C_15
REMARK    2  A    between atoms: O_2  and  C_22
REMARK    3  A    between atoms: C_16  and  C_25
REMARK    4  A    between atoms: C_18  and  C_23
REMARK    5  A    between atoms: C_30  and  C_33
REMARK                            x       y       z     vdW  Elec       q    Type
REMARK                         _______ _______ _______ _____ _____    ______ ____
ROOT
ATOM      1  O   UNL     1     112.399 126.418 139.205  0.00  0.00    +0.000 OA
ATOM      2  O   UNL     1     114.026 125.839 137.871  0.00  0.00    +0.000 OA
ATOM      3  O   UNL     1     114.925 126.973 140.492  0.00  0.00    +0.000 OA
ATOM      4  C   UNL     1     113.625 126.125 138.532  0.00  0.00    +0.000 C 
ATOM      5  C   UNL     1     112.800 126.131 138.544  0.00  0.00    +0.000 C 
ATOM      6  C   UNL     1     114.049 126.406 139.181  0.00  0.00    +0.000 C 
ATOM      7  C   UNL     1     113.648 126.693 139.842  0.00  0.00    +0.000 A 
ATOM      8  C   UNL     1     112.823 126.699 139.855  0.00  0.00    +0.000 A 
ATOM      9  C   UNL     1     112.830 127.288 141.217  0.00  0.00    +0.000 A 
ATOM     10  C   UNL     1     112.393 126.994 140.538  0.00  0.00    +0.000 A 
ATOM     11  C   UNL     1     114.100 126.983 140.513  0.00  0.00    +0.000 A 
ATOM     12  C   UNL     1     113.688 127.282 141.205  0.00  0.00    +0.000 A 
ENDROOT
BRANCH   5  14
ATOM     13  O   UNL     1     111.504 123.982 137.176  0.00  0.00    +0.000 OA
ATOM     14  C   UNL     1     112.377 125.850 137.894  0.00  0.00    +0.000 A 
ATOM     15  C   UNL     1     112.152 125.057 137.859  0.00  0.00    +0.000 A 
ATOM     16  C   UNL     1     112.177 126.362 137.278  0.00  0.00    +0.000 A 
ATOM     17  C   UNL     1     111.530 125.287 136.595  0.00  0.00    +0.000 A 
ATOM     18  C   UNL     1     111.729 124.775 137.210  0.00  0.00    +0.000 A 
ATOM     19  C   UNL     1     111.754 126.081 136.628  0.00  0.00    +0.000 A 
BRANCH  17  20
ATOM     20  C   UNL     1     111.106 125.006 135.945  0.00  0.00    +0.000 C 
ATOM     21  C   UNL     1     110.732 125.536 135.435  0.00  0.00    +0.000 C 
ENDBRANCH  17  20
ENDBRANCH   5  14
BRANCH   9  22
ATOM     22  O   UNL     1     112.426 127.574 141.877  0.00  0.00    +0.000 OA
BRANCH  22  30
ATOM     23  O   UNL     1     112.540 128.956 141.531  0.00  0.00    +0.000 OA
ATOM     24  O   UNL     1     110.317 129.390 142.528  0.00  0.00    +0.000 OA
ATOM     25  O   UNL     1     110.943 127.863 142.542  0.00  0.00    +0.000 OA
ATOM     26  O   UNL     1     111.172 130.626 141.851  0.00  0.00    +0.000 OA
ATOM     27  C   UNL     1     111.058 129.245 142.196  0.00  0.00    +0.000 C 
ATOM     28  C   UNL     1     111.371 128.482 142.203  0.00  0.00    +0.000 C 
ATOM     29  C   UNL     1     111.485 129.864 141.857  0.00  0.00    +0.000 C 
ATOM     30  C   UNL     1     112.112 128.337 141.871  0.00  0.00    +0.000 C 
ATOM     31  C   UNL     1     112.226 129.719 141.525  0.00  0.00    +0.000 C 
BRANCH  31  34
ATOM     32  O   UNL     1     113.202 130.757 141.640  0.00  0.00    +0.000 OA
ATOM     33  O   UNL     1     112.536 130.536 140.394  0.00  0.00    +0.000 OA
ATOM     34  C   UNL     1     112.655 130.337 141.186  0.00  0.00    +0.000 C 
ENDBRANCH  31  34
ENDBRANCH  22  30
ENDBRANCH   9  22
TORSDOF 5
ENDMDL
MODEL 10
REMARK VINA RESULT:      -9.2      6.541      9.688
REMARK  Name = 131750802
REMARK  5 active torsions:
REMARK  status: ('A' for Active; 'I' for Inactive)
REMARK    1  A    between atoms: O_2  and  C_15
REMARK    2  A    between atoms: O_2  and  C_22
REMARK    3  A    between atoms: C_16  and  C_25
REMARK    4  A    between atoms: C_18  and  C_23
REMARK    5  A    between atoms: C_30  and  C_33
REMARK                            x       y       z     vdW  Elec       q    Type
REMARK                         _______ _______ _______ _____ _____    ______ ____
ROOT
ATOM      1  O   UNL     1     111.584 127.382 137.984  0.00  0.00    +0.000 OA
ATOM      2  O   UNL     1     111.279 125.523 139.086  0.00  0.00    +0.000 OA
ATOM      3  O   UNL     1     109.343 127.699 139.779  0.00  0.00    +0.000 OA
ATOM      4  C   UNL     1     111.179 126.298 138.823  0.00  0.00    +0.000 C 
ATOM      5  C   UNL     1     111.684 126.606 138.247  0.00  0.00    +0.000 C 
ATOM      6  C   UNL     1     110.575 126.764 139.135  0.00  0.00    +0.000 C 
ATOM      7  C   UNL     1     110.475 127.540 138.872  0.00  0.00    +0.000 A 
ATOM      8  C   UNL     1     110.980 127.849 138.296  0.00  0.00    +0.000 A 
ATOM      9  C   UNL     1     110.258 129.146 138.335  0.00  0.00    +0.000 A 
ATOM     10  C   UNL     1     110.886 128.655 138.013  0.00  0.00    +0.000 A 
ATOM     11  C   UNL     1     109.842 128.017 139.204  0.00  0.00    +0.000 A 
ATOM     12  C   UNL     1     109.733 128.825 138.934  0.00  0.00    +0.000 A 
ENDROOT
BRANCH   5  14
ATOM     13  O   UNL     1     112.618 124.762 136.274  0.00  0.00    +0.000 OA
ATOM     14  C   UNL     1     112.288 126.139 137.935  0.00  0.00    +0.000 A 
ATOM     15  C   UNL     1     112.152 125.684 137.261  0.00  0.00    +0.000 A 
ATOM     16  C   UNL     1     113.029 126.127 138.298  0.00  0.00    +0.000 A 
ATOM     17  C   UNL     1     113.496 125.205 137.311  0.00  0.00    +0.000 A 
ATOM     18  C   UNL     1     112.755 125.217 136.949  0.00  0.00    +0.000 A 
ATOM     19  C   UNL     1     113.634 125.660 137.986  0.00  0.00    +0.000 A 
BRANCH  17  20
ATOM     20  C   UNL     1     114.100 124.738 136.999  0.00  0.00    +0.000 C 
ATOM     21  C   UNL     1     114.841 124.722 137.363  0.00  0.00    +0.000 C 
ENDBRANCH  17  20
ENDBRANCH   5  14
BRANCH   9  22
ATOM     22  O   UNL     1     110.161 129.921 138.070  0.00  0.00    +0.000 OA
BRANCH  22  30
ATOM     23  O   UNL     1     109.415 129.596 136.895  0.00  0.00    +0.000 OA
ATOM     24  O   UNL     1     108.061 131.647 137.188  0.00  0.00    +0.000 OA
ATOM     25  O   UNL     1     109.258 131.288 138.265  0.00  0.00    +0.000 OA
ATOM     26  O   UNL     1     107.767 130.639 135.916  0.00  0.00    +0.000 OA
ATOM     27  C   UNL     1     108.512 130.964 137.090  0.00  0.00    +0.000 C 
ATOM     28  C   UNL     1     109.111 130.785 137.629  0.00  0.00    +0.000 C 
ATOM     29  C   UNL     1     108.365 130.460 136.454  0.00  0.00    +0.000 C 
ATOM     30  C   UNL     1     109.562 130.101 137.532  0.00  0.00    +0.000 C 
ATOM     31  C   UNL     1     108.816 129.776 136.357  0.00  0.00    +0.000 C 
BRANCH  31  34
ATOM     32  O   UNL     1     109.083 129.370 135.013  0.00  0.00    +0.000 OA
ATOM     33  O   UNL     1     108.109 128.670 135.792  0.00  0.00    +0.000 OA
ATOM     34  C   UNL     1     108.669 129.272 135.721  0.00  0.00    +0.000 C 
ENDBRANCH  31  34
ENDBRANCH  22  30
ENDBRANCH   9  22
TORSDOF 5
ENDMDL
