MODEL 1
REMARK VINA RESULT:     -10.1      0.000      0.000
REMARK  Name = 12960459
REMARK  10 active torsions:
REMARK  status: ('A' for Active; 'I' for Inactive)
REMARK    1  A    between atoms: O_1  and  C_22
REMARK    2  A    between atoms: O_1  and  C_25
REMARK    3  A    between atoms: O_4  and  C_27
REMARK    4  A    between atoms: O_4  and  C_39
REMARK    5  A    between atoms: O_13  and  C_38
REMARK    6  A    between atoms: O_13  and  C_44
REMARK    7  A    between atoms: C_28  and  C_32
REMARK    8  A    between atoms: C_31  and  C_33
REMARK    9  A    between atoms: C_37  and  C_40
REMARK   10  A    between atoms: C_41  and  C_48
REMARK                            x       y       z     vdW  Elec       q    Type
REMARK                         _______ _______ _______ _____ _____    ______ ____
ROOT
ATOM      1  O   UNL     1     112.957 128.525 138.713  0.00  0.00    +0.000 OA
ATOM      2  O   UNL     1     110.683 128.408 139.683  0.00  0.00    +0.000 OA
ATOM      3  O   UNL     1     110.253 127.508 138.640  0.00  0.00    +0.000 OA
ATOM      4  C   UNL     1     112.020 128.911 139.720  0.00  0.00    +0.000 A 
ATOM      5  C   UNL     1     112.778 128.950 139.397  0.00  0.00    +0.000 A 
ATOM      6  C   UNL     1     111.441 128.447 139.360  0.00  0.00    +0.000 A 
ATOM      7  C   UNL     1     111.620 128.022 138.676  0.00  0.00    +0.000 A 
ATOM      8  C   UNL     1     111.979 127.137 137.261  0.00  0.00    +0.000 A 
ATOM      9  C   UNL     1     112.378 128.060 138.352  0.00  0.00    +0.000 A 
ATOM     10  C   UNL     1     112.577 127.622 137.641  0.00  0.00    +0.000 A 
ATOM     11  C   UNL     1     111.008 127.542 138.310  0.00  0.00    +0.000 A 
ATOM     12  C   UNL     1     111.188 127.096 137.597  0.00  0.00    +0.000 A 
ENDROOT
BRANCH   5  14
ATOM     13  O   UNL     1     115.094 130.807 140.839  0.00  0.00    +0.000 OA
ATOM     14  C   UNL     1     113.357 129.414 139.757  0.00  0.00    +0.000 A 
ATOM     15  C   UNL     1     113.761 129.130 140.418  0.00  0.00    +0.000 A 
ATOM     16  C   UNL     1     113.532 130.163 139.457  0.00  0.00    +0.000 A 
ATOM     17  C   UNL     1     114.340 129.594 140.779  0.00  0.00    +0.000 A 
ATOM     18  C   UNL     1     114.111 130.626 139.817  0.00  0.00    +0.000 A 
ATOM     19  C   UNL     1     114.515 130.342 140.478  0.00  0.00    +0.000 A 
ENDBRANCH   5  14
BRANCH   4  20
ATOM     20  O   UNL     1     111.841 129.336 140.404  0.00  0.00    +0.000 OA
BRANCH  20  27
ATOM     21  O   UNL     1     111.060 130.356 139.776  0.00  0.00    +0.000 OA
ATOM     22  O   UNL     1     109.525 130.376 141.717  0.00  0.00    +0.000 OA
ATOM     23  O   UNL     1     109.256 131.388 140.442  0.00  0.00    +0.000 OA
ATOM     24  C   UNL     1     110.683 129.856 141.061  0.00  0.00    +0.000 C 
ATOM     25  C   UNL     1     110.036 130.369 141.070  0.00  0.00    +0.000 C 
ATOM     26  C   UNL     1     109.902 130.875 140.433  0.00  0.00    +0.000 C 
ATOM     27  C   UNL     1     111.194 129.849 140.414  0.00  0.00    +0.000 C 
ATOM     28  C   UNL     1     110.414 130.868 139.786  0.00  0.00    +0.000 C 
BRANCH  28  30
ATOM     29  O   UNL     1     110.854 131.926 138.932  0.00  0.00    +0.000 OA
ATOM     30  C   UNL     1     110.280 131.375 139.148  0.00  0.00    +0.000 C 
ENDBRANCH  28  30
BRANCH  24  31
ATOM     31  O   UNL     1     110.817 129.350 141.698  0.00  0.00    +0.000 OA
BRANCH  31  36
ATOM     32  O   UNL     1     111.379 130.432 142.443  0.00  0.00    +0.000 OA
ATOM     33  O   UNL     1     110.969 128.366 143.014  0.00  0.00    +0.000 OA
ATOM     34  O   UNL     1     111.607 128.957 144.416  0.00  0.00    +0.000 OA
ATOM     35  O   UNL     1     112.093 130.531 144.502  0.00  0.00    +0.000 OA
ATOM     36  C   UNL     1     111.136 129.645 142.399  0.00  0.00    +0.000 C 
ATOM     37  C   UNL     1     111.212 129.153 143.058  0.00  0.00    +0.000 C 
ATOM     38  C   UNL     1     111.531 129.448 143.759  0.00  0.00    +0.000 C 
ATOM     39  C   UNL     1     111.774 130.236 143.801  0.00  0.00    +0.000 C 
ATOM     40  C   UNL     1     111.698 130.727 143.144  0.00  0.00    +0.000 C 
BRANCH  40  42
ATOM     41  O   UNL     1     112.573 131.777 142.726  0.00  0.00    +0.000 OA
ATOM     42  C   UNL     1     111.941 131.515 143.186  0.00  0.00    +0.000 C 
ENDBRANCH  40  42
ENDBRANCH  31  36
ENDBRANCH  24  31
ENDBRANCH  20  27
ENDBRANCH   4  20
BRANCH   8  43
ATOM     43  O   UNL     1     112.160 126.712 136.577  0.00  0.00    +0.000 OA
BRANCH  43  52
ATOM     44  O   UNL     1     113.079 125.725 137.052  0.00  0.00    +0.000 OA
ATOM     45  O   UNL     1     111.743 123.955 135.950  0.00  0.00    +0.000 OA
ATOM     46  O   UNL     1     113.106 123.558 136.791  0.00  0.00    +0.000 OA
ATOM     47  O   UNL     1     111.271 125.533 135.844  0.00  0.00    +0.000 OA
ATOM     48  C   UNL     1     112.188 124.545 136.317  0.00  0.00    +0.000 C 
ATOM     49  C   UNL     1     112.870 124.346 136.738  0.00  0.00    +0.000 C 
ATOM     50  C   UNL     1     111.952 125.334 136.264  0.00  0.00    +0.000 C 
ATOM     51  C   UNL     1     113.315 124.936 137.105  0.00  0.00    +0.000 C 
ATOM     52  C   UNL     1     112.397 125.924 136.631  0.00  0.00    +0.000 C 
BRANCH  51  54
ATOM     53  O   UNL     1     114.709 125.122 137.363  0.00  0.00    +0.000 OA
ATOM     54  C   UNL     1     113.996 124.737 137.525  0.00  0.00    +0.000 C 
ENDBRANCH  51  54
ENDBRANCH  43  52
ENDBRANCH   8  43
TORSDOF 10
ENDMDL
MODEL 2
REMARK VINA RESULT:     -10.0      3.074      6.679
REMARK  Name = 12960459
REMARK  10 active torsions:
REMARK  status: ('A' for Active; 'I' for Inactive)
REMARK    1  A    between atoms: O_1  and  C_22
REMARK    2  A    between atoms: O_1  and  C_25
REMARK    3  A    between atoms: O_4  and  C_27
REMARK    4  A    between atoms: O_4  and  C_39
REMARK    5  A    between atoms: O_13  and  C_38
REMARK    6  A    between atoms: O_13  and  C_44
REMARK    7  A    between atoms: C_28  and  C_32
REMARK    8  A    between atoms: C_31  and  C_33
REMARK    9  A    between atoms: C_37  and  C_40
REMARK   10  A    between atoms: C_41  and  C_48
REMARK                            x       y       z     vdW  Elec       q    Type
REMARK                         _______ _______ _______ _____ _____    ______ ____
ROOT
ATOM      1  O   UNL     1     109.715 128.293 136.469  0.00  0.00    +0.000 OA
ATOM      2  O   UNL     1     111.390 128.663 138.254  0.00  0.00    +0.000 OA
ATOM      3  O   UNL     1     110.758 129.904 138.630  0.00  0.00    +0.000 OA
ATOM      4  C   UNL     1     110.875 127.866 137.185  0.00  0.00    +0.000 A 
ATOM      5  C   UNL     1     110.317 127.742 136.590  0.00  0.00    +0.000 A 
ATOM      6  C   UNL     1     110.832 128.539 137.658  0.00  0.00    +0.000 A 
ATOM      7  C   UNL     1     110.230 129.090 137.537  0.00  0.00    +0.000 A 
ATOM      8  C   UNL     1     108.990 130.238 137.296  0.00  0.00    +0.000 A 
ATOM      9  C   UNL     1     109.672 128.968 136.942  0.00  0.00    +0.000 A 
ATOM     10  C   UNL     1     109.040 129.534 136.806  0.00  0.00    +0.000 A 
ATOM     11  C   UNL     1     110.196 129.789 138.037  0.00  0.00    +0.000 A 
ATOM     12  C   UNL     1     109.571 130.367 137.916  0.00  0.00    +0.000 A 
ENDROOT
BRANCH   5  14
ATOM     13  O   UNL     1     110.490 125.045 134.696  0.00  0.00    +0.000 OA
ATOM     14  C   UNL     1     110.361 127.068 136.117  0.00  0.00    +0.000 A 
ATOM     15  C   UNL     1     109.922 126.398 136.313  0.00  0.00    +0.000 A 
ATOM     16  C   UNL     1     110.842 127.064 135.447  0.00  0.00    +0.000 A 
ATOM     17  C   UNL     1     109.965 125.723 135.840  0.00  0.00    +0.000 A 
ATOM     18  C   UNL     1     110.885 126.391 134.974  0.00  0.00    +0.000 A 
ATOM     19  C   UNL     1     110.447 125.720 135.170  0.00  0.00    +0.000 A 
ENDBRANCH   5  14
BRANCH   4  20
ATOM     20  O   UNL     1     111.477 127.314 137.307  0.00  0.00    +0.000 OA
BRANCH  20  27
ATOM     21  O   UNL     1     110.948 126.797 138.529  0.00  0.00    +0.000 OA
ATOM     22  O   UNL     1     113.247 126.412 139.361  0.00  0.00    +0.000 OA
ATOM     23  O   UNL     1     111.952 126.023 140.306  0.00  0.00    +0.000 OA
ATOM     24  C   UNL     1     112.363 126.863 138.334  0.00  0.00    +0.000 C 
ATOM     25  C   UNL     1     112.481 126.540 139.084  0.00  0.00    +0.000 C 
ATOM     26  C   UNL     1     111.834 126.346 139.556  0.00  0.00    +0.000 C 
ATOM     27  C   UNL     1     111.596 126.992 138.056  0.00  0.00    +0.000 C 
ATOM     28  C   UNL     1     111.067 126.474 139.279  0.00  0.00    +0.000 C 
BRANCH  28  30
ATOM     29  O   UNL     1     109.928 125.652 139.538  0.00  0.00    +0.000 OA
ATOM     30  C   UNL     1     110.419 126.279 139.751  0.00  0.00    +0.000 C 
ENDBRANCH  28  30
BRANCH  24  31
ATOM     31  O   UNL     1     113.010 127.058 137.861  0.00  0.00    +0.000 OA
BRANCH  31  36
ATOM     32  O   UNL     1     113.194 125.679 137.537  0.00  0.00    +0.000 OA
ATOM     33  O   UNL     1     114.187 127.469 136.780  0.00  0.00    +0.000 OA
ATOM     34  O   UNL     1     114.959 126.295 135.916  0.00  0.00    +0.000 OA
ATOM     35  O   UNL     1     114.555 124.710 136.132  0.00  0.00    +0.000 OA
ATOM     36  C   UNL     1     113.396 126.471 137.429  0.00  0.00    +0.000 C 
ATOM     37  C   UNL     1     113.985 126.677 136.888  0.00  0.00    +0.000 C 
ATOM     38  C   UNL     1     114.371 126.090 136.456  0.00  0.00    +0.000 C 
ATOM     39  C   UNL     1     114.169 125.297 136.564  0.00  0.00    +0.000 C 
ATOM     40  C   UNL     1     113.581 125.092 137.104  0.00  0.00    +0.000 C 
BRANCH  40  42
ATOM     41  O   UNL     1     112.735 123.978 136.809  0.00  0.00    +0.000 OA
ATOM     42  C   UNL     1     113.378 124.299 137.213  0.00  0.00    +0.000 C 
ENDBRANCH  40  42
ENDBRANCH  31  36
ENDBRANCH  24  31
ENDBRANCH  20  27
ENDBRANCH   4  20
BRANCH   8  43
ATOM     43  O   UNL     1     108.387 130.788 137.172  0.00  0.00    +0.000 OA
BRANCH  43  52
ATOM     44  O   UNL     1     109.079 131.813 136.455  0.00  0.00    +0.000 OA
ATOM     45  O   UNL     1     107.253 131.878 134.786  0.00  0.00    +0.000 OA
ATOM     46  O   UNL     1     108.554 132.881 134.626  0.00  0.00    +0.000 OA
ATOM     47  O   UNL     1     107.170 130.831 136.059  0.00  0.00    +0.000 OA
ATOM     48  C   UNL     1     107.862 131.856 135.342  0.00  0.00    +0.000 C 
ATOM     49  C   UNL     1     108.512 132.358 135.262  0.00  0.00    +0.000 C 
ATOM     50  C   UNL     1     107.821 131.333 135.979  0.00  0.00    +0.000 C 
ATOM     51  C   UNL     1     109.121 132.336 135.819  0.00  0.00    +0.000 C 
ATOM     52  C   UNL     1     108.429 131.311 136.535  0.00  0.00    +0.000 C 
BRANCH  51  54
ATOM     53  O   UNL     1     110.426 132.746 136.234  0.00  0.00    +0.000 OA
ATOM     54  C   UNL     1     109.771 132.838 135.739  0.00  0.00    +0.000 C 
ENDBRANCH  51  54
ENDBRANCH  43  52
ENDBRANCH   8  43
TORSDOF 10
ENDMDL
MODEL 3
REMARK VINA RESULT:      -9.9      6.384      9.137
REMARK  Name = 12960459
REMARK  10 active torsions:
REMARK  status: ('A' for Active; 'I' for Inactive)
REMARK    1  A    between atoms: O_1  and  C_22
REMARK    2  A    between atoms: O_1  and  C_25
REMARK    3  A    between atoms: O_4  and  C_27
REMARK    4  A    between atoms: O_4  and  C_39
REMARK    5  A    between atoms: O_13  and  C_38
REMARK    6  A    between atoms: O_13  and  C_44
REMARK    7  A    between atoms: C_28  and  C_32
REMARK    8  A    between atoms: C_31  and  C_33
REMARK    9  A    between atoms: C_37  and  C_40
REMARK   10  A    between atoms: C_41  and  C_48
REMARK                            x       y       z     vdW  Elec       q    Type
REMARK                         _______ _______ _______ _____ _____    ______ ____
ROOT
ATOM      1  O   UNL     1     105.012 127.312 145.076  0.00  0.00    +0.000 OA
ATOM      2  O   UNL     1     107.160 126.303 144.374  0.00  0.00    +0.000 OA
ATOM      3  O   UNL     1     106.961 125.187 145.266  0.00  0.00    +0.000 OA
ATOM      4  C   UNL     1     106.197 127.355 144.279  0.00  0.00    +0.000 A 
ATOM      5  C   UNL     1     105.481 127.692 144.513  0.00  0.00    +0.000 A 
ATOM      6  C   UNL     1     106.444 126.640 144.608  0.00  0.00    +0.000 A 
ATOM      7  C   UNL     1     105.975 126.261 145.171  0.00  0.00    +0.000 A 
ATOM      8  C   UNL     1     105.013 125.467 146.336  0.00  0.00    +0.000 A 
ATOM      9  C   UNL     1     105.259 126.596 145.405  0.00  0.00    +0.000 A 
ATOM     10  C   UNL     1     104.761 126.212 145.990  0.00  0.00    +0.000 A 
ATOM     11  C   UNL     1     106.244 125.516 145.505  0.00  0.00    +0.000 A 
ATOM     12  C   UNL     1     105.759 125.116 146.093  0.00  0.00    +0.000 A 
ENDROOT
BRANCH   5  14
ATOM     13  O   UNL     1     104.493 130.553 143.200  0.00  0.00    +0.000 OA
ATOM     14  C   UNL     1     105.234 128.406 144.185  0.00  0.00    +0.000 A 
ATOM     15  C   UNL     1     105.497 129.120 144.505  0.00  0.00    +0.000 A 
ATOM     16  C   UNL     1     104.724 128.409 143.536  0.00  0.00    +0.000 A 
ATOM     17  C   UNL     1     105.250 129.836 144.176  0.00  0.00    +0.000 A 
ATOM     18  C   UNL     1     104.477 129.123 143.208  0.00  0.00    +0.000 A 
ATOM     19  C   UNL     1     104.740 129.837 143.528  0.00  0.00    +0.000 A 
ENDBRANCH   5  14
BRANCH   4  20
ATOM     20  O   UNL     1     106.666 127.734 143.717  0.00  0.00    +0.000 OA
BRANCH  20  27
ATOM     21  O   UNL     1     106.370 126.835 142.646  0.00  0.00    +0.000 OA
ATOM     22  O   UNL     1     108.670 127.114 141.776  0.00  0.00    +0.000 OA
ATOM     23  O   UNL     1     107.607 126.122 140.995  0.00  0.00    +0.000 OA
ATOM     24  C   UNL     1     107.669 127.424 142.746  0.00  0.00    +0.000 C 
ATOM     25  C   UNL     1     107.903 127.021 142.066  0.00  0.00    +0.000 C 
ATOM     26  C   UNL     1     107.373 126.525 141.676  0.00  0.00    +0.000 C 
ATOM     27  C   UNL     1     106.902 127.331 143.036  0.00  0.00    +0.000 C 
ATOM     28  C   UNL     1     106.606 126.432 141.966  0.00  0.00    +0.000 C 
BRANCH  28  30
ATOM     29  O   UNL     1     105.427 126.257 141.177  0.00  0.00    +0.000 OA
ATOM     30  C   UNL     1     106.074 125.936 141.576  0.00  0.00    +0.000 C 
ENDBRANCH  28  30
BRANCH  24  31
ATOM     31  O   UNL     1     108.200 127.920 143.136  0.00  0.00    +0.000 OA
BRANCH  31  36
ATOM     32  O   UNL     1     107.992 128.927 142.144  0.00  0.00    +0.000 OA
ATOM     33  O   UNL     1     109.169 128.953 143.981  0.00  0.00    +0.000 OA
ATOM     34  O   UNL     1     109.446 130.477 143.411  0.00  0.00    +0.000 OA
ATOM     35  O   UNL     1     108.754 130.967 141.996  0.00  0.00    +0.000 OA
ATOM     36  C   UNL     1     108.338 128.682 142.851  0.00  0.00    +0.000 C 
ATOM     37  C   UNL     1     108.823 129.199 143.274  0.00  0.00    +0.000 C 
ATOM     38  C   UNL     1     108.962 129.961 142.989  0.00  0.00    +0.000 C 
ATOM     39  C   UNL     1     108.615 130.205 142.281  0.00  0.00    +0.000 C 
ATOM     40  C   UNL     1     108.131 129.689 141.859  0.00  0.00    +0.000 C 
BRANCH  40  42
ATOM     41  O   UNL     1     106.963 129.963 141.082  0.00  0.00    +0.000 OA
ATOM     42  C   UNL     1     107.784 129.933 141.151  0.00  0.00    +0.000 C 
ENDBRANCH  40  42
ENDBRANCH  31  36
ENDBRANCH  24  31
ENDBRANCH  20  27
ENDBRANCH   4  20
BRANCH   8  43
ATOM     43  O   UNL     1     104.542 125.090 146.899  0.00  0.00    +0.000 OA
BRANCH  43  52
ATOM     44  O   UNL     1     104.094 123.989 146.105  0.00  0.00    +0.000 OA
ATOM     45  O   UNL     1     101.818 124.237 147.046  0.00  0.00    +0.000 OA
ATOM     46  O   UNL     1     102.128 123.054 145.939  0.00  0.00    +0.000 OA
ATOM     47  O   UNL     1     103.025 125.255 147.526  0.00  0.00    +0.000 OA
ATOM     48  C   UNL     1     102.577 124.154 146.732  0.00  0.00    +0.000 C 
ATOM     49  C   UNL     1     102.732 123.563 146.179  0.00  0.00    +0.000 C 
ATOM     50  C   UNL     1     103.180 124.663 146.972  0.00  0.00    +0.000 C 
ATOM     51  C   UNL     1     103.490 123.480 145.865  0.00  0.00    +0.000 C 
ATOM     52  C   UNL     1     103.939 124.580 146.658  0.00  0.00    +0.000 C 
BRANCH  51  54
ATOM     53  O   UNL     1     103.833 123.091 144.533  0.00  0.00    +0.000 OA
ATOM     54  C   UNL     1     103.645 122.888 145.311  0.00  0.00    +0.000 C 
ENDBRANCH  51  54
ENDBRANCH  43  52
ENDBRANCH   8  43
TORSDOF 10
ENDMDL
MODEL 4
REMARK VINA RESULT:      -9.9      1.864      3.902
REMARK  Name = 12960459
REMARK  10 active torsions:
REMARK  status: ('A' for Active; 'I' for Inactive)
REMARK    1  A    between atoms: O_1  and  C_22
REMARK    2  A    between atoms: O_1  and  C_25
REMARK    3  A    between atoms: O_4  and  C_27
REMARK    4  A    between atoms: O_4  and  C_39
REMARK    5  A    between atoms: O_13  and  C_38
REMARK    6  A    between atoms: O_13  and  C_44
REMARK    7  A    between atoms: C_28  and  C_32
REMARK    8  A    between atoms: C_31  and  C_33
REMARK    9  A    between atoms: C_37  and  C_40
REMARK   10  A    between atoms: C_41  and  C_48
REMARK                            x       y       z     vdW  Elec       q    Type
REMARK                         _______ _______ _______ _____ _____    ______ ____
ROOT
ATOM      1  O   UNL     1     112.818 128.608 137.937  0.00  0.00    +0.000 OA
ATOM      2  O   UNL     1     110.460 128.675 138.685  0.00  0.00    +0.000 OA
ATOM      3  O   UNL     1     110.528 127.301 139.119  0.00  0.00    +0.000 OA
ATOM      4  C   UNL     1     111.592 129.322 138.100  0.00  0.00    +0.000 A 
ATOM      5  C   UNL     1     112.378 129.300 137.851  0.00  0.00    +0.000 A 
ATOM      6  C   UNL     1     111.246 128.653 138.436  0.00  0.00    +0.000 A 
ATOM      7  C   UNL     1     111.686 127.961 138.522  0.00  0.00    +0.000 A 
ATOM      8  C   UNL     1     112.586 126.522 138.705  0.00  0.00    +0.000 A 
ATOM      9  C   UNL     1     112.472 127.937 138.272  0.00  0.00    +0.000 A 
ATOM     10  C   UNL     1     112.941 127.223 138.356  0.00  0.00    +0.000 A 
ATOM     11  C   UNL     1     111.314 127.270 138.873  0.00  0.00    +0.000 A 
ATOM     12  C   UNL     1     111.767 126.545 138.965  0.00  0.00    +0.000 A 
ENDROOT
BRANCH   5  14
ATOM     13  O   UNL     1     113.763 131.979 136.510  0.00  0.00    +0.000 OA
ATOM     14  C   UNL     1     112.724 129.969 137.516  0.00  0.00    +0.000 A 
ATOM     15  C   UNL     1     113.170 130.481 137.984  0.00  0.00    +0.000 A 
ATOM     16  C   UNL     1     112.624 130.128 136.712  0.00  0.00    +0.000 A 
ATOM     17  C   UNL     1     113.517 131.151 137.649  0.00  0.00    +0.000 A 
ATOM     18  C   UNL     1     112.970 130.797 136.377  0.00  0.00    +0.000 A 
ATOM     19  C   UNL     1     113.416 131.308 136.845  0.00  0.00    +0.000 A 
ENDBRANCH   5  14
BRANCH   4  20
ATOM     20  O   UNL     1     111.152 130.015 138.014  0.00  0.00    +0.000 OA
BRANCH  20  27
ATOM     21  O   UNL     1     111.150 130.372 139.398  0.00  0.00    +0.000 OA
ATOM     22  O   UNL     1     108.859 131.278 139.162  0.00  0.00    +0.000 OA
ATOM     23  O   UNL     1     109.621 131.333 140.624  0.00  0.00    +0.000 OA
ATOM     24  C   UNL     1     110.005 130.646 138.588  0.00  0.00    +0.000 C 
ATOM     25  C   UNL     1     109.623 130.976 139.241  0.00  0.00    +0.000 C 
ATOM     26  C   UNL     1     110.004 131.003 139.971  0.00  0.00    +0.000 C 
ATOM     27  C   UNL     1     110.769 130.344 138.666  0.00  0.00    +0.000 C 
ATOM     28  C   UNL     1     110.767 130.702 140.050  0.00  0.00    +0.000 C 
BRANCH  28  30
ATOM     29  O   UNL     1     111.888 131.089 140.847  0.00  0.00    +0.000 OA
ATOM     30  C   UNL     1     111.149 130.729 140.782  0.00  0.00    +0.000 C 
ENDBRANCH  28  30
BRANCH  24  31
ATOM     31  O   UNL     1     109.624 130.619 137.857  0.00  0.00    +0.000 OA
BRANCH  31  36
ATOM     32  O   UNL     1     110.047 131.956 137.584  0.00  0.00    +0.000 OA
ATOM     33  O   UNL     1     108.799 130.589 136.428  0.00  0.00    +0.000 OA
ATOM     34  O   UNL     1     108.810 131.912 135.442  0.00  0.00    +0.000 OA
ATOM     35  O   UNL     1     109.646 133.264 135.884  0.00  0.00    +0.000 OA
ATOM     36  C   UNL     1     109.630 131.280 137.364  0.00  0.00    +0.000 C 
ATOM     37  C   UNL     1     109.217 131.265 136.649  0.00  0.00    +0.000 C 
ATOM     38  C   UNL     1     109.222 131.927 136.156  0.00  0.00    +0.000 C 
ATOM     39  C   UNL     1     109.641 132.603 136.377  0.00  0.00    +0.000 C 
ATOM     40  C   UNL     1     110.053 132.617 137.091  0.00  0.00    +0.000 C 
BRANCH  40  42
ATOM     41  O   UNL     1     110.280 133.687 138.011  0.00  0.00    +0.000 OA
ATOM     42  C   UNL     1     110.471 133.293 137.313  0.00  0.00    +0.000 C 
ENDBRANCH  40  42
ENDBRANCH  31  36
ENDBRANCH  24  31
ENDBRANCH  20  27
ENDBRANCH   4  20
BRANCH   8  43
ATOM     43  O   UNL     1     113.029 125.831 138.790  0.00  0.00    +0.000 OA
BRANCH  43  52
ATOM     44  O   UNL     1     112.614 125.070 137.653  0.00  0.00    +0.000 OA
ATOM     45  O   UNL     1     114.982 124.622 137.089  0.00  0.00    +0.000 OA
ATOM     46  O   UNL     1     113.778 124.011 136.140  0.00  0.00    +0.000 OA
ATOM     47  O   UNL     1     114.607 125.532 138.414  0.00  0.00    +0.000 OA
ATOM     48  C   UNL     1     114.193 124.772 137.277  0.00  0.00    +0.000 C 
ATOM     49  C   UNL     1     113.591 124.466 136.803  0.00  0.00    +0.000 C 
ATOM     50  C   UNL     1     114.005 125.226 137.939  0.00  0.00    +0.000 C 
ATOM     51  C   UNL     1     112.801 124.615 136.990  0.00  0.00    +0.000 C 
ATOM     52  C   UNL     1     113.216 125.376 138.127  0.00  0.00    +0.000 C 
BRANCH  51  54
ATOM     53  O   UNL     1     111.542 123.951 136.864  0.00  0.00    +0.000 OA
ATOM     54  C   UNL     1     112.200 124.310 136.516  0.00  0.00    +0.000 C 
ENDBRANCH  51  54
ENDBRANCH  43  52
ENDBRANCH   8  43
TORSDOF 10
ENDMDL
MODEL 5
REMARK VINA RESULT:      -9.9      1.472      6.620
REMARK  Name = 12960459
REMARK  10 active torsions:
REMARK  status: ('A' for Active; 'I' for Inactive)
REMARK    1  A    between atoms: O_1  and  C_22
REMARK    2  A    between atoms: O_1  and  C_25
REMARK    3  A    between atoms: O_4  and  C_27
REMARK    4  A    between atoms: O_4  and  C_39
REMARK    5  A    between atoms: O_13  and  C_38
REMARK    6  A    between atoms: O_13  and  C_44
REMARK    7  A    between atoms: C_28  and  C_32
REMARK    8  A    between atoms: C_31  and  C_33
REMARK    9  A    between atoms: C_37  and  C_40
REMARK   10  A    between atoms: C_41  and  C_48
REMARK                            x       y       z     vdW  Elec       q    Type
REMARK                         _______ _______ _______ _____ _____    ______ ____
ROOT
ATOM      1  O   UNL     1     111.343 129.744 139.387  0.00  0.00    +0.000 OA
ATOM      2  O   UNL     1     113.299 128.280 138.992  0.00  0.00    +0.000 OA
ATOM      3  O   UNL     1     113.980 128.831 140.137  0.00  0.00    +0.000 OA
ATOM      4  C   UNL     1     111.995 128.730 138.620  0.00  0.00    +0.000 A 
ATOM      5  C   UNL     1     111.343 129.218 138.751  0.00  0.00    +0.000 A 
ATOM      6  C   UNL     1     112.647 128.768 139.123  0.00  0.00    +0.000 A 
ATOM      7  C   UNL     1     112.647 129.293 139.759  0.00  0.00    +0.000 A 
ATOM      8  C   UNL     1     112.660 130.377 141.077  0.00  0.00    +0.000 A 
ATOM      9  C   UNL     1     111.996 129.782 139.891  0.00  0.00    +0.000 A 
ATOM     10  C   UNL     1     111.983 130.334 140.549  0.00  0.00    +0.000 A 
ATOM     11  C   UNL     1     113.333 129.323 140.276  0.00  0.00    +0.000 A 
ATOM     12  C   UNL     1     113.339 129.869 140.941  0.00  0.00    +0.000 A 
ENDROOT
BRANCH   5  14
ATOM     13  O   UNL     1     108.734 129.069 136.735  0.00  0.00    +0.000 OA
ATOM     14  C   UNL     1     110.691 129.181 138.248  0.00  0.00    +0.000 A 
ATOM     15  C   UNL     1     110.594 129.747 137.656  0.00  0.00    +0.000 A 
ATOM     16  C   UNL     1     110.135 128.577 138.335  0.00  0.00    +0.000 A 
ATOM     17  C   UNL     1     109.941 129.710 137.151  0.00  0.00    +0.000 A 
ATOM     18  C   UNL     1     109.483 128.540 137.832  0.00  0.00    +0.000 A 
ATOM     19  C   UNL     1     109.387 129.106 137.240  0.00  0.00    +0.000 A 
ENDBRANCH   5  14
BRANCH   4  20
ATOM     20  O   UNL     1     111.995 128.204 137.984  0.00  0.00    +0.000 OA
BRANCH  20  27
ATOM     21  O   UNL     1     112.872 128.960 137.147  0.00  0.00    +0.000 OA
ATOM     22  O   UNL     1     113.876 126.861 136.303  0.00  0.00    +0.000 OA
ATOM     23  O   UNL     1     114.419 128.317 135.748  0.00  0.00    +0.000 OA
ATOM     24  C   UNL     1     112.935 127.532 137.144  0.00  0.00    +0.000 C 
ATOM     25  C   UNL     1     113.542 127.561 136.585  0.00  0.00    +0.000 C 
ATOM     26  C   UNL     1     113.813 128.288 136.307  0.00  0.00    +0.000 C 
ATOM     27  C   UNL     1     112.601 128.232 137.425  0.00  0.00    +0.000 C 
ATOM     28  C   UNL     1     113.478 128.988 136.588  0.00  0.00    +0.000 C 
BRANCH  28  30
ATOM     29  O   UNL     1     113.231 130.230 135.926  0.00  0.00    +0.000 OA
ATOM     30  C   UNL     1     113.750 129.716 136.310  0.00  0.00    +0.000 C 
ENDBRANCH  28  30
BRANCH  24  31
ATOM     31  O   UNL     1     112.664 126.805 137.422  0.00  0.00    +0.000 OA
BRANCH  31  36
ATOM     32  O   UNL     1     111.889 126.634 136.233  0.00  0.00    +0.000 OA
ATOM     33  O   UNL     1     112.264 125.277 137.901  0.00  0.00    +0.000 OA
ATOM     34  O   UNL     1     111.289 124.344 136.952  0.00  0.00    +0.000 OA
ATOM     35  O   UNL     1     110.714 124.938 135.524  0.00  0.00    +0.000 OA
ATOM     36  C   UNL     1     112.177 126.338 136.947  0.00  0.00    +0.000 C 
ATOM     37  C   UNL     1     111.976 125.574 137.187  0.00  0.00    +0.000 C 
ATOM     38  C   UNL     1     111.489 125.107 136.712  0.00  0.00    +0.000 C 
ATOM     39  C   UNL     1     111.202 125.404 135.998  0.00  0.00    +0.000 C 
ATOM     40  C   UNL     1     111.401 126.168 135.759  0.00  0.00    +0.000 C 
BRANCH  40  42
ATOM     41  O   UNL     1     110.498 127.013 135.044  0.00  0.00    +0.000 OA
ATOM     42  C   UNL     1     111.114 126.465 135.045  0.00  0.00    +0.000 C 
ENDBRANCH  40  42
ENDBRANCH  31  36
ENDBRANCH  24  31
ENDBRANCH  20  27
ENDBRANCH   4  20
BRANCH   8  43
ATOM     43  O   UNL     1     112.657 130.904 141.712  0.00  0.00    +0.000 OA
BRANCH  43  52
ATOM     44  O   UNL     1     112.184 130.014 142.727  0.00  0.00    +0.000 OA
ATOM     45  O   UNL     1     110.733 131.809 143.622  0.00  0.00    +0.000 OA
ATOM     46  O   UNL     1     110.743 130.322 144.337  0.00  0.00    +0.000 OA
ATOM     47  O   UNL     1     111.690 132.099 142.310  0.00  0.00    +0.000 OA
ATOM     48  C   UNL     1     111.217 131.211 143.324  0.00  0.00    +0.000 C 
ATOM     49  C   UNL     1     111.222 130.467 143.681  0.00  0.00    +0.000 C 
ATOM     50  C   UNL     1     111.695 131.356 142.667  0.00  0.00    +0.000 C 
ATOM     51  C   UNL     1     111.705 129.869 143.383  0.00  0.00    +0.000 C 
ATOM     52  C   UNL     1     112.179 130.758 142.369  0.00  0.00    +0.000 C 
BRANCH  51  54
ATOM     53  O   UNL     1     111.430 128.467 143.328  0.00  0.00    +0.000 OA
ATOM     54  C   UNL     1     111.710 129.126 143.740  0.00  0.00    +0.000 C 
ENDBRANCH  51  54
ENDBRANCH  43  52
ENDBRANCH   8  43
TORSDOF 10
ENDMDL
MODEL 6
REMARK VINA RESULT:      -9.8      2.000      7.270
REMARK  Name = 12960459
REMARK  10 active torsions:
REMARK  status: ('A' for Active; 'I' for Inactive)
REMARK    1  A    between atoms: O_1  and  C_22
REMARK    2  A    between atoms: O_1  and  C_25
REMARK    3  A    between atoms: O_4  and  C_27
REMARK    4  A    between atoms: O_4  and  C_39
REMARK    5  A    between atoms: O_13  and  C_38
REMARK    6  A    between atoms: O_13  and  C_44
REMARK    7  A    between atoms: C_28  and  C_32
REMARK    8  A    between atoms: C_31  and  C_33
REMARK    9  A    between atoms: C_37  and  C_40
REMARK   10  A    between atoms: C_41  and  C_48
REMARK                            x       y       z     vdW  Elec       q    Type
REMARK                         _______ _______ _______ _____ _____    ______ ____
ROOT
ATOM      1  O   UNL     1     111.579 129.514 143.116  0.00  0.00    +0.000 OA
ATOM      2  O   UNL     1     111.927 131.291 141.429  0.00  0.00    +0.000 OA
ATOM      3  O   UNL     1     112.090 132.283 142.464  0.00  0.00    +0.000 OA
ATOM      4  C   UNL     1     111.674 129.922 141.750  0.00  0.00    +0.000 A 
ATOM      5  C   UNL     1     111.558 129.329 142.313  0.00  0.00    +0.000 A 
ATOM      6  C   UNL     1     111.811 130.698 141.991  0.00  0.00    +0.000 A 
ATOM      7  C   UNL     1     111.832 130.883 142.795  0.00  0.00    +0.000 A 
ATOM      8  C   UNL     1     111.878 131.278 144.455  0.00  0.00    +0.000 A 
ATOM      9  C   UNL     1     111.716 130.292 143.358  0.00  0.00    +0.000 A 
ATOM     10  C   UNL     1     111.736 130.471 144.198  0.00  0.00    +0.000 A 
ATOM     11  C   UNL     1     111.976 131.696 143.033  0.00  0.00    +0.000 A 
ATOM     12  C   UNL     1     111.999 131.896 143.869  0.00  0.00    +0.000 A 
ENDROOT
BRANCH   5  14
ATOM     13  O   UNL     1     111.010 126.221 141.349  0.00  0.00    +0.000 OA
ATOM     14  C   UNL     1     111.421 128.553 142.072  0.00  0.00    +0.000 A 
ATOM     15  C   UNL     1     112.047 128.017 142.031  0.00  0.00    +0.000 A 
ATOM     16  C   UNL     1     110.657 128.310 141.872  0.00  0.00    +0.000 A 
ATOM     17  C   UNL     1     111.910 127.239 141.790  0.00  0.00    +0.000 A 
ATOM     18  C   UNL     1     110.520 127.534 141.631  0.00  0.00    +0.000 A 
ATOM     19  C   UNL     1     111.147 126.998 141.590  0.00  0.00    +0.000 A 
ENDBRANCH   5  14
BRANCH   4  20
ATOM     20  O   UNL     1     111.652 129.737 140.947  0.00  0.00    +0.000 OA
BRANCH  20  27
ATOM     21  O   UNL     1     113.061 129.845 140.730  0.00  0.00    +0.000 OA
ATOM     22  O   UNL     1     112.643 130.736 138.459  0.00  0.00    +0.000 OA
ATOM     23  O   UNL     1     114.190 130.547 138.999  0.00  0.00    +0.000 OA
ATOM     24  C   UNL     1     112.147 130.236 139.702  0.00  0.00    +0.000 C 
ATOM     25  C   UNL     1     112.782 130.439 139.216  0.00  0.00    +0.000 C 
ATOM     26  C   UNL     1     113.555 130.345 139.485  0.00  0.00    +0.000 C 
ATOM     27  C   UNL     1     112.286 129.940 140.459  0.00  0.00    +0.000 C 
ATOM     28  C   UNL     1     113.694 130.048 140.243  0.00  0.00    +0.000 C 
BRANCH  28  30
ATOM     29  O   UNL     1     114.744 129.204 140.722  0.00  0.00    +0.000 OA
ATOM     30  C   UNL     1     114.469 129.953 140.513  0.00  0.00    +0.000 C 
ENDBRANCH  28  30
BRANCH  24  31
ATOM     31  O   UNL     1     111.374 130.331 139.433  0.00  0.00    +0.000 OA
BRANCH  31  36
ATOM     32  O   UNL     1     111.498 129.139 138.653  0.00  0.00    +0.000 OA
ATOM     33  O   UNL     1     109.791 130.459 138.983  0.00  0.00    +0.000 OA
ATOM     34  O   UNL     1     109.125 129.332 137.979  0.00  0.00    +0.000 OA
ATOM     35  O   UNL     1     110.041 128.076 137.424  0.00  0.00    +0.000 OA
ATOM     36  C   UNL     1     111.041 129.767 138.930  0.00  0.00    +0.000 C 
ATOM     37  C   UNL     1     110.249 129.831 138.705  0.00  0.00    +0.000 C 
ATOM     38  C   UNL     1     109.916 129.267 138.203  0.00  0.00    +0.000 C 
ATOM     39  C   UNL     1     110.374 128.640 137.926  0.00  0.00    +0.000 C 
ATOM     40  C   UNL     1     111.165 128.576 138.151  0.00  0.00    +0.000 C 
BRANCH  40  42
ATOM     41  O   UNL     1     111.876 127.360 138.394  0.00  0.00    +0.000 OA
ATOM     42  C   UNL     1     111.624 127.948 137.874  0.00  0.00    +0.000 C 
ENDBRANCH  40  42
ENDBRANCH  31  36
ENDBRANCH  24  31
ENDBRANCH  20  27
ENDBRANCH   4  20
BRANCH   8  43
ATOM     43  O   UNL     1     111.899 131.460 145.259  0.00  0.00    +0.000 OA
BRANCH  43  52
ATOM     44  O   UNL     1     110.511 131.750 145.441  0.00  0.00    +0.000 OA
ATOM     45  O   UNL     1     111.102 133.658 146.904  0.00  0.00    +0.000 OA
ATOM     46  O   UNL     1     109.518 133.313 146.598  0.00  0.00    +0.000 OA
ATOM     47  O   UNL     1     112.292 132.732 146.234  0.00  0.00    +0.000 OA
ATOM     48  C   UNL     1     110.905 133.022 146.416  0.00  0.00    +0.000 C 
ATOM     49  C   UNL     1     110.113 132.849 146.263  0.00  0.00    +0.000 C 
ATOM     50  C   UNL     1     111.500 132.559 146.081  0.00  0.00    +0.000 C 
ATOM     51  C   UNL     1     109.916 132.214 145.776  0.00  0.00    +0.000 C 
ATOM     52  C   UNL     1     111.303 131.923 145.594  0.00  0.00    +0.000 C 
BRANCH  51  54
ATOM     53  O   UNL     1     108.854 131.262 145.675  0.00  0.00    +0.000 OA
ATOM     54  C   UNL     1     109.124 132.041 145.623  0.00  0.00    +0.000 C 
ENDBRANCH  51  54
ENDBRANCH  43  52
ENDBRANCH   8  43
TORSDOF 10
ENDMDL
MODEL 7
REMARK VINA RESULT:      -9.8      1.956      6.329
REMARK  Name = 12960459
REMARK  10 active torsions:
REMARK  status: ('A' for Active; 'I' for Inactive)
REMARK    1  A    between atoms: O_1  and  C_22
REMARK    2  A    between atoms: O_1  and  C_25
REMARK    3  A    between atoms: O_4  and  C_27
REMARK    4  A    between atoms: O_4  and  C_39
REMARK    5  A    between atoms: O_13  and  C_38
REMARK    6  A    between atoms: O_13  and  C_44
REMARK    7  A    between atoms: C_28  and  C_32
REMARK    8  A    between atoms: C_31  and  C_33
REMARK    9  A    between atoms: C_37  and  C_40
REMARK   10  A    between atoms: C_41  and  C_48
REMARK                            x       y       z     vdW  Elec       q    Type
REMARK                         _______ _______ _______ _____ _____    ______ ____
ROOT
ATOM      1  O   UNL     1     111.392 130.058 139.286  0.00  0.00    +0.000 OA
ATOM      2  O   UNL     1     109.114 129.260 138.739  0.00  0.00    +0.000 OA
ATOM      3  O   UNL     1     108.574 129.907 139.910  0.00  0.00    +0.000 OA
ATOM      4  C   UNL     1     110.507 129.334 138.430  0.00  0.00    +0.000 A 
ATOM      5  C   UNL     1     111.266 129.600 138.612  0.00  0.00    +0.000 A 
ATOM      6  C   UNL     1     109.873 129.526 138.921  0.00  0.00    +0.000 A 
ATOM      7  C   UNL     1     109.999 129.984 139.596  0.00  0.00    +0.000 A 
ATOM      8  C   UNL     1     110.246 130.932 140.994  0.00  0.00    +0.000 A 
ATOM      9  C   UNL     1     110.758 130.250 139.779  0.00  0.00    +0.000 A 
ATOM     10  C   UNL     1     110.902 130.728 140.478  0.00  0.00    +0.000 A 
ATOM     11  C   UNL     1     109.330 130.177 140.100  0.00  0.00    +0.000 A 
ATOM     12  C   UNL     1     109.454 130.655 140.805  0.00  0.00    +0.000 A 
ENDROOT
BRANCH   5  14
ATOM     13  O   UNL     1     113.802 128.832 136.644  0.00  0.00    +0.000 OA
ATOM     14  C   UNL     1     111.900 129.408 138.120  0.00  0.00    +0.000 A 
ATOM     15  C   UNL     1     112.159 129.947 137.552  0.00  0.00    +0.000 A 
ATOM     16  C   UNL     1     112.275 128.677 138.196  0.00  0.00    +0.000 A 
ATOM     17  C   UNL     1     112.793 129.755 137.060  0.00  0.00    +0.000 A 
ATOM     18  C   UNL     1     112.909 128.485 137.705  0.00  0.00    +0.000 A 
ATOM     19  C   UNL     1     113.168 129.024 137.136  0.00  0.00    +0.000 A 
ENDBRANCH   5  14
BRANCH   4  20
ATOM     20  O   UNL     1     110.381 128.876 137.755  0.00  0.00    +0.000 OA
BRANCH  20  27
ATOM     21  O   UNL     1     109.766 129.906 136.980  0.00  0.00    +0.000 OA
ATOM     22  O   UNL     1     108.272 128.230 135.938  0.00  0.00    +0.000 OA
ATOM     23  O   UNL     1     108.154 129.819 135.510  0.00  0.00    +0.000 OA
ATOM     24  C   UNL     1     109.327 128.552 136.847  0.00  0.00    +0.000 C 
ATOM     25  C   UNL     1     108.770 128.789 136.285  0.00  0.00    +0.000 C 
ATOM     26  C   UNL     1     108.711 129.583 136.071  0.00  0.00    +0.000 C 
ATOM     27  C   UNL     1     109.824 129.111 137.194  0.00  0.00    +0.000 C 
ATOM     28  C   UNL     1     109.209 130.141 136.418  0.00  0.00    +0.000 C 
BRANCH  28  30
ATOM     29  O   UNL     1     109.796 131.320 135.864  0.00  0.00    +0.000 OA
ATOM     30  C   UNL     1     109.150 130.937 136.204  0.00  0.00    +0.000 C 
ENDBRANCH  28  30
BRANCH  24  31
ATOM     31  O   UNL     1     109.386 127.758 137.061  0.00  0.00    +0.000 OA
BRANCH  31  36
ATOM     32  O   UNL     1     110.099 127.481 135.854  0.00  0.00    +0.000 OA
ATOM     33  O   UNL     1     109.638 126.207 137.565  0.00  0.00    +0.000 OA
ATOM     34  O   UNL     1     110.477 125.156 136.609  0.00  0.00    +0.000 OA
ATOM     35  O   UNL     1     111.064 125.655 135.150  0.00  0.00    +0.000 OA
ATOM     36  C   UNL     1     109.805 127.232 136.583  0.00  0.00    +0.000 C 
ATOM     37  C   UNL     1     109.931 126.456 136.835  0.00  0.00    +0.000 C 
ATOM     38  C   UNL     1     110.351 125.931 136.358  0.00  0.00    +0.000 C 
ATOM     39  C   UNL     1     110.644 126.181 135.628  0.00  0.00    +0.000 C 
ATOM     40  C   UNL     1     110.518 126.956 135.376  0.00  0.00    +0.000 C 
BRANCH  40  42
ATOM     41  O   UNL     1     111.377 127.805 134.612  0.00  0.00    +0.000 OA
ATOM     42  C   UNL     1     110.812 127.206 134.647  0.00  0.00    +0.000 C 
ENDBRANCH  40  42
ENDBRANCH  31  36
ENDBRANCH  24  31
ENDBRANCH  20  27
ENDBRANCH   4  20
BRANCH   8  43
ATOM     43  O   UNL     1     110.374 131.390 141.668  0.00  0.00    +0.000 OA
BRANCH  43  52
ATOM     44  O   UNL     1     110.517 130.307 142.590  0.00  0.00    +0.000 OA
ATOM     45  O   UNL     1     112.271 131.568 143.799  0.00  0.00    +0.000 OA
ATOM     46  O   UNL     1     111.829 130.065 144.318  0.00  0.00    +0.000 OA
ATOM     47  O   UNL     1     111.543 132.230 142.474  0.00  0.00    +0.000 OA
ATOM     48  C   UNL     1     111.686 131.147 143.396  0.00  0.00    +0.000 C 
ATOM     49  C   UNL     1     111.465 130.396 143.655  0.00  0.00    +0.000 C 
ATOM     50  C   UNL     1     111.322 131.478 142.733  0.00  0.00    +0.000 C 
ATOM     51  C   UNL     1     110.881 129.976 143.252  0.00  0.00    +0.000 C 
ATOM     52  C   UNL     1     110.738 131.058 142.331  0.00  0.00    +0.000 C 
BRANCH  51  54
ATOM     53  O   UNL     1     110.840 128.560 143.055  0.00  0.00    +0.000 OA
ATOM     54  C   UNL     1     110.660 129.224 143.512  0.00  0.00    +0.000 C 
ENDBRANCH  51  54
ENDBRANCH  43  52
ENDBRANCH   8  43
TORSDOF 10
ENDMDL
MODEL 8
REMARK VINA RESULT:      -9.8      1.851      6.563
REMARK  Name = 12960459
REMARK  10 active torsions:
REMARK  status: ('A' for Active; 'I' for Inactive)
REMARK    1  A    between atoms: O_1  and  C_22
REMARK    2  A    between atoms: O_1  and  C_25
REMARK    3  A    between atoms: O_4  and  C_27
REMARK    4  A    between atoms: O_4  and  C_39
REMARK    5  A    between atoms: O_13  and  C_38
REMARK    6  A    between atoms: O_13  and  C_44
REMARK    7  A    between atoms: C_28  and  C_32
REMARK    8  A    between atoms: C_31  and  C_33
REMARK    9  A    between atoms: C_37  and  C_40
REMARK   10  A    between atoms: C_41  and  C_48
REMARK                            x       y       z     vdW  Elec       q    Type
REMARK                         _______ _______ _______ _____ _____    ______ ____
ROOT
ATOM      1  O   UNL     1     112.562 127.985 139.386  0.00  0.00    +0.000 OA
ATOM      2  O   UNL     1     111.607 129.688 137.864  0.00  0.00    +0.000 OA
ATOM      3  O   UNL     1     111.954 130.745 138.782  0.00  0.00    +0.000 OA
ATOM      4  C   UNL     1     111.907 128.323 138.162  0.00  0.00    +0.000 A 
ATOM      5  C   UNL     1     112.225 127.755 138.669  0.00  0.00    +0.000 A 
ATOM      6  C   UNL     1     111.925 129.120 138.371  0.00  0.00    +0.000 A 
ATOM      7  C   UNL     1     112.262 129.350 139.088  0.00  0.00    +0.000 A 
ATOM      8  C   UNL     1     112.955 129.839 140.569  0.00  0.00    +0.000 A 
ATOM      9  C   UNL     1     112.580 128.784 139.596  0.00  0.00    +0.000 A 
ATOM     10  C   UNL     1     112.933 129.010 140.345  0.00  0.00    +0.000 A 
ATOM     11  C   UNL     1     112.274 130.184 139.295  0.00  0.00    +0.000 A 
ATOM     12  C   UNL     1     112.624 130.431 140.041  0.00  0.00    +0.000 A 
ENDROOT
BRANCH   5  14
ATOM     13  O   UNL     1     112.152 124.564 137.830  0.00  0.00    +0.000 OA
ATOM     14  C   UNL     1     112.207 126.958 138.459  0.00  0.00    +0.000 A 
ATOM     15  C   UNL     1     111.525 126.513 138.589  0.00  0.00    +0.000 A 
ATOM     16  C   UNL     1     112.871 126.605 138.119  0.00  0.00    +0.000 A 
ATOM     17  C   UNL     1     111.506 125.714 138.380  0.00  0.00    +0.000 A 
ATOM     18  C   UNL     1     112.853 125.807 137.910  0.00  0.00    +0.000 A 
ATOM     19  C   UNL     1     112.171 125.362 138.040  0.00  0.00    +0.000 A 
ENDBRANCH   5  14
BRANCH   4  20
ATOM     20  O   UNL     1     111.570 128.092 137.444  0.00  0.00    +0.000 OA
BRANCH  20  27
ATOM     21  O   UNL     1     112.660 128.496 136.613  0.00  0.00    +0.000 OA
ATOM     22  O   UNL     1     111.061 129.201 134.860  0.00  0.00    +0.000 OA
ATOM     23  O   UNL     1     112.684 129.370 134.613  0.00  0.00    +0.000 OA
ATOM     24  C   UNL     1     111.315 128.647 136.152  0.00  0.00    +0.000 C 
ATOM     25  C   UNL     1     111.594 128.966 135.444  0.00  0.00    +0.000 C 
ATOM     26  C   UNL     1     112.405 129.051 135.321  0.00  0.00    +0.000 C 
ATOM     27  C   UNL     1     111.848 128.412 136.736  0.00  0.00    +0.000 C 
ATOM     28  C   UNL     1     112.938 128.816 135.905  0.00  0.00    +0.000 C 
BRANCH  28  30
ATOM     29  O   UNL     1     114.178 129.449 136.223  0.00  0.00    +0.000 OA
ATOM     30  C   UNL     1     113.750 128.900 135.781  0.00  0.00    +0.000 C 
ENDBRANCH  28  30
BRANCH  24  31
ATOM     31  O   UNL     1     110.504 128.562 136.276  0.00  0.00    +0.000 OA
BRANCH  31  36
ATOM     32  O   UNL     1     110.497 127.392 135.455  0.00  0.00    +0.000 OA
ATOM     33  O   UNL     1     108.917 128.311 136.647  0.00  0.00    +0.000 OA
ATOM     34  O   UNL     1     108.116 127.015 136.012  0.00  0.00    +0.000 OA
ATOM     35  O   UNL     1     108.904 125.971 135.006  0.00  0.00    +0.000 OA
ATOM     36  C   UNL     1     110.104 127.914 135.958  0.00  0.00    +0.000 C 
ATOM     37  C   UNL     1     109.310 127.788 136.144  0.00  0.00    +0.000 C 
ATOM     38  C   UNL     1     108.909 127.141 135.826  0.00  0.00    +0.000 C 
ATOM     39  C   UNL     1     109.304 126.619 135.323  0.00  0.00    +0.000 C 
ATOM     40  C   UNL     1     110.097 126.744 135.138  0.00  0.00    +0.000 C 
BRANCH  40  42
ATOM     41  O   UNL     1     111.049 125.697 134.939  0.00  0.00    +0.000 OA
ATOM     42  C   UNL     1     110.492 126.223 134.634  0.00  0.00    +0.000 C 
ENDBRANCH  40  42
ENDBRANCH  31  36
ENDBRANCH  24  31
ENDBRANCH  20  27
ENDBRANCH   4  20
BRANCH   8  43
ATOM     43  O   UNL     1     113.292 130.067 141.287  0.00  0.00    +0.000 OA
BRANCH  43  52
ATOM     44  O   UNL     1     112.292 129.634 142.213  0.00  0.00    +0.000 OA
ATOM     45  O   UNL     1     112.407 131.824 143.360  0.00  0.00    +0.000 OA
ATOM     46  O   UNL     1     111.370 130.662 143.903  0.00  0.00    +0.000 OA
ATOM     47  O   UNL     1     113.368 131.526 142.052  0.00  0.00    +0.000 OA
ATOM     48  C   UNL     1     112.369 131.094 142.978  0.00  0.00    +0.000 C 
ATOM     49  C   UNL     1     111.850 130.513 143.249  0.00  0.00    +0.000 C 
ATOM     50  C   UNL     1     112.849 130.945 142.324  0.00  0.00    +0.000 C 
ATOM     51  C   UNL     1     111.812 129.783 142.867  0.00  0.00    +0.000 C 
ATOM     52  C   UNL     1     112.811 130.215 141.941  0.00  0.00    +0.000 C 
BRANCH  51  54
ATOM     53  O   UNL     1     111.574 128.443 143.306  0.00  0.00    +0.000 OA
ATOM     54  C   UNL     1     111.293 129.202 143.138  0.00  0.00    +0.000 C 
ENDBRANCH  51  54
ENDBRANCH  43  52
ENDBRANCH   8  43
TORSDOF 10
ENDMDL
MODEL 9
REMARK VINA RESULT:      -9.8      2.439      6.164
REMARK  Name = 12960459
REMARK  10 active torsions:
REMARK  status: ('A' for Active; 'I' for Inactive)
REMARK    1  A    between atoms: O_1  and  C_22
REMARK    2  A    between atoms: O_1  and  C_25
REMARK    3  A    between atoms: O_4  and  C_27
REMARK    4  A    between atoms: O_4  and  C_39
REMARK    5  A    between atoms: O_13  and  C_38
REMARK    6  A    between atoms: O_13  and  C_44
REMARK    7  A    between atoms: C_28  and  C_32
REMARK    8  A    between atoms: C_31  and  C_33
REMARK    9  A    between atoms: C_37  and  C_40
REMARK   10  A    between atoms: C_41  and  C_48
REMARK                            x       y       z     vdW  Elec       q    Type
REMARK                         _______ _______ _______ _____ _____    ______ ____
ROOT
ATOM      1  O   UNL     1     111.586 129.807 136.908  0.00  0.00    +0.000 OA
ATOM      2  O   UNL     1     110.743 128.070 138.457  0.00  0.00    +0.000 OA
ATOM      3  O   UNL     1     109.606 128.888 138.802  0.00  0.00    +0.000 OA
ATOM      4  C   UNL     1     111.723 128.524 137.521  0.00  0.00    +0.000 A 
ATOM      5  C   UNL     1     112.004 129.102 137.004  0.00  0.00    +0.000 A 
ATOM      6  C   UNL     1     111.025 128.649 137.941  0.00  0.00    +0.000 A 
ATOM      7  C   UNL     1     110.607 129.354 137.844  0.00  0.00    +0.000 A 
ATOM      8  C   UNL     1     109.733 130.808 137.654  0.00  0.00    +0.000 A 
ATOM      9  C   UNL     1     110.887 129.933 137.328  0.00  0.00    +0.000 A 
ATOM     10  C   UNL     1     110.461 130.671 137.219  0.00  0.00    +0.000 A 
ATOM     11  C   UNL     1     109.880 129.472 138.288  0.00  0.00    +0.000 A 
ATOM     12  C   UNL     1     109.439 130.205 138.192  0.00  0.00    +0.000 A 
ENDROOT
BRANCH   5  14
ATOM     13  O   UNL     1     114.801 128.601 135.325  0.00  0.00    +0.000 OA
ATOM     14  C   UNL     1     112.703 128.977 136.585  0.00  0.00    +0.000 A 
ATOM     15  C   UNL     1     113.412 129.298 136.858  0.00  0.00    +0.000 A 
ATOM     16  C   UNL     1     112.694 128.530 135.891  0.00  0.00    +0.000 A 
ATOM     17  C   UNL     1     114.111 129.173 136.438  0.00  0.00    +0.000 A 
ATOM     18  C   UNL     1     113.392 128.405 135.471  0.00  0.00    +0.000 A 
ATOM     19  C   UNL     1     114.101 128.726 135.745  0.00  0.00    +0.000 A 
ENDBRANCH   5  14
BRANCH   4  20
ATOM     20  O   UNL     1     112.141 127.819 137.617  0.00  0.00    +0.000 OA
BRANCH  20  27
ATOM     21  O   UNL     1     112.672 128.060 138.922  0.00  0.00    +0.000 OA
ATOM     22  O   UNL     1     112.186 125.716 139.552  0.00  0.00    +0.000 OA
ATOM     23  O   UNL     1     112.879 126.738 140.647  0.00  0.00    +0.000 OA
ATOM     24  C   UNL     1     112.163 126.767 138.584  0.00  0.00    +0.000 C 
ATOM     25  C   UNL     1     112.348 126.497 139.342  0.00  0.00    +0.000 C 
ATOM     26  C   UNL     1     112.694 127.008 139.889  0.00  0.00    +0.000 C 
ATOM     27  C   UNL     1     112.325 127.548 138.374  0.00  0.00    +0.000 C 
ATOM     28  C   UNL     1     112.857 127.789 139.679  0.00  0.00    +0.000 C 
BRANCH  28  30
ATOM     29  O   UNL     1     113.877 128.729 140.019  0.00  0.00    +0.000 OA
ATOM     30  C   UNL     1     113.204 128.300 140.226  0.00  0.00    +0.000 C 
ENDBRANCH  28  30
BRANCH  24  31
ATOM     31  O   UNL     1     111.817 126.257 138.037  0.00  0.00    +0.000 OA
BRANCH  31  36
ATOM     32  O   UNL     1     113.097 125.776 137.624  0.00  0.00    +0.000 OA
ATOM     33  O   UNL     1     111.098 124.956 137.321  0.00  0.00    +0.000 OA
ATOM     34  O   UNL     1     112.019 123.825 136.550  0.00  0.00    +0.000 OA
ATOM     35  O   UNL     1     113.659 123.995 136.494  0.00  0.00    +0.000 OA
ATOM     36  C   UNL     1     112.277 125.691 137.652  0.00  0.00    +0.000 C 
ATOM     37  C   UNL     1     111.918 125.040 137.293  0.00  0.00    +0.000 C 
ATOM     38  C   UNL     1     112.378 124.475 136.907  0.00  0.00    +0.000 C 
ATOM     39  C   UNL     1     113.199 124.561 136.880  0.00  0.00    +0.000 C 
ATOM     40  C   UNL     1     113.558 125.211 137.238  0.00  0.00    +0.000 C 
BRANCH  40  42
ATOM     41  O   UNL     1     114.841 125.045 137.845  0.00  0.00    +0.000 OA
ATOM     42  C   UNL     1     114.378 125.296 137.211  0.00  0.00    +0.000 C 
ENDBRANCH  40  42
ENDBRANCH  31  36
ENDBRANCH  24  31
ENDBRANCH  20  27
ENDBRANCH   4  20
BRANCH   8  43
ATOM     43  O   UNL     1     109.317 131.513 137.555  0.00  0.00    +0.000 OA
BRANCH  43  52
ATOM     44  O   UNL     1     108.931 131.432 136.181  0.00  0.00    +0.000 OA
ATOM     45  O   UNL     1     106.611 132.038 136.798  0.00  0.00    +0.000 OA
ATOM     46  O   UNL     1     106.998 131.755 135.219  0.00  0.00    +0.000 OA
ATOM     47  O   UNL     1     107.771 131.917 137.966  0.00  0.00    +0.000 OA
ATOM     48  C   UNL     1     107.384 131.836 136.592  0.00  0.00    +0.000 C 
ATOM     49  C   UNL     1     107.578 131.694 135.803  0.00  0.00    +0.000 C 
ATOM     50  C   UNL     1     107.964 131.776 137.176  0.00  0.00    +0.000 C 
ATOM     51  C   UNL     1     108.351 131.493 135.597  0.00  0.00    +0.000 C 
ATOM     52  C   UNL     1     108.737 131.574 136.971  0.00  0.00    +0.000 C 
BRANCH  51  54
ATOM     53  O   UNL     1     109.048 130.727 134.612  0.00  0.00    +0.000 OA
ATOM     54  C   UNL     1     108.544 131.351 134.808  0.00  0.00    +0.000 C 
ENDBRANCH  51  54
ENDBRANCH  43  52
ENDBRANCH   8  43
TORSDOF 10
ENDMDL
MODEL 10
REMARK VINA RESULT:      -9.7      2.861      7.569
REMARK  Name = 12960459
REMARK  10 active torsions:
REMARK  status: ('A' for Active; 'I' for Inactive)
REMARK    1  A    between atoms: O_1  and  C_22
REMARK    2  A    between atoms: O_1  and  C_25
REMARK    3  A    between atoms: O_4  and  C_27
REMARK    4  A    between atoms: O_4  and  C_39
REMARK    5  A    between atoms: O_13  and  C_38
REMARK    6  A    between atoms: O_13  and  C_44
REMARK    7  A    between atoms: C_28  and  C_32
REMARK    8  A    between atoms: C_31  and  C_33
REMARK    9  A    between atoms: C_37  and  C_40
REMARK   10  A    between atoms: C_41  and  C_48
REMARK                            x       y       z     vdW  Elec       q    Type
REMARK                         _______ _______ _______ _____ _____    ______ ____
ROOT
ATOM      1  O   UNL     1     110.194 130.417 142.999  0.00  0.00    +0.000 OA
ATOM      2  O   UNL     1     111.904 131.412 141.513  0.00  0.00    +0.000 OA
ATOM      3  O   UNL     1     112.705 131.802 142.647  0.00  0.00    +0.000 OA
ATOM      4  C   UNL     1     110.662 130.727 141.686  0.00  0.00    +0.000 A 
ATOM      5  C   UNL     1     110.092 130.395 142.181  0.00  0.00    +0.000 A 
ATOM      6  C   UNL     1     111.334 131.080 142.008  0.00  0.00    +0.000 A 
ATOM      7  C   UNL     1     111.436 131.102 142.826  0.00  0.00    +0.000 A 
ATOM      8  C   UNL     1     111.658 131.153 144.518  0.00  0.00    +0.000 A 
ATOM      9  C   UNL     1     110.866 130.770 143.322  0.00  0.00    +0.000 A 
ATOM     10  C   UNL     1     110.960 130.786 144.176  0.00  0.00    +0.000 A 
ATOM     11  C   UNL     1     112.140 131.473 143.150  0.00  0.00    +0.000 A 
ATOM     12  C   UNL     1     112.252 131.499 144.002  0.00  0.00    +0.000 A 
ENDROOT
BRANCH   5  14
ATOM     13  O   UNL     1     107.403 128.982 140.890  0.00  0.00    +0.000 OA
ATOM     14  C   UNL     1     109.420 130.042 141.858  0.00  0.00    +0.000 A 
ATOM     15  C   UNL     1     108.773 130.506 141.643  0.00  0.00    +0.000 A 
ATOM     16  C   UNL     1     109.394 129.224 141.751  0.00  0.00    +0.000 A 
ATOM     17  C   UNL     1     108.100 130.153 141.320  0.00  0.00    +0.000 A 
ATOM     18  C   UNL     1     108.723 128.871 141.429  0.00  0.00    +0.000 A 
ATOM     19  C   UNL     1     108.076 129.335 141.213  0.00  0.00    +0.000 A 
ENDBRANCH   5  14
BRANCH   4  20
ATOM     20  O   UNL     1     110.560 130.705 140.867  0.00  0.00    +0.000 OA
BRANCH  20  27
ATOM     21  O   UNL     1     111.563 129.715 140.630  0.00  0.00    +0.000 OA
ATOM     22  O   UNL     1     112.093 130.773 138.456  0.00  0.00    +0.000 OA
ATOM     23  O   UNL     1     112.919 129.430 138.943  0.00  0.00    +0.000 OA
ATOM     24  C   UNL     1     111.326 130.739 139.661  0.00  0.00    +0.000 C 
ATOM     25  C   UNL     1     111.916 130.420 139.181  0.00  0.00    +0.000 C 
ATOM     26  C   UNL     1     112.329 129.749 139.424  0.00  0.00    +0.000 C 
ATOM     27  C   UNL     1     111.150 130.387 140.386  0.00  0.00    +0.000 C 
ATOM     28  C   UNL     1     112.152 129.397 140.149  0.00  0.00    +0.000 C 
BRANCH  28  30
ATOM     29  O   UNL     1     112.160 128.020 140.532  0.00  0.00    +0.000 OA
ATOM     30  C   UNL     1     112.566 128.725 140.393  0.00  0.00    +0.000 C 
ENDBRANCH  28  30
BRANCH  24  31
ATOM     31  O   UNL     1     110.914 131.410 139.418  0.00  0.00    +0.000 OA
BRANCH  31  36
ATOM     32  O   UNL     1     110.133 130.609 138.529  0.00  0.00    +0.000 OA
ATOM     33  O   UNL     1     110.032 132.739 138.994  0.00  0.00    +0.000 OA
ATOM     34  O   UNL     1     108.811 132.601 137.893  0.00  0.00    +0.000 OA
ATOM     35  O   UNL     1     108.471 131.135 137.216  0.00  0.00    +0.000 OA
ATOM     36  C   UNL     1     110.303 131.341 138.867  0.00  0.00    +0.000 C 
ATOM     37  C   UNL     1     109.862 132.006 138.655  0.00  0.00    +0.000 C 
ATOM     38  C   UNL     1     109.251 131.937 138.105  0.00  0.00    +0.000 C 
ATOM     39  C   UNL     1     109.082 131.204 137.766  0.00  0.00    +0.000 C 
ATOM     40  C   UNL     1     109.522 130.540 137.978  0.00  0.00    +0.000 C 
BRANCH  40  42
ATOM     41  O   UNL     1     109.052 129.197 138.106  0.00  0.00    +0.000 OA
ATOM     42  C   UNL     1     109.353 129.807 137.640  0.00  0.00    +0.000 C 
ENDBRANCH  40  42
ENDBRANCH  31  36
ENDBRANCH  24  31
ENDBRANCH  20  27
ENDBRANCH   4  20
BRANCH   8  43
ATOM     43  O   UNL     1     111.757 131.173 145.337  0.00  0.00    +0.000 OA
BRANCH  43  52
ATOM     44  O   UNL     1     110.879 132.279 145.563  0.00  0.00    +0.000 OA
ATOM     45  O   UNL     1     112.319 133.039 147.427  0.00  0.00    +0.000 OA
ATOM     46  O   UNL     1     110.962 133.891 147.033  0.00  0.00    +0.000 OA
ATOM     47  O   UNL     1     112.716 131.681 146.579  0.00  0.00    +0.000 OA
ATOM     48  C   UNL     1     111.839 132.786 146.806  0.00  0.00    +0.000 C 
ATOM     49  C   UNL     1     111.161 133.211 146.609  0.00  0.00    +0.000 C 
ATOM     50  C   UNL     1     112.038 132.107 146.382  0.00  0.00    +0.000 C 
ATOM     51  C   UNL     1     110.680 132.958 145.987  0.00  0.00    +0.000 C 
ATOM     52  C   UNL     1     111.558 131.853 145.761  0.00  0.00    +0.000 C 
BRANCH  51  54
ATOM     53  O   UNL     1     109.957 133.775 145.064  0.00  0.00    +0.000 OA
ATOM     54  C   UNL     1     110.002 133.383 145.790  0.00  0.00    +0.000 C 
ENDBRANCH  51  54
ENDBRANCH  43  52
ENDBRANCH   8  43
TORSDOF 10
ENDMDL
