MODEL 1
REMARK VINA RESULT:      -8.8      0.000      0.000
REMARK  Name = 44259790
REMARK  6 active torsions:
REMARK  status: ('A' for Active; 'I' for Inactive)
REMARK    1  A    between atoms: O_2  and  C_18
REMARK    2  A    between atoms: O_2  and  C_20
REMARK    3  A    between atoms: O_10  and  C_28
REMARK    4  A    between atoms: O_12  and  C_32
REMARK    5  A    between atoms: C_17  and  C_19
REMARK    6  A    between atoms: C_21  and  C_25
REMARK                            x       y       z     vdW  Elec       q    Type
REMARK                         _______ _______ _______ _____ _____    ______ ____
ROOT
ATOM      1  O   UNL     1     112.894 127.041 136.477  0.00  0.00    +0.000 OA
ATOM      2  O   UNL     1     112.873 128.351 138.578  0.00  0.00    +0.000 OA
ATOM      3  O   UNL     1     112.308 129.490 137.896  0.00  0.00    +0.000 OA
ATOM      4  O   UNL     1     111.754 129.299 135.034  0.00  0.00    +0.000 OA
ATOM      5  C   UNL     1     113.164 127.139 137.878  0.00  0.00    +0.000 A 
ATOM      6  C   UNL     1     113.171 126.702 137.178  0.00  0.00    +0.000 A 
ATOM      7  C   UNL     1     112.881 127.914 137.878  0.00  0.00    +0.000 A 
ATOM      8  C   UNL     1     112.604 128.252 137.177  0.00  0.00    +0.000 A 
ATOM      9  C   UNL     1     112.611 127.816 136.478  0.00  0.00    +0.000 A 
ATOM     10  C   UNL     1     112.311 129.060 137.191  0.00  0.00    +0.000 A 
ATOM     11  C   UNL     1     112.326 128.156 135.742  0.00  0.00    +0.000 A 
ATOM     12  C   UNL     1     112.022 129.418 136.465  0.00  0.00    +0.000 A 
ATOM     13  C   UNL     1     112.029 128.963 135.736  0.00  0.00    +0.000 A 
ENDROOT
BRANCH   6  15
ATOM     14  O   UNL     1     114.305 123.603 137.177  0.00  0.00    +0.000 OA
ATOM     15  C   UNL     1     113.454 125.928 137.178  0.00  0.00    +0.000 A 
ATOM     16  C   UNL     1     112.928 125.296 137.106  0.00  0.00    +0.000 A 
ATOM     17  C   UNL     1     114.263 125.785 137.250  0.00  0.00    +0.000 A 
ATOM     18  C   UNL     1     113.212 124.521 137.106  0.00  0.00    +0.000 A 
ATOM     19  C   UNL     1     114.547 125.009 137.249  0.00  0.00    +0.000 A 
ATOM     20  C   UNL     1     114.021 124.378 137.177  0.00  0.00    +0.000 A 
BRANCH  18  21
ATOM     21  O   UNL     1     112.686 123.889 137.034  0.00  0.00    +0.000 OA
ATOM     22  C   UNL     1     112.003 123.970 136.576  0.00  0.00    +0.000 C 
ENDBRANCH  18  21
ENDBRANCH   6  15
BRANCH  12  23
ATOM     23  O   UNL     1     111.740 130.193 136.468  0.00  0.00    +0.000 OA
ATOM     24  C   UNL     1     110.927 130.336 136.480  0.00  0.00    +0.000 C 
ENDBRANCH  12  23
BRANCH   5  25
ATOM     25  O   UNL     1     113.440 126.801 138.578  0.00  0.00    +0.000 OA
BRANCH  25  34
ATOM     26  O   UNL     1     112.140 126.567 139.123  0.00  0.00    +0.000 OA
ATOM     27  O   UNL     1     113.040 126.887 141.406  0.00  0.00    +0.000 OA
ATOM     28  O   UNL     1     111.441 126.547 141.190  0.00  0.00    +0.000 OA
ATOM     29  O   UNL     1     114.040 127.015 140.100  0.00  0.00    +0.000 OA
ATOM     30  C   UNL     1     112.740 126.781 140.645  0.00  0.00    +0.000 C 
ATOM     31  C   UNL     1     111.940 126.610 140.536  0.00  0.00    +0.000 C 
ATOM     32  C   UNL     1     113.240 126.844 139.991  0.00  0.00    +0.000 C 
ATOM     33  C   UNL     1     111.641 126.503 139.776  0.00  0.00    +0.000 C 
ATOM     34  C   UNL     1     112.941 126.738 139.231  0.00  0.00    +0.000 C 
BRANCH  33  36
ATOM     35  O   UNL     1     110.613 125.595 139.376  0.00  0.00    +0.000 OA
ATOM     36  C   UNL     1     110.841 126.333 139.667  0.00  0.00    +0.000 C 
ENDBRANCH  33  36
ENDBRANCH  25  34
ENDBRANCH   5  25
TORSDOF 6
ENDMDL
MODEL 2
REMARK VINA RESULT:      -8.8      1.320      1.637
REMARK  Name = 44259790
REMARK  6 active torsions:
REMARK  status: ('A' for Active; 'I' for Inactive)
REMARK    1  A    between atoms: O_2  and  C_18
REMARK    2  A    between atoms: O_2  and  C_20
REMARK    3  A    between atoms: O_10  and  C_28
REMARK    4  A    between atoms: O_12  and  C_32
REMARK    5  A    between atoms: C_17  and  C_19
REMARK    6  A    between atoms: C_21  and  C_25
REMARK                            x       y       z     vdW  Elec       q    Type
REMARK                         _______ _______ _______ _____ _____    ______ ____
ROOT
ATOM      1  O   UNL     1     112.959 127.252 136.263  0.00  0.00    +0.000 OA
ATOM      2  O   UNL     1     112.949 128.048 138.607  0.00  0.00    +0.000 OA
ATOM      3  O   UNL     1     113.394 129.357 138.194  0.00  0.00    +0.000 OA
ATOM      4  O   UNL     1     113.857 129.870 135.356  0.00  0.00    +0.000 OA
ATOM      5  C   UNL     1     112.733 127.006 137.653  0.00  0.00    +0.000 A 
ATOM      6  C   UNL     1     112.736 126.740 136.872  0.00  0.00    +0.000 A 
ATOM      7  C   UNL     1     112.952 127.782 137.826  0.00  0.00    +0.000 A 
ATOM      8  C   UNL     1     113.174 128.294 137.217  0.00  0.00    +0.000 A 
ATOM      9  C   UNL     1     113.177 128.029 136.436  0.00  0.00    +0.000 A 
ATOM     10  C   UNL     1     113.400 129.100 137.410  0.00  0.00    +0.000 A 
ATOM     11  C   UNL     1     113.406 128.551 135.793  0.00  0.00    +0.000 A 
ATOM     12  C   UNL     1     113.632 129.637 136.780  0.00  0.00    +0.000 A 
ATOM     13  C   UNL     1     113.636 129.361 135.966  0.00  0.00    +0.000 A 
ENDROOT
BRANCH   6  15
ATOM     14  O   UNL     1     111.862 123.634 136.180  0.00  0.00    +0.000 OA
ATOM     15  C   UNL     1     112.518 125.965 136.699  0.00  0.00    +0.000 A 
ATOM     16  C   UNL     1     111.790 125.810 136.341  0.00  0.00    +0.000 A 
ATOM     17  C   UNL     1     113.027 125.342 136.884  0.00  0.00    +0.000 A 
ATOM     18  C   UNL     1     111.572 125.034 136.169  0.00  0.00    +0.000 A 
ATOM     19  C   UNL     1     112.808 124.565 136.711  0.00  0.00    +0.000 A 
ATOM     20  C   UNL     1     112.080 124.411 136.353  0.00  0.00    +0.000 A 
BRANCH  18  21
ATOM     21  O   UNL     1     110.844 124.879 135.811  0.00  0.00    +0.000 OA
ATOM     22  C   UNL     1     110.479 125.460 135.351  0.00  0.00    +0.000 C 
ENDBRANCH  18  21
ENDBRANCH   6  15
BRANCH  12  23
ATOM     23  O   UNL     1     113.850 130.413 136.956  0.00  0.00    +0.000 OA
ATOM     24  C   UNL     1     113.304 131.025 136.871  0.00  0.00    +0.000 C 
ENDBRANCH  12  23
BRANCH   5  25
ATOM     25  O   UNL     1     112.511 126.495 138.261  0.00  0.00    +0.000 OA
BRANCH  25  34
ATOM     26  O   UNL     1     111.232 127.104 138.450  0.00  0.00    +0.000 OA
ATOM     27  O   UNL     1     111.273 126.448 140.836  0.00  0.00    +0.000 OA
ATOM     28  O   UNL     1     109.981 127.274 140.230  0.00  0.00    +0.000 OA
ATOM     29  O   UNL     1     112.538 126.058 139.852  0.00  0.00    +0.000 OA
ATOM     30  C   UNL     1     111.259 126.666 140.041  0.00  0.00    +0.000 C 
ATOM     31  C   UNL     1     110.613 127.080 139.737  0.00  0.00    +0.000 C 
ATOM     32  C   UNL     1     111.892 126.471 139.548  0.00  0.00    +0.000 C 
ATOM     33  C   UNL     1     110.600 127.298 138.943  0.00  0.00    +0.000 C 
ATOM     34  C   UNL     1     111.879 126.690 138.754  0.00  0.00    +0.000 C 
BRANCH  33  36
ATOM     35  O   UNL     1     109.455 127.350 138.088  0.00  0.00    +0.000 OA
ATOM     36  C   UNL     1     109.954 127.711 138.639  0.00  0.00    +0.000 C 
ENDBRANCH  33  36
ENDBRANCH  25  34
ENDBRANCH   5  25
TORSDOF 6
ENDMDL
MODEL 3
REMARK VINA RESULT:      -8.6      2.108      4.692
REMARK  Name = 44259790
REMARK  6 active torsions:
REMARK  status: ('A' for Active; 'I' for Inactive)
REMARK    1  A    between atoms: O_2  and  C_18
REMARK    2  A    between atoms: O_2  and  C_20
REMARK    3  A    between atoms: O_10  and  C_28
REMARK    4  A    between atoms: O_12  and  C_32
REMARK    5  A    between atoms: C_17  and  C_19
REMARK    6  A    between atoms: C_21  and  C_25
REMARK                            x       y       z     vdW  Elec       q    Type
REMARK                         _______ _______ _______ _____ _____    ______ ____
ROOT
ATOM      1  O   UNL     1     113.396 127.022 136.684  0.00  0.00    +0.000 OA
ATOM      2  O   UNL     1     111.232 126.581 135.564  0.00  0.00    +0.000 OA
ATOM      3  O   UNL     1     111.361 125.165 135.810  0.00  0.00    +0.000 OA
ATOM      4  O   UNL     1     113.723 124.177 137.216  0.00  0.00    +0.000 OA
ATOM      5  C   UNL     1     112.238 127.500 135.996  0.00  0.00    +0.000 A 
ATOM      6  C   UNL     1     112.959 127.648 136.369  0.00  0.00    +0.000 A 
ATOM      7  C   UNL     1     111.953 126.729 135.938  0.00  0.00    +0.000 A 
ATOM      8  C   UNL     1     112.390 126.103 136.253  0.00  0.00    +0.000 A 
ATOM      9  C   UNL     1     113.111 126.250 136.626  0.00  0.00    +0.000 A 
ATOM     10  C   UNL     1     112.083 125.303 136.185  0.00  0.00    +0.000 A 
ATOM     11  C   UNL     1     113.575 125.608 136.957  0.00  0.00    +0.000 A 
ATOM     12  C   UNL     1     112.534 124.648 136.511  0.00  0.00    +0.000 A 
ATOM     13  C   UNL     1     113.285 124.801 136.900  0.00  0.00    +0.000 A 
ENDROOT
BRANCH   6  15
ATOM     14  O   UNL     1     114.097 130.737 136.603  0.00  0.00    +0.000 OA
ATOM     15  C   UNL     1     113.243 128.420 136.428  0.00  0.00    +0.000 A 
ATOM     16  C   UNL     1     113.199 128.823 137.146  0.00  0.00    +0.000 A 
ATOM     17  C   UNL     1     113.572 128.789 135.767  0.00  0.00    +0.000 A 
ATOM     18  C   UNL     1     113.484 129.594 137.205  0.00  0.00    +0.000 A 
ATOM     19  C   UNL     1     113.856 129.562 135.826  0.00  0.00    +0.000 A 
ATOM     20  C   UNL     1     113.812 129.964 136.544  0.00  0.00    +0.000 A 
BRANCH  18  21
ATOM     21  O   UNL     1     113.440 129.998 137.924  0.00  0.00    +0.000 OA
ATOM     22  C   UNL     1     113.474 129.578 138.634  0.00  0.00    +0.000 C 
ENDBRANCH  18  21
ENDBRANCH   6  15
BRANCH  12  23
ATOM     23  O   UNL     1     112.247 123.877 136.451  0.00  0.00    +0.000 OA
ATOM     24  C   UNL     1     111.938 123.498 137.116  0.00  0.00    +0.000 C 
ENDBRANCH  12  23
BRANCH   5  25
ATOM     25  O   UNL     1     111.801 128.126 135.681  0.00  0.00    +0.000 OA
BRANCH  25  34
ATOM     26  O   UNL     1     110.818 128.114 136.718  0.00  0.00    +0.000 OA
ATOM     27  O   UNL     1     109.117 128.927 135.114  0.00  0.00    +0.000 OA
ATOM     28  O   UNL     1     108.701 128.644 136.685  0.00  0.00    +0.000 OA
ATOM     29  O   UNL     1     110.667 128.668 134.612  0.00  0.00    +0.000 OA
ATOM     30  C   UNL     1     109.684 128.656 135.649  0.00  0.00    +0.000 C 
ATOM     31  C   UNL     1     109.476 128.514 136.435  0.00  0.00    +0.000 C 
ATOM     32  C   UNL     1     110.460 128.526 135.398  0.00  0.00    +0.000 C 
ATOM     33  C   UNL     1     110.043 128.243 136.968  0.00  0.00    +0.000 C 
ATOM     34  C   UNL     1     111.026 128.255 135.932  0.00  0.00    +0.000 C 
BRANCH  33  36
ATOM     35  O   UNL     1     110.185 128.542 138.359  0.00  0.00    +0.000 OA
ATOM     36  C   UNL     1     109.835 128.102 137.754  0.00  0.00    +0.000 C 
ENDBRANCH  33  36
ENDBRANCH  25  34
ENDBRANCH   5  25
TORSDOF 6
ENDMDL
MODEL 4
REMARK VINA RESULT:      -8.6      1.840      3.592
REMARK  Name = 44259790
REMARK  6 active torsions:
REMARK  status: ('A' for Active; 'I' for Inactive)
REMARK    1  A    between atoms: O_2  and  C_18
REMARK    2  A    between atoms: O_2  and  C_20
REMARK    3  A    between atoms: O_10  and  C_28
REMARK    4  A    between atoms: O_12  and  C_32
REMARK    5  A    between atoms: C_17  and  C_19
REMARK    6  A    between atoms: C_21  and  C_25
REMARK                            x       y       z     vdW  Elec       q    Type
REMARK                         _______ _______ _______ _____ _____    ______ ____
ROOT
ATOM      1  O   UNL     1     111.497 126.834 136.778  0.00  0.00    +0.000 OA
ATOM      2  O   UNL     1     112.045 128.780 135.349  0.00  0.00    +0.000 OA
ATOM      3  O   UNL     1     110.645 129.060 135.143  0.00  0.00    +0.000 OA
ATOM      4  O   UNL     1     108.652 127.339 136.407  0.00  0.00    +0.000 OA
ATOM      5  C   UNL     1     112.468 127.680 136.157  0.00  0.00    +0.000 A 
ATOM      6  C   UNL     1     112.286 127.031 136.634  0.00  0.00    +0.000 A 
ATOM      7  C   UNL     1     111.863 128.132 135.825  0.00  0.00    +0.000 A 
ATOM      8  C   UNL     1     111.074 127.935 135.970  0.00  0.00    +0.000 A 
ATOM      9  C   UNL     1     110.892 127.287 136.446  0.00  0.00    +0.000 A 
ATOM     10  C   UNL     1     110.453 128.413 135.618  0.00  0.00    +0.000 A 
ATOM     11  C   UNL     1     110.075 127.071 136.604  0.00  0.00    +0.000 A 
ATOM     12  C   UNL     1     109.630 128.213 135.765  0.00  0.00    +0.000 A 
ATOM     13  C   UNL     1     109.440 127.538 136.261  0.00  0.00    +0.000 A 
ENDROOT
BRANCH   6  15
ATOM     14  O   UNL     1     114.707 125.224 137.961  0.00  0.00    +0.000 OA
ATOM     15  C   UNL     1     112.890 126.580 136.965  0.00  0.00    +0.000 A 
ATOM     16  C   UNL     1     113.056 126.639 137.771  0.00  0.00    +0.000 A 
ATOM     17  C   UNL     1     113.331 126.068 136.491  0.00  0.00    +0.000 A 
ATOM     18  C   UNL     1     113.661 126.188 138.103  0.00  0.00    +0.000 A 
ATOM     19  C   UNL     1     113.936 125.616 136.823  0.00  0.00    +0.000 A 
ATOM     20  C   UNL     1     114.101 125.676 137.629  0.00  0.00    +0.000 A 
BRANCH  18  21
ATOM     21  O   UNL     1     113.827 126.247 138.909  0.00  0.00    +0.000 OA
ATOM     22  C   UNL     1     113.238 126.491 139.434  0.00  0.00    +0.000 C 
ENDBRANCH  18  21
ENDBRANCH   6  15
BRANCH  12  23
ATOM     23  O   UNL     1     109.027 128.667 135.432  0.00  0.00    +0.000 OA
ATOM     24  C   UNL     1     108.656 129.253 135.879  0.00  0.00    +0.000 C 
ENDBRANCH  12  23
BRANCH   5  25
ATOM     25  O   UNL     1     113.256 127.877 136.013  0.00  0.00    +0.000 OA
BRANCH  25  34
ATOM     26  O   UNL     1     113.257 129.008 136.885  0.00  0.00    +0.000 OA
ATOM     27  O   UNL     1     114.936 130.118 135.444  0.00  0.00    +0.000 OA
ATOM     28  O   UNL     1     114.378 130.879 136.796  0.00  0.00    +0.000 OA
ATOM     29  O   UNL     1     114.375 128.616 135.052  0.00  0.00    +0.000 OA
ATOM     30  C   UNL     1     114.376 129.748 135.924  0.00  0.00    +0.000 C 
ATOM     31  C   UNL     1     114.097 130.128 136.601  0.00  0.00    +0.000 C 
ATOM     32  C   UNL     1     114.095 128.997 135.728  0.00  0.00    +0.000 C 
ATOM     33  C   UNL     1     113.538 129.759 137.081  0.00  0.00    +0.000 C 
ATOM     34  C   UNL     1     113.537 128.627 136.208  0.00  0.00    +0.000 C 
BRANCH  33  36
ATOM     35  O   UNL     1     113.409 129.817 138.503  0.00  0.00    +0.000 OA
ATOM     36  C   UNL     1     113.259 130.139 137.757  0.00  0.00    +0.000 C 
ENDBRANCH  33  36
ENDBRANCH  25  34
ENDBRANCH   5  25
TORSDOF 6
ENDMDL
MODEL 5
REMARK VINA RESULT:      -8.5      1.164      3.541
REMARK  Name = 44259790
REMARK  6 active torsions:
REMARK  status: ('A' for Active; 'I' for Inactive)
REMARK    1  A    between atoms: O_2  and  C_18
REMARK    2  A    between atoms: O_2  and  C_20
REMARK    3  A    between atoms: O_10  and  C_28
REMARK    4  A    between atoms: O_12  and  C_32
REMARK    5  A    between atoms: C_17  and  C_19
REMARK    6  A    between atoms: C_21  and  C_25
REMARK                            x       y       z     vdW  Elec       q    Type
REMARK                         _______ _______ _______ _____ _____    ______ ____
ROOT
ATOM      1  O   UNL     1     112.939 128.448 138.239  0.00  0.00    +0.000 OA
ATOM      2  O   UNL     1     112.306 127.146 136.231  0.00  0.00    +0.000 OA
ATOM      3  O   UNL     1     112.799 128.189 135.364  0.00  0.00    +0.000 OA
ATOM      4  O   UNL     1     113.953 130.595 136.553  0.00  0.00    +0.000 OA
ATOM      5  C   UNL     1     112.375 127.272 137.653  0.00  0.00    +0.000 A 
ATOM      6  C   UNL     1     112.586 127.706 138.323  0.00  0.00    +0.000 A 
ATOM      7  C   UNL     1     112.517 127.579 136.901  0.00  0.00    +0.000 A 
ATOM      8  C   UNL     1     112.870 128.321 136.818  0.00  0.00    +0.000 A 
ATOM      9  C   UNL     1     113.081 128.754 137.487  0.00  0.00    +0.000 A 
ATOM     10  C   UNL     1     113.013 128.630 136.029  0.00  0.00    +0.000 A 
ATOM     11  C   UNL     1     113.449 129.527 137.414  0.00  0.00    +0.000 A 
ATOM     12  C   UNL     1     113.380 129.401 135.936  0.00  0.00    +0.000 A 
ATOM     13  C   UNL     1     113.600 129.853 136.633  0.00  0.00    +0.000 A 
ENDROOT
BRANCH   6  15
ATOM     14  O   UNL     1     112.017 126.477 141.332  0.00  0.00    +0.000 OA
ATOM     15  C   UNL     1     112.444 127.399 139.074  0.00  0.00    +0.000 A 
ATOM     16  C   UNL     1     113.075 127.160 139.549  0.00  0.00    +0.000 A 
ATOM     17  C   UNL     1     111.670 127.330 139.353  0.00  0.00    +0.000 A 
ATOM     18  C   UNL     1     112.933 126.853 140.301  0.00  0.00    +0.000 A 
ATOM     19  C   UNL     1     111.528 127.023 140.106  0.00  0.00    +0.000 A 
ATOM     20  C   UNL     1     112.160 126.784 140.579  0.00  0.00    +0.000 A 
BRANCH  18  21
ATOM     21  O   UNL     1     113.564 126.614 140.776  0.00  0.00    +0.000 OA
ATOM     22  C   UNL     1     114.276 127.034 140.758  0.00  0.00    +0.000 C 
ENDBRANCH  18  21
ENDBRANCH   6  15
BRANCH  12  23
ATOM     23  O   UNL     1     113.521 129.706 135.183  0.00  0.00    +0.000 OA
ATOM     24  C   UNL     1     114.273 129.653 134.849  0.00  0.00    +0.000 C 
ENDBRANCH  12  23
BRANCH   5  25
ATOM     25  O   UNL     1     112.022 126.531 137.736  0.00  0.00    +0.000 OA
BRANCH  25  34
ATOM     26  O   UNL     1     113.199 125.799 137.387  0.00  0.00    +0.000 OA
ATOM     27  O   UNL     1     111.794 124.003 136.422  0.00  0.00    +0.000 OA
ATOM     28  O   UNL     1     113.438 123.870 136.395  0.00  0.00    +0.000 OA
ATOM     29  O   UNL     1     111.086 125.334 137.093  0.00  0.00    +0.000 OA
ATOM     30  C   UNL     1     112.262 124.602 136.743  0.00  0.00    +0.000 C 
ATOM     31  C   UNL     1     113.085 124.535 136.730  0.00  0.00    +0.000 C 
ATOM     32  C   UNL     1     111.908 125.268 137.079  0.00  0.00    +0.000 C 
ATOM     33  C   UNL     1     113.552 125.133 137.051  0.00  0.00    +0.000 C 
ATOM     34  C   UNL     1     112.376 125.866 137.400  0.00  0.00    +0.000 C 
BRANCH  33  36
ATOM     35  O   UNL     1     114.798 125.054 137.746  0.00  0.00    +0.000 OA
ATOM     36  C   UNL     1     114.374 125.067 137.038  0.00  0.00    +0.000 C 
ENDBRANCH  33  36
ENDBRANCH  25  34
ENDBRANCH   5  25
TORSDOF 6
ENDMDL
MODEL 6
REMARK VINA RESULT:      -8.5      1.314      3.848
REMARK  Name = 44259790
REMARK  6 active torsions:
REMARK  status: ('A' for Active; 'I' for Inactive)
REMARK    1  A    between atoms: O_2  and  C_18
REMARK    2  A    between atoms: O_2  and  C_20
REMARK    3  A    between atoms: O_10  and  C_28
REMARK    4  A    between atoms: O_12  and  C_32
REMARK    5  A    between atoms: C_17  and  C_19
REMARK    6  A    between atoms: C_21  and  C_25
REMARK                            x       y       z     vdW  Elec       q    Type
REMARK                         _______ _______ _______ _____ _____    ______ ____
ROOT
ATOM      1  O   UNL     1     113.217 126.196 138.926  0.00  0.00    +0.000 OA
ATOM      2  O   UNL     1     112.165 128.376 138.408  0.00  0.00    +0.000 OA
ATOM      3  O   UNL     1     112.827 128.995 139.530  0.00  0.00    +0.000 OA
ATOM      4  O   UNL     1     114.587 127.377 141.209  0.00  0.00    +0.000 OA
ATOM      5  C   UNL     1     112.357 126.992 138.108  0.00  0.00    +0.000 A 
ATOM      6  C   UNL     1     112.707 126.265 138.280  0.00  0.00    +0.000 A 
ATOM      7  C   UNL     1     112.515 127.649 138.580  0.00  0.00    +0.000 A 
ATOM      8  C   UNL     1     113.025 127.580 139.226  0.00  0.00    +0.000 A 
ATOM      9  C   UNL     1     113.375 126.854 139.399  0.00  0.00    +0.000 A 
ATOM     10  C   UNL     1     113.182 128.272 139.711  0.00  0.00    +0.000 A 
ATOM     11  C   UNL     1     113.907 126.768 140.068  0.00  0.00    +0.000 A 
ATOM     12  C   UNL     1     113.711 128.206 140.384  0.00  0.00    +0.000 A 
ATOM     13  C   UNL     1     114.077 127.449 140.564  0.00  0.00    +0.000 A 
ENDROOT
BRANCH   6  15
ATOM     14  O   UNL     1     112.073 123.636 136.390  0.00  0.00    +0.000 OA
ATOM     15  C   UNL     1     112.549 125.608 137.808  0.00  0.00    +0.000 A 
ATOM     16  C   UNL     1     113.122 125.328 137.284  0.00  0.00    +0.000 A 
ATOM     17  C   UNL     1     111.817 125.231 137.859  0.00  0.00    +0.000 A 
ATOM     18  C   UNL     1     112.963 124.671 136.812  0.00  0.00    +0.000 A 
ATOM     19  C   UNL     1     111.658 124.573 137.386  0.00  0.00    +0.000 A 
ATOM     20  C   UNL     1     112.232 124.294 136.863  0.00  0.00    +0.000 A 
BRANCH  18  21
ATOM     21  O   UNL     1     113.536 124.391 136.288  0.00  0.00    +0.000 OA
ATOM     22  C   UNL     1     114.324 124.625 136.374  0.00  0.00    +0.000 C 
ENDBRANCH  18  21
ENDBRANCH   6  15
BRANCH  12  23
ATOM     23  O   UNL     1     113.868 128.865 140.855  0.00  0.00    +0.000 OA
ATOM     24  C   UNL     1     114.521 129.343 140.693  0.00  0.00    +0.000 C 
ENDBRANCH  12  23
BRANCH   5  25
ATOM     25  O   UNL     1     111.847 127.062 137.462  0.00  0.00    +0.000 OA
BRANCH  25  34
ATOM     26  O   UNL     1     112.790 127.791 136.674  0.00  0.00    +0.000 OA
ATOM     27  O   UNL     1     110.929 128.887 135.464  0.00  0.00    +0.000 OA
ATOM     28  O   UNL     1     112.491 129.251 135.079  0.00  0.00    +0.000 OA
ATOM     29  O   UNL     1     110.607 127.792 136.656  0.00  0.00    +0.000 OA
ATOM     30  C   UNL     1     111.550 128.522 135.867  0.00  0.00    +0.000 C 
ATOM     31  C   UNL     1     112.331 128.703 135.675  0.00  0.00    +0.000 C 
ATOM     32  C   UNL     1     111.389 127.974 136.464  0.00  0.00    +0.000 C 
ATOM     33  C   UNL     1     112.950 128.338 136.078  0.00  0.00    +0.000 C 
ATOM     34  C   UNL     1     112.008 127.609 136.867  0.00  0.00    +0.000 C 
BRANCH  33  36
ATOM     35  O   UNL     1     114.247 127.921 135.648  0.00  0.00    +0.000 OA
ATOM     36  C   UNL     1     113.732 128.520 135.886  0.00  0.00    +0.000 C 
ENDBRANCH  33  36
ENDBRANCH  25  34
ENDBRANCH   5  25
TORSDOF 6
ENDMDL
MODEL 7
REMARK VINA RESULT:      -8.5      3.371      4.779
REMARK  Name = 44259790
REMARK  6 active torsions:
REMARK  status: ('A' for Active; 'I' for Inactive)
REMARK    1  A    between atoms: O_2  and  C_18
REMARK    2  A    between atoms: O_2  and  C_20
REMARK    3  A    between atoms: O_10  and  C_28
REMARK    4  A    between atoms: O_12  and  C_32
REMARK    5  A    between atoms: C_17  and  C_19
REMARK    6  A    between atoms: C_21  and  C_25
REMARK                            x       y       z     vdW  Elec       q    Type
REMARK                         _______ _______ _______ _____ _____    ______ ____
ROOT
ATOM      1  O   UNL     1     111.781 129.244 135.862  0.00  0.00    +0.000 OA
ATOM      2  O   UNL     1     112.210 131.430 136.942  0.00  0.00    +0.000 OA
ATOM      3  O   UNL     1     113.633 131.267 136.773  0.00  0.00    +0.000 OA
ATOM      4  O   UNL     1     114.642 128.846 135.486  0.00  0.00    +0.000 OA
ATOM      5  C   UNL     1     111.293 130.430 136.492  0.00  0.00    +0.000 A 
ATOM      6  C   UNL     1     111.149 129.702 136.132  0.00  0.00    +0.000 A 
ATOM      7  C   UNL     1     112.066 130.701 136.582  0.00  0.00    +0.000 A 
ATOM      8  C   UNL     1     112.698 130.243 136.312  0.00  0.00    +0.000 A 
ATOM      9  C   UNL     1     112.555 129.516 135.952  0.00  0.00    +0.000 A 
ATOM     10  C   UNL     1     113.500 130.537 136.411  0.00  0.00    +0.000 A 
ATOM     11  C   UNL     1     113.203 129.029 135.667  0.00  0.00    +0.000 A 
ATOM     12  C   UNL     1     114.161 130.065 136.132  0.00  0.00    +0.000 A 
ATOM     13  C   UNL     1     114.012 129.306 135.757  0.00  0.00    +0.000 A 
ENDROOT
BRANCH   6  15
ATOM     14  O   UNL     1     108.053 128.618 135.772  0.00  0.00    +0.000 OA
ATOM     15  C   UNL     1     110.376 129.431 136.043  0.00  0.00    +0.000 A 
ATOM     16  C   UNL     1     110.095 128.817 136.518  0.00  0.00    +0.000 A 
ATOM     17  C   UNL     1     109.882 129.773 135.477  0.00  0.00    +0.000 A 
ATOM     18  C   UNL     1     109.322 128.546 136.428  0.00  0.00    +0.000 A 
ATOM     19  C   UNL     1     109.107 129.502 135.387  0.00  0.00    +0.000 A 
ATOM     20  C   UNL     1     108.828 128.889 135.862  0.00  0.00    +0.000 A 
BRANCH  18  21
ATOM     21  O   UNL     1     109.041 127.933 136.903  0.00  0.00    +0.000 OA
ATOM     22  C   UNL     1     109.550 127.326 137.136  0.00  0.00    +0.000 C 
ENDBRANCH  18  21
ENDBRANCH   6  15
BRANCH  12  23
ATOM     23  O   UNL     1     114.934 130.338 136.223  0.00  0.00    +0.000 OA
ATOM     24  C   UNL     1     115.323 130.697 135.590  0.00  0.00    +0.000 C 
ENDBRANCH  12  23
BRANCH   5  25
ATOM     25  O   UNL     1     110.662 130.888 136.762  0.00  0.00    +0.000 OA
BRANCH  25  34
ATOM     26  O   UNL     1     110.873 130.588 138.143  0.00  0.00    +0.000 OA
ATOM     27  O   UNL     1     110.007 132.823 138.761  0.00  0.00    +0.000 OA
ATOM     28  O   UNL     1     110.507 131.778 139.936  0.00  0.00    +0.000 OA
ATOM     29  O   UNL     1     110.084 132.378 137.174  0.00  0.00    +0.000 OA
ATOM     30  C   UNL     1     110.296 132.078 138.555  0.00  0.00    +0.000 C 
ATOM     31  C   UNL     1     110.546 131.555 139.142  0.00  0.00    +0.000 C 
ATOM     32  C   UNL     1     110.334 131.855 137.761  0.00  0.00    +0.000 C 
ATOM     33  C   UNL     1     110.834 130.811 138.937  0.00  0.00    +0.000 C 
ATOM     34  C   UNL     1     110.623 131.111 137.556  0.00  0.00    +0.000 C 
BRANCH  33  36
ATOM     35  O   UNL     1     110.702 129.563 139.619  0.00  0.00    +0.000 OA
ATOM     36  C   UNL     1     111.084 130.288 139.524  0.00  0.00    +0.000 C 
ENDBRANCH  33  36
ENDBRANCH  25  34
ENDBRANCH   5  25
TORSDOF 6
ENDMDL
MODEL 8
REMARK VINA RESULT:      -8.4      1.900      3.947
REMARK  Name = 44259790
REMARK  6 active torsions:
REMARK  status: ('A' for Active; 'I' for Inactive)
REMARK    1  A    between atoms: O_2  and  C_18
REMARK    2  A    between atoms: O_2  and  C_20
REMARK    3  A    between atoms: O_10  and  C_28
REMARK    4  A    between atoms: O_12  and  C_32
REMARK    5  A    between atoms: C_17  and  C_19
REMARK    6  A    between atoms: C_21  and  C_25
REMARK                            x       y       z     vdW  Elec       q    Type
REMARK                         _______ _______ _______ _____ _____    ______ ____
ROOT
ATOM      1  O   UNL     1     113.248 126.660 138.509  0.00  0.00    +0.000 OA
ATOM      2  O   UNL     1     111.205 125.596 139.417  0.00  0.00    +0.000 OA
ATOM      3  O   UNL     1     111.082 124.766 138.244  0.00  0.00    +0.000 OA
ATOM      4  O   UNL     1     113.062 125.017 136.112  0.00  0.00    +0.000 OA
ATOM      5  C   UNL     1     112.276 126.534 139.550  0.00  0.00    +0.000 A 
ATOM      6  C   UNL     1     112.957 126.889 139.248  0.00  0.00    +0.000 A 
ATOM      7  C   UNL     1     111.886 125.951 139.115  0.00  0.00    +0.000 A 
ATOM      8  C   UNL     1     112.177 125.723 138.377  0.00  0.00    +0.000 A 
ATOM      9  C   UNL     1     112.858 126.078 138.075  0.00  0.00    +0.000 A 
ATOM     10  C   UNL     1     111.762 125.115 137.933  0.00  0.00    +0.000 A 
ATOM     11  C   UNL     1     113.171 125.850 137.308  0.00  0.00    +0.000 A 
ATOM     12  C   UNL     1     112.060 124.874 137.165  0.00  0.00    +0.000 A 
ATOM     13  C   UNL     1     112.769 125.243 136.849  0.00  0.00    +0.000 A 
ENDROOT
BRANCH   6  15
ATOM     14  O   UNL     1     114.517 129.219 140.988  0.00  0.00    +0.000 OA
ATOM     15  C   UNL     1     113.347 127.471 139.682  0.00  0.00    +0.000 A 
ATOM     16  C   UNL     1     113.277 128.264 139.466  0.00  0.00    +0.000 A 
ATOM     17  C   UNL     1     113.807 127.260 140.334  0.00  0.00    +0.000 A 
ATOM     18  C   UNL     1     113.666 128.846 139.901  0.00  0.00    +0.000 A 
ATOM     19  C   UNL     1     114.197 127.843 140.769  0.00  0.00    +0.000 A 
ATOM     20  C   UNL     1     114.127 128.636 140.552  0.00  0.00    +0.000 A 
BRANCH  18  21
ATOM     21  O   UNL     1     113.596 129.640 139.685  0.00  0.00    +0.000 OA
ATOM     22  C   UNL     1     113.459 129.842 138.896  0.00  0.00    +0.000 C 
ENDBRANCH  18  21
ENDBRANCH   6  15
BRANCH  12  23
ATOM     23  O   UNL     1     111.669 124.291 136.732  0.00  0.00    +0.000 OA
ATOM     24  C   UNL     1     111.961 123.520 136.717  0.00  0.00    +0.000 C 
ENDBRANCH  12  23
BRANCH   5  25
ATOM     25  O   UNL     1     111.985 126.762 140.287  0.00  0.00    +0.000 OA
BRANCH  25  34
ATOM     26  O   UNL     1     110.883 127.510 139.769  0.00  0.00    +0.000 OA
ATOM     27  O   UNL     1     109.536 126.899 141.753  0.00  0.00    +0.000 OA
ATOM     28  O   UNL     1     108.884 127.850 140.574  0.00  0.00    +0.000 OA
ATOM     29  O   UNL     1     111.087 126.354 141.610  0.00  0.00    +0.000 OA
ATOM     30  C   UNL     1     109.985 127.103 141.092  0.00  0.00    +0.000 C 
ATOM     31  C   UNL     1     109.659 127.578 140.502  0.00  0.00    +0.000 C 
ATOM     32  C   UNL     1     110.761 126.830 141.020  0.00  0.00    +0.000 C 
ATOM     33  C   UNL     1     110.108 127.782 139.842  0.00  0.00    +0.000 C 
ATOM     34  C   UNL     1     111.210 127.033 140.360  0.00  0.00    +0.000 C 
BRANCH  33  36
ATOM     35  O   UNL     1     110.107 129.000 139.095  0.00  0.00    +0.000 OA
ATOM     36  C   UNL     1     109.782 128.257 139.252  0.00  0.00    +0.000 C 
ENDBRANCH  33  36
ENDBRANCH  25  34
ENDBRANCH   5  25
TORSDOF 6
ENDMDL
MODEL 9
REMARK VINA RESULT:      -8.4      2.050      3.316
REMARK  Name = 44259790
REMARK  6 active torsions:
REMARK  status: ('A' for Active; 'I' for Inactive)
REMARK    1  A    between atoms: O_2  and  C_18
REMARK    2  A    between atoms: O_2  and  C_20
REMARK    3  A    between atoms: O_10  and  C_28
REMARK    4  A    between atoms: O_12  and  C_32
REMARK    5  A    between atoms: C_17  and  C_19
REMARK    6  A    between atoms: C_21  and  C_25
REMARK                            x       y       z     vdW  Elec       q    Type
REMARK                         _______ _______ _______ _____ _____    ______ ____
ROOT
ATOM      1  O   UNL     1     112.996 127.574 136.599  0.00  0.00    +0.000 OA
ATOM      2  O   UNL     1     111.894 129.730 137.116  0.00  0.00    +0.000 OA
ATOM      3  O   UNL     1     112.860 130.447 136.319  0.00  0.00    +0.000 OA
ATOM      4  O   UNL     1     114.980 128.954 134.975  0.00  0.00    +0.000 OA
ATOM      5  C   UNL     1     111.960 128.310 137.255  0.00  0.00    +0.000 A 
ATOM      6  C   UNL     1     112.327 127.591 137.084  0.00  0.00    +0.000 A 
ATOM      7  C   UNL     1     112.261 129.011 136.944  0.00  0.00    +0.000 A 
ATOM      8  C   UNL     1     112.930 128.995 136.460  0.00  0.00    +0.000 A 
ATOM      9  C   UNL     1     113.296 128.277 136.288  0.00  0.00    +0.000 A 
ATOM     10  C   UNL     1     113.234 129.733 136.142  0.00  0.00    +0.000 A 
ATOM     11  C   UNL     1     113.993 128.245 135.786  0.00  0.00    +0.000 A 
ATOM     12  C   UNL     1     113.929 129.722 135.637  0.00  0.00    +0.000 A 
ATOM     13  C   UNL     1     114.312 128.973 135.458  0.00  0.00    +0.000 A 
ENDROOT
BRANCH   6  15
ATOM     14  O   UNL     1     111.123 124.782 138.330  0.00  0.00    +0.000 OA
ATOM     15  C   UNL     1     112.026 126.889 137.395  0.00  0.00    +0.000 A 
ATOM     16  C   UNL     1     111.617 126.363 136.908  0.00  0.00    +0.000 A 
ATOM     17  C   UNL     1     112.133 126.713 138.194  0.00  0.00    +0.000 A 
ATOM     18  C   UNL     1     111.317 125.661 137.219  0.00  0.00    +0.000 A 
ATOM     19  C   UNL     1     111.832 126.010 138.506  0.00  0.00    +0.000 A 
ATOM     20  C   UNL     1     111.424 125.485 138.018  0.00  0.00    +0.000 A 
BRANCH  18  21
ATOM     21  O   UNL     1     110.908 125.134 136.733  0.00  0.00    +0.000 OA
ATOM     22  C   UNL     1     111.079 125.102 135.925  0.00  0.00    +0.000 C 
ENDBRANCH  18  21
ENDBRANCH   6  15
BRANCH  12  23
ATOM     23  O   UNL     1     114.228 130.425 135.327  0.00  0.00    +0.000 OA
ATOM     24  C   UNL     1     114.895 130.775 135.664  0.00  0.00    +0.000 C 
ENDBRANCH  12  23
BRANCH   5  25
ATOM     25  O   UNL     1     111.292 128.326 137.739  0.00  0.00    +0.000 OA
BRANCH  25  34
ATOM     26  O   UNL     1     110.375 128.563 136.669  0.00  0.00    +0.000 OA
ATOM     27  O   UNL     1     108.908 129.831 138.207  0.00  0.00    +0.000 OA
ATOM     28  O   UNL     1     108.480 129.645 136.625  0.00  0.00    +0.000 OA
ATOM     29  O   UNL     1     110.314 129.172 138.764  0.00  0.00    +0.000 OA
ATOM     30  C   UNL     1     109.397 129.408 137.694  0.00  0.00    +0.000 C 
ATOM     31  C   UNL     1     109.183 129.315 136.903  0.00  0.00    +0.000 C 
ATOM     32  C   UNL     1     110.100 129.078 137.973  0.00  0.00    +0.000 C 
ATOM     33  C   UNL     1     109.672 128.893 136.391  0.00  0.00    +0.000 C 
ATOM     34  C   UNL     1     110.589 128.656 137.461  0.00  0.00    +0.000 C 
BRANCH  33  36
ATOM     35  O   UNL     1     109.294 128.046 135.303  0.00  0.00    +0.000 OA
ATOM     36  C   UNL     1     109.458 128.799 135.600  0.00  0.00    +0.000 C 
ENDBRANCH  33  36
ENDBRANCH  25  34
ENDBRANCH   5  25
TORSDOF 6
ENDMDL
MODEL 10
REMARK VINA RESULT:      -8.3      1.224      3.990
REMARK  Name = 44259790
REMARK  6 active torsions:
REMARK  status: ('A' for Active; 'I' for Inactive)
REMARK    1  A    between atoms: O_2  and  C_18
REMARK    2  A    between atoms: O_2  and  C_20
REMARK    3  A    between atoms: O_10  and  C_28
REMARK    4  A    between atoms: O_12  and  C_32
REMARK    5  A    between atoms: C_17  and  C_19
REMARK    6  A    between atoms: C_21  and  C_25
REMARK                            x       y       z     vdW  Elec       q    Type
REMARK                         _______ _______ _______ _____ _____    ______ ____
ROOT
ATOM      1  O   UNL     1     112.442 128.362 138.154  0.00  0.00    +0.000 OA
ATOM      2  O   UNL     1     112.889 125.974 138.631  0.00  0.00    +0.000 OA
ATOM      3  O   UNL     1     112.370 126.115 139.970  0.00  0.00    +0.000 OA
ATOM      4  O   UNL     1     111.381 128.721 140.842  0.00  0.00    +0.000 OA
ATOM      5  C   UNL     1     112.925 127.084 137.732  0.00  0.00    +0.000 A 
ATOM      6  C   UNL     1     112.776 127.880 137.572  0.00  0.00    +0.000 A 
ATOM      7  C   UNL     1     112.740 126.770 138.471  0.00  0.00    +0.000 A 
ATOM      8  C   UNL     1     112.406 127.251 139.053  0.00  0.00    +0.000 A 
ATOM      9  C   UNL     1     112.257 128.046 138.894  0.00  0.00    +0.000 A 
ATOM     10  C   UNL     1     112.218 126.912 139.820  0.00  0.00    +0.000 A 
ATOM     11  C   UNL     1     111.910 128.558 139.490  0.00  0.00    +0.000 A 
ATOM     12  C   UNL     1     111.870 127.408 140.428  0.00  0.00    +0.000 A 
ATOM     13  C   UNL     1     111.715 128.237 140.263  0.00  0.00    +0.000 A 
ENDROOT
BRANCH   6  15
ATOM     14  O   UNL     1     113.516 129.138 134.612  0.00  0.00    +0.000 OA
ATOM     15  C   UNL     1     112.961 128.194 136.833  0.00  0.00    +0.000 A 
ATOM     16  C   UNL     1     112.359 128.365 136.294  0.00  0.00    +0.000 A 
ATOM     17  C   UNL     1     113.748 128.338 136.631  0.00  0.00    +0.000 A 
ATOM     18  C   UNL     1     112.544 128.680 135.555  0.00  0.00    +0.000 A 
ATOM     19  C   UNL     1     113.933 128.652 135.890  0.00  0.00    +0.000 A 
ATOM     20  C   UNL     1     113.331 128.823 135.353  0.00  0.00    +0.000 A 
BRANCH  18  21
ATOM     21  O   UNL     1     111.942 128.851 135.017  0.00  0.00    +0.000 OA
ATOM     22  C   UNL     1     111.209 129.117 135.288  0.00  0.00    +0.000 C 
ENDBRANCH  18  21
ENDBRANCH   6  15
BRANCH  12  23
ATOM     23  O   UNL     1     111.686 127.091 141.167  0.00  0.00    +0.000 OA
ATOM     24  C   UNL     1     110.907 126.889 141.348  0.00  0.00    +0.000 C 
ENDBRANCH  12  23
BRANCH   5  25
ATOM     25  O   UNL     1     113.259 126.603 137.151  0.00  0.00    +0.000 OA
BRANCH  25  34
ATOM     26  O   UNL     1     112.047 125.918 136.828  0.00  0.00    +0.000 OA
ATOM     27  O   UNL     1     113.338 123.864 136.336  0.00  0.00    +0.000 OA
ATOM     28  O   UNL     1     111.696 123.865 136.178  0.00  0.00    +0.000 OA
ATOM     29  O   UNL     1     114.120 125.234 136.823  0.00  0.00    +0.000 OA
ATOM     30  C   UNL     1     112.908 124.549 136.500  0.00  0.00    +0.000 C 
ATOM     31  C   UNL     1     112.087 124.549 136.421  0.00  0.00    +0.000 C 
ATOM     32  C   UNL     1     113.299 125.234 136.744  0.00  0.00    +0.000 C 
ATOM     33  C   UNL     1     111.657 125.233 136.585  0.00  0.00    +0.000 C 
ATOM     34  C   UNL     1     112.869 125.918 136.908  0.00  0.00    +0.000 C 
BRANCH  33  36
ATOM     35  O   UNL     1     110.478 125.699 135.925  0.00  0.00    +0.000 OA
ATOM     36  C   UNL     1     110.836 125.233 136.506  0.00  0.00    +0.000 C 
ENDBRANCH  33  36
ENDBRANCH  25  34
ENDBRANCH   5  25
TORSDOF 6
ENDMDL
