MODEL 1
REMARK VINA RESULT:      -9.8      0.000      0.000
REMARK  Name = 44257074
REMARK  8 active torsions:
REMARK  status: ('A' for Active; 'I' for Inactive)
REMARK    1  A    between atoms: O_2  and  C_15
REMARK    2  A    between atoms: O_2  and  C_18
REMARK    3  A    between atoms: O_3  and  C_13
REMARK    4  A    between atoms: O_3  and  C_29
REMARK    5  A    between atoms: C_17  and  C_21
REMARK    6  A    between atoms: C_19  and  C_23
REMARK    7  A    between atoms: C_29  and  C_35
REMARK    8  A    between atoms: C_36  and  C_37
REMARK                            x       y       z     vdW  Elec       q    Type
REMARK                         _______ _______ _______ _____ _____    ______ ____
ROOT
ATOM      1  O   UNL     1     112.604 130.084 139.359  0.00  0.00    +0.000 OA
ENDROOT
BRANCH   1   5
ATOM      2  O   UNL     1     112.957 128.576 140.898  0.00  0.00    +0.000 OA
ATOM      3  O   UNL     1     110.706 127.768 139.276  0.00  0.00    +0.000 OA
ATOM      4  O   UNL     1     111.586 126.075 141.487  0.00  0.00    +0.000 OA
ATOM      5  C   UNL     1     112.522 129.401 139.814  0.00  0.00    +0.000 C 
ATOM      6  C   UNL     1     113.039 129.259 140.443  0.00  0.00    +0.000 C 
ATOM      7  C   UNL     1     111.925 128.858 139.641  0.00  0.00    +0.000 C 
ATOM      8  C   UNL     1     111.844 128.175 140.096  0.00  0.00    +0.000 A 
ATOM      9  C   UNL     1     112.360 128.034 140.724  0.00  0.00    +0.000 A 
ATOM     10  C   UNL     1     111.218 127.618 139.906  0.00  0.00    +0.000 A 
ATOM     11  C   UNL     1     112.286 127.326 141.205  0.00  0.00    +0.000 A 
ATOM     12  C   UNL     1     111.128 126.905 140.376  0.00  0.00    +0.000 A 
ATOM     13  C   UNL     1     111.665 126.757 141.030  0.00  0.00    +0.000 A 
BRANCH   6  16
ATOM     14  O   UNL     1     113.963 131.544 141.889  0.00  0.00    +0.000 OA
ATOM     15  O   UNL     1     115.426 131.430 141.135  0.00  0.00    +0.000 OA
ATOM     16  C   UNL     1     113.636 129.802 140.615  0.00  0.00    +0.000 A 
ATOM     17  C   UNL     1     113.501 130.402 141.166  0.00  0.00    +0.000 A 
ATOM     18  C   UNL     1     114.367 129.745 140.238  0.00  0.00    +0.000 A 
ATOM     19  C   UNL     1     114.098 130.944 141.338  0.00  0.00    +0.000 A 
ATOM     20  C   UNL     1     114.964 130.288 140.411  0.00  0.00    +0.000 A 
ATOM     21  C   UNL     1     114.829 130.887 140.961  0.00  0.00    +0.000 A 
ENDBRANCH   6  16
ENDBRANCH   1   5
BRANCH   1  27
ATOM     22  O   UNL     1     111.348 130.725 139.590  0.00  0.00    +0.000 OA
ATOM     23  O   UNL     1     111.097 131.111 137.158  0.00  0.00    +0.000 OA
ATOM     24  O   UNL     1     109.925 131.623 138.200  0.00  0.00    +0.000 OA
ATOM     25  C   UNL     1     111.851 130.597 138.259  0.00  0.00    +0.000 C 
ATOM     26  C   UNL     1     111.181 130.983 137.969  0.00  0.00    +0.000 C 
ATOM     27  C   UNL     1     111.934 130.469 139.070  0.00  0.00    +0.000 C 
ATOM     28  C   UNL     1     110.595 131.238 138.490  0.00  0.00    +0.000 C 
ATOM     29  C   UNL     1     110.678 131.109 139.301  0.00  0.00    +0.000 C 
BRANCH  29  31
ATOM     30  O   UNL     1     110.288 131.857 140.455  0.00  0.00    +0.000 OA
ATOM     31  C   UNL     1     110.092 131.365 139.821  0.00  0.00    +0.000 C 
ENDBRANCH  29  31
BRANCH  25  32
ATOM     32  O   UNL     1     112.437 130.342 137.738  0.00  0.00    +0.000 OA
BRANCH  32  34
ATOM     33  O   UNL     1     113.012 131.648 137.682  0.00  0.00    +0.000 OA
ATOM     34  C   UNL     1     112.928 130.891 137.366  0.00  0.00    +0.000 C 
BRANCH  34  35
ATOM     35  C   UNL     1     113.334 130.682 136.679  0.00  0.00    +0.000 C 
ATOM     36  C   UNL     1     114.159 130.684 136.672  0.00  0.00    +0.000 C 
BRANCH  36  37
ATOM     37  C   UNL     1     114.566 130.476 135.985  0.00  0.00    +0.000 A 
ATOM     38  C   UNL     1     114.496 129.713 135.679  0.00  0.00    +0.000 A 
ATOM     39  C   UNL     1     115.044 131.031 135.605  0.00  0.00    +0.000 A 
ATOM     40  C   UNL     1     114.904 129.506 134.992  0.00  0.00    +0.000 A 
ATOM     41  C   UNL     1     115.451 130.823 134.918  0.00  0.00    +0.000 A 
ATOM     42  C   UNL     1     115.381 130.060 134.612  0.00  0.00    +0.000 A 
ENDBRANCH  36  37
ENDBRANCH  34  35
ENDBRANCH  32  34
ENDBRANCH  25  32
ENDBRANCH   1  27
TORSDOF 8
ENDMDL
MODEL 2
REMARK VINA RESULT:      -9.8      2.111      4.000
REMARK  Name = 44257074
REMARK  8 active torsions:
REMARK  status: ('A' for Active; 'I' for Inactive)
REMARK    1  A    between atoms: O_2  and  C_15
REMARK    2  A    between atoms: O_2  and  C_18
REMARK    3  A    between atoms: O_3  and  C_13
REMARK    4  A    between atoms: O_3  and  C_29
REMARK    5  A    between atoms: C_17  and  C_21
REMARK    6  A    between atoms: C_19  and  C_23
REMARK    7  A    between atoms: C_29  and  C_35
REMARK    8  A    between atoms: C_36  and  C_37
REMARK                            x       y       z     vdW  Elec       q    Type
REMARK                         _______ _______ _______ _____ _____    ______ ____
ROOT
ATOM      1  O   UNL     1     112.003 128.630 139.861  0.00  0.00    +0.000 OA
ENDROOT
BRANCH   1   5
ATOM      2  O   UNL     1     111.517 130.716 139.437  0.00  0.00    +0.000 OA
ATOM      3  O   UNL     1     109.146 129.100 139.091  0.00  0.00    +0.000 OA
ATOM      4  O   UNL     1     109.020 131.983 138.639  0.00  0.00    +0.000 OA
ATOM      5  C   UNL     1     111.574 129.304 139.657  0.00  0.00    +0.000 C 
ATOM      6  C   UNL     1     111.946 130.041 139.641  0.00  0.00    +0.000 C 
ATOM      7  C   UNL     1     110.773 129.243 139.470  0.00  0.00    +0.000 C 
ATOM      8  C   UNL     1     110.344 129.918 139.266  0.00  0.00    +0.000 A 
ATOM      9  C   UNL     1     110.716 130.653 139.250  0.00  0.00    +0.000 A 
ATOM     10  C   UNL     1     109.510 129.840 139.072  0.00  0.00    +0.000 A 
ATOM     11  C   UNL     1     110.281 131.363 139.039  0.00  0.00    +0.000 A 
ATOM     12  C   UNL     1     109.059 130.539 138.859  0.00  0.00    +0.000 A 
ATOM     13  C   UNL     1     109.446 131.306 138.842  0.00  0.00    +0.000 A 
BRANCH   6  16
ATOM     14  O   UNL     1     114.009 130.487 141.569  0.00  0.00    +0.000 OA
ATOM     15  O   UNL     1     115.150 130.285 140.394  0.00  0.00    +0.000 OA
ATOM     16  C   UNL     1     112.747 130.102 139.829  0.00  0.00    +0.000 A 
ATOM     17  C   UNL     1     112.978 130.264 140.605  0.00  0.00    +0.000 A 
ATOM     18  C   UNL     1     113.318 130.001 139.241  0.00  0.00    +0.000 A 
ATOM     19  C   UNL     1     113.778 130.325 140.793  0.00  0.00    +0.000 A 
ATOM     20  C   UNL     1     114.119 130.062 139.431  0.00  0.00    +0.000 A 
ATOM     21  C   UNL     1     114.349 130.224 140.205  0.00  0.00    +0.000 A 
ENDBRANCH   6  16
ENDBRANCH   1   5
BRANCH   1  27
ATOM     22  O   UNL     1     111.265 128.222 141.015  0.00  0.00    +0.000 OA
ATOM     23  O   UNL     1     111.346 125.874 140.236  0.00  0.00    +0.000 OA
ATOM     24  O   UNL     1     110.582 126.249 141.649  0.00  0.00    +0.000 OA
ATOM     25  C   UNL     1     111.675 127.252 140.048  0.00  0.00    +0.000 C 
ATOM     26  C   UNL     1     111.319 126.656 140.496  0.00  0.00    +0.000 C 
ATOM     27  C   UNL     1     111.648 128.035 140.308  0.00  0.00    +0.000 C 
ATOM     28  C   UNL     1     110.937 126.844 141.202  0.00  0.00    +0.000 C 
ATOM     29  C   UNL     1     110.910 127.627 141.462  0.00  0.00    +0.000 C 
BRANCH  29  31
ATOM     30  O   UNL     1     110.938 128.203 142.769  0.00  0.00    +0.000 OA
ATOM     31  C   UNL     1     110.528 127.814 142.168  0.00  0.00    +0.000 C 
ENDBRANCH  29  31
BRANCH  25  32
ATOM     32  O   UNL     1     112.057 127.064 139.342  0.00  0.00    +0.000 OA
BRANCH  32  34
ATOM     33  O   UNL     1     113.236 126.658 140.037  0.00  0.00    +0.000 OA
ATOM     34  C   UNL     1     112.773 126.654 139.356  0.00  0.00    +0.000 C 
BRANCH  34  35
ATOM     35  C   UNL     1     113.023 126.241 138.687  0.00  0.00    +0.000 C 
ATOM     36  C   UNL     1     113.808 126.297 138.439  0.00  0.00    +0.000 C 
BRANCH  36  37
ATOM     37  C   UNL     1     114.060 125.884 137.771  0.00  0.00    +0.000 A 
ATOM     38  C   UNL     1     114.451 125.162 137.854  0.00  0.00    +0.000 A 
ATOM     39  C   UNL     1     113.920 126.193 137.018  0.00  0.00    +0.000 A 
ATOM     40  C   UNL     1     114.703 124.750 137.185  0.00  0.00    +0.000 A 
ATOM     41  C   UNL     1     114.172 125.780 136.350  0.00  0.00    +0.000 A 
ATOM     42  C   UNL     1     114.564 125.059 136.433  0.00  0.00    +0.000 A 
ENDBRANCH  36  37
ENDBRANCH  34  35
ENDBRANCH  32  34
ENDBRANCH  25  32
ENDBRANCH   1  27
TORSDOF 8
ENDMDL
MODEL 3
REMARK VINA RESULT:      -9.7      2.540      4.633
REMARK  Name = 44257074
REMARK  8 active torsions:
REMARK  status: ('A' for Active; 'I' for Inactive)
REMARK    1  A    between atoms: O_2  and  C_15
REMARK    2  A    between atoms: O_2  and  C_18
REMARK    3  A    between atoms: O_3  and  C_13
REMARK    4  A    between atoms: O_3  and  C_29
REMARK    5  A    between atoms: C_17  and  C_21
REMARK    6  A    between atoms: C_19  and  C_23
REMARK    7  A    between atoms: C_29  and  C_35
REMARK    8  A    between atoms: C_36  and  C_37
REMARK                            x       y       z     vdW  Elec       q    Type
REMARK                         _______ _______ _______ _____ _____    ______ ____
ROOT
ATOM      1  O   UNL     1     111.958 129.230 137.643  0.00  0.00    +0.000 OA
ENDROOT
BRANCH   1   5
ATOM      2  O   UNL     1     111.209 130.386 135.949  0.00  0.00    +0.000 OA
ATOM      3  O   UNL     1     108.985 129.124 137.295  0.00  0.00    +0.000 OA
ATOM      4  O   UNL     1     108.505 130.793 134.947  0.00  0.00    +0.000 OA
ATOM      5  C   UNL     1     111.439 129.568 137.099  0.00  0.00    +0.000 C 
ATOM      6  C   UNL     1     111.729 130.048 136.493  0.00  0.00    +0.000 C 
ATOM      7  C   UNL     1     110.628 129.425 137.158  0.00  0.00    +0.000 C 
ATOM      8  C   UNL     1     110.108 129.762 136.613  0.00  0.00    +0.000 A 
ATOM      9  C   UNL     1     110.399 130.242 136.009  0.00  0.00    +0.000 A 
ATOM     10  C   UNL     1     109.267 129.606 136.687  0.00  0.00    +0.000 A 
ATOM     11  C   UNL     1     109.868 130.599 135.436  0.00  0.00    +0.000 A 
ATOM     12  C   UNL     1     108.721 129.954 136.123  0.00  0.00    +0.000 A 
ATOM     13  C   UNL     1     109.023 130.454 135.493  0.00  0.00    +0.000 A 
BRANCH   6  16
ATOM     14  O   UNL     1     114.301 129.321 135.482  0.00  0.00    +0.000 OA
ATOM     15  O   UNL     1     114.971 130.617 136.254  0.00  0.00    +0.000 OA
ATOM     16  C   UNL     1     112.539 130.191 136.434  0.00  0.00    +0.000 A 
ATOM     17  C   UNL     1     113.015 129.685 135.988  0.00  0.00    +0.000 A 
ATOM     18  C   UNL     1     112.874 130.839 136.820  0.00  0.00    +0.000 A 
ATOM     19  C   UNL     1     113.825 129.827 135.928  0.00  0.00    +0.000 A 
ATOM     20  C   UNL     1     113.685 130.980 136.760  0.00  0.00    +0.000 A 
ATOM     21  C   UNL     1     114.160 130.475 136.314  0.00  0.00    +0.000 A 
ENDBRANCH   6  16
ENDBRANCH   1   5
BRANCH   1  27
ATOM     22  O   UNL     1     111.468 129.791 138.863  0.00  0.00    +0.000 OA
ATOM     23  O   UNL     1     111.559 127.557 139.925  0.00  0.00    +0.000 OA
ATOM     24  O   UNL     1     111.039 128.861 140.790  0.00  0.00    +0.000 OA
ATOM     25  C   UNL     1     111.759 128.394 138.784  0.00  0.00    +0.000 C 
ATOM     26  C   UNL     1     111.529 128.301 139.571  0.00  0.00    +0.000 C 
ATOM     27  C   UNL     1     111.729 129.138 138.430  0.00  0.00    +0.000 C 
ATOM     28  C   UNL     1     111.269 128.954 140.004  0.00  0.00    +0.000 C 
ATOM     29  C   UNL     1     111.239 129.699 139.650  0.00  0.00    +0.000 C 
BRANCH  29  31
ATOM     30  O   UNL     1     111.390 131.064 140.041  0.00  0.00    +0.000 OA
ATOM     31  C   UNL     1     110.979 130.350 140.082  0.00  0.00    +0.000 C 
ENDBRANCH  29  31
BRANCH  25  32
ATOM     32  O   UNL     1     112.019 127.741 138.351  0.00  0.00    +0.000 OA
BRANCH  32  34
ATOM     33  O   UNL     1     113.330 127.853 138.908  0.00  0.00    +0.000 OA
ATOM     34  C   UNL     1     112.761 127.414 138.503  0.00  0.00    +0.000 C 
BRANCH  34  35
ATOM     35  C   UNL     1     112.933 126.648 138.251  0.00  0.00    +0.000 C 
ATOM     36  C   UNL     1     113.550 126.518 137.718  0.00  0.00    +0.000 C 
BRANCH  36  37
ATOM     37  C   UNL     1     113.723 125.752 137.465  0.00  0.00    +0.000 A 
ATOM     38  C   UNL     1     114.432 125.395 137.686  0.00  0.00    +0.000 A 
ATOM     39  C   UNL     1     113.185 125.344 136.990  0.00  0.00    +0.000 A 
ATOM     40  C   UNL     1     114.604 124.628 137.431  0.00  0.00    +0.000 A 
ATOM     41  C   UNL     1     113.357 124.579 136.736  0.00  0.00    +0.000 A 
ATOM     42  C   UNL     1     114.067 124.221 136.957  0.00  0.00    +0.000 A 
ENDBRANCH  36  37
ENDBRANCH  34  35
ENDBRANCH  32  34
ENDBRANCH  25  32
ENDBRANCH   1  27
TORSDOF 8
ENDMDL
MODEL 4
REMARK VINA RESULT:      -9.6      2.286      4.922
REMARK  Name = 44257074
REMARK  8 active torsions:
REMARK  status: ('A' for Active; 'I' for Inactive)
REMARK    1  A    between atoms: O_2  and  C_15
REMARK    2  A    between atoms: O_2  and  C_18
REMARK    3  A    between atoms: O_3  and  C_13
REMARK    4  A    between atoms: O_3  and  C_29
REMARK    5  A    between atoms: C_17  and  C_21
REMARK    6  A    between atoms: C_19  and  C_23
REMARK    7  A    between atoms: C_29  and  C_35
REMARK    8  A    between atoms: C_36  and  C_37
REMARK                            x       y       z     vdW  Elec       q    Type
REMARK                         _______ _______ _______ _____ _____    ______ ____
ROOT
ATOM      1  O   UNL     1     112.978 129.308 137.738  0.00  0.00    +0.000 OA
ENDROOT
BRANCH   1   5
ATOM      2  O   UNL     1     112.269 131.106 136.723  0.00  0.00    +0.000 OA
ATOM      3  O   UNL     1     110.742 130.720 139.146  0.00  0.00    +0.000 OA
ATOM      4  O   UNL     1     110.173 133.005 137.418  0.00  0.00    +0.000 OA
ATOM      5  C   UNL     1     112.544 129.989 137.572  0.00  0.00    +0.000 C 
ATOM      6  C   UNL     1     112.704 130.425 136.889  0.00  0.00    +0.000 C 
ATOM      7  C   UNL     1     111.948 130.235 138.087  0.00  0.00    +0.000 C 
ATOM      8  C   UNL     1     111.513 130.916 137.920  0.00  0.00    +0.000 A 
ATOM      9  C   UNL     1     111.674 131.352 137.239  0.00  0.00    +0.000 A 
ATOM     10  C   UNL     1     110.896 131.162 138.466  0.00  0.00    +0.000 A 
ATOM     11  C   UNL     1     111.228 132.062 137.054  0.00  0.00    +0.000 A 
ATOM     12  C   UNL     1     110.440 131.870 138.297  0.00  0.00    +0.000 A 
ATOM     13  C   UNL     1     110.607 132.324 137.587  0.00  0.00    +0.000 A 
BRANCH   6  16
ATOM     14  O   UNL     1     115.419 130.553 136.004  0.00  0.00    +0.000 OA
ATOM     15  O   UNL     1     115.088 129.443 134.829  0.00  0.00    +0.000 OA
ATOM     16  C   UNL     1     113.299 130.179 136.374  0.00  0.00    +0.000 A 
ATOM     17  C   UNL     1     114.061 130.489 136.447  0.00  0.00    +0.000 A 
ATOM     18  C   UNL     1     113.134 129.624 135.787  0.00  0.00    +0.000 A 
ATOM     19  C   UNL     1     114.657 130.243 135.932  0.00  0.00    +0.000 A 
ATOM     20  C   UNL     1     113.731 129.379 135.272  0.00  0.00    +0.000 A 
ATOM     21  C   UNL     1     114.491 129.688 135.344  0.00  0.00    +0.000 A 
ENDBRANCH   6  16
ENDBRANCH   1   5
BRANCH   1  27
ATOM     22  O   UNL     1     113.563 129.693 138.984  0.00  0.00    +0.000 OA
ATOM     23  O   UNL     1     113.033 127.465 139.921  0.00  0.00    +0.000 OA
ATOM     24  O   UNL     1     113.794 128.592 140.854  0.00  0.00    +0.000 OA
ATOM     25  C   UNL     1     113.006 128.387 138.829  0.00  0.00    +0.000 C 
ATOM     26  C   UNL     1     113.210 128.208 139.609  0.00  0.00    +0.000 C 
ATOM     27  C   UNL     1     113.182 129.130 138.517  0.00  0.00    +0.000 C 
ATOM     28  C   UNL     1     113.590 128.772 140.075  0.00  0.00    +0.000 C 
ATOM     29  C   UNL     1     113.767 129.515 139.762  0.00  0.00    +0.000 C 
BRANCH  29  31
ATOM     30  O   UNL     1     114.746 130.546 139.907  0.00  0.00    +0.000 OA
ATOM     31  C   UNL     1     114.147 130.078 140.229  0.00  0.00    +0.000 C 
ENDBRANCH  29  31
BRANCH  25  32
ATOM     32  O   UNL     1     112.625 127.823 138.363  0.00  0.00    +0.000 OA
BRANCH  32  34
ATOM     33  O   UNL     1     113.867 127.177 138.076  0.00  0.00    +0.000 OA
ATOM     34  C   UNL     1     113.042 127.168 138.084  0.00  0.00    +0.000 C 
BRANCH  34  35
ATOM     35  C   UNL     1     112.634 126.504 137.813  0.00  0.00    +0.000 C 
ATOM     36  C   UNL     1     112.885 126.117 137.129  0.00  0.00    +0.000 C 
BRANCH  36  37
ATOM     37  C   UNL     1     112.478 125.453 136.858  0.00  0.00    +0.000 A 
ATOM     38  C   UNL     1     111.821 125.544 136.367  0.00  0.00    +0.000 A 
ATOM     39  C   UNL     1     112.728 124.697 137.077  0.00  0.00    +0.000 A 
ATOM     40  C   UNL     1     111.414 124.879 136.095  0.00  0.00    +0.000 A 
ATOM     41  C   UNL     1     112.320 124.033 136.805  0.00  0.00    +0.000 A 
ATOM     42  C   UNL     1     111.663 124.124 136.314  0.00  0.00    +0.000 A 
ENDBRANCH  36  37
ENDBRANCH  34  35
ENDBRANCH  32  34
ENDBRANCH  25  32
ENDBRANCH   1  27
TORSDOF 8
ENDMDL
MODEL 5
REMARK VINA RESULT:      -9.5      3.364      5.531
REMARK  Name = 44257074
REMARK  8 active torsions:
REMARK  status: ('A' for Active; 'I' for Inactive)
REMARK    1  A    between atoms: O_2  and  C_15
REMARK    2  A    between atoms: O_2  and  C_18
REMARK    3  A    between atoms: O_3  and  C_13
REMARK    4  A    between atoms: O_3  and  C_29
REMARK    5  A    between atoms: C_17  and  C_21
REMARK    6  A    between atoms: C_19  and  C_23
REMARK    7  A    between atoms: C_29  and  C_35
REMARK    8  A    between atoms: C_36  and  C_37
REMARK                            x       y       z     vdW  Elec       q    Type
REMARK                         _______ _______ _______ _____ _____    ______ ____
ROOT
ATOM      1  O   UNL     1     112.833 127.332 137.114  0.00  0.00    +0.000 OA
ENDROOT
BRANCH   1   5
ATOM      2  O   UNL     1     111.888 125.659 136.077  0.00  0.00    +0.000 OA
ATOM      3  O   UNL     1     110.205 127.996 135.840  0.00  0.00    +0.000 OA
ATOM      4  O   UNL     1     109.377 125.477 134.613  0.00  0.00    +0.000 OA
ATOM      5  C   UNL     1     112.289 126.894 136.676  0.00  0.00    +0.000 C 
ATOM      6  C   UNL     1     112.433 126.097 136.516  0.00  0.00    +0.000 C 
ATOM      7  C   UNL     1     111.599 127.251 136.397  0.00  0.00    +0.000 C 
ATOM      8  C   UNL     1     111.055 126.813 135.959  0.00  0.00    +0.000 A 
ATOM      9  C   UNL     1     111.199 126.018 135.799  0.00  0.00    +0.000 A 
ATOM     10  C   UNL     1     110.341 127.198 135.675  0.00  0.00    +0.000 A 
ATOM     11  C   UNL     1     110.640 125.550 135.344  0.00  0.00    +0.000 A 
ATOM     12  C   UNL     1     109.770 126.747 135.218  0.00  0.00    +0.000 A 
ATOM     13  C   UNL     1     109.920 125.918 135.051  0.00  0.00    +0.000 A 
BRANCH   6  16
ATOM     14  O   UNL     1     115.142 125.287 136.099  0.00  0.00    +0.000 OA
ATOM     15  O   UNL     1     115.191 124.666 137.627  0.00  0.00    +0.000 OA
ATOM     16  C   UNL     1     113.122 125.739 136.794  0.00  0.00    +0.000 A 
ATOM     17  C   UNL     1     113.788 125.692 136.307  0.00  0.00    +0.000 A 
ATOM     18  C   UNL     1     113.147 125.429 137.558  0.00  0.00    +0.000 A 
ATOM     19  C   UNL     1     114.477 125.334 136.586  0.00  0.00    +0.000 A 
ATOM     20  C   UNL     1     113.837 125.071 137.835  0.00  0.00    +0.000 A 
ATOM     21  C   UNL     1     114.501 125.024 137.350  0.00  0.00    +0.000 A 
ENDBRANCH   6  16
ENDBRANCH   1   5
BRANCH   1  27
ATOM     22  O   UNL     1     113.246 128.327 136.175  0.00  0.00    +0.000 OA
ATOM     23  O   UNL     1     112.844 130.089 137.867  0.00  0.00    +0.000 OA
ATOM     24  O   UNL     1     113.390 130.496 136.365  0.00  0.00    +0.000 OA
ATOM     25  C   UNL     1     112.839 128.710 137.490  0.00  0.00    +0.000 C 
ATOM     26  C   UNL     1     112.978 129.502 137.303  0.00  0.00    +0.000 C 
ATOM     27  C   UNL     1     112.973 128.122 136.927  0.00  0.00    +0.000 C 
ATOM     28  C   UNL     1     113.251 129.705 136.552  0.00  0.00    +0.000 C 
ATOM     29  C   UNL     1     113.385 129.117 135.988  0.00  0.00    +0.000 C 
BRANCH  29  31
ATOM     30  O   UNL     1     114.288 128.908 134.900  0.00  0.00    +0.000 OA
ATOM     31  C   UNL     1     113.658 129.321 135.237  0.00  0.00    +0.000 C 
ENDBRANCH  29  31
BRANCH  25  32
ATOM     32  O   UNL     1     112.566 128.506 138.242  0.00  0.00    +0.000 OA
BRANCH  32  34
ATOM     33  O   UNL     1     113.875 128.525 138.812  0.00  0.00    +0.000 OA
ATOM     34  C   UNL     1     113.058 128.594 138.898  0.00  0.00    +0.000 C 
BRANCH  34  35
ATOM     35  C   UNL     1     112.732 128.751 139.640  0.00  0.00    +0.000 C 
ATOM     36  C   UNL     1     112.923 128.272 140.283  0.00  0.00    +0.000 C 
BRANCH  36  37
ATOM     37  C   UNL     1     112.598 128.428 141.025  0.00  0.00    +0.000 A 
ATOM     38  C   UNL     1     112.157 127.848 141.413  0.00  0.00    +0.000 A 
ATOM     39  C   UNL     1     112.715 129.164 141.380  0.00  0.00    +0.000 A 
ATOM     40  C   UNL     1     111.832 128.005 142.155  0.00  0.00    +0.000 A 
ATOM     41  C   UNL     1     112.389 129.320 142.122  0.00  0.00    +0.000 A 
ATOM     42  C   UNL     1     111.948 128.740 142.509  0.00  0.00    +0.000 A 
ENDBRANCH  36  37
ENDBRANCH  34  35
ENDBRANCH  32  34
ENDBRANCH  25  32
ENDBRANCH   1  27
TORSDOF 8
ENDMDL
MODEL 6
REMARK VINA RESULT:      -9.5      2.624      4.030
REMARK  Name = 44257074
REMARK  8 active torsions:
REMARK  status: ('A' for Active; 'I' for Inactive)
REMARK    1  A    between atoms: O_2  and  C_15
REMARK    2  A    between atoms: O_2  and  C_18
REMARK    3  A    between atoms: O_3  and  C_13
REMARK    4  A    between atoms: O_3  and  C_29
REMARK    5  A    between atoms: C_17  and  C_21
REMARK    6  A    between atoms: C_19  and  C_23
REMARK    7  A    between atoms: C_29  and  C_35
REMARK    8  A    between atoms: C_36  and  C_37
REMARK                            x       y       z     vdW  Elec       q    Type
REMARK                         _______ _______ _______ _____ _____    ______ ____
ROOT
ATOM      1  O   UNL     1     111.235 129.407 137.447  0.00  0.00    +0.000 OA
ENDROOT
BRANCH   1   5
ATOM      2  O   UNL     1     111.126 130.957 138.981  0.00  0.00    +0.000 OA
ATOM      3  O   UNL     1     108.993 129.054 139.402  0.00  0.00    +0.000 OA
ATOM      4  O   UNL     1     109.282 131.335 141.203  0.00  0.00    +0.000 OA
ATOM      5  C   UNL     1     110.980 129.839 138.102  0.00  0.00    +0.000 C 
ATOM      6  C   UNL     1     111.380 130.526 138.325  0.00  0.00    +0.000 C 
ATOM      7  C   UNL     1     110.325 129.585 138.535  0.00  0.00    +0.000 C 
ATOM      8  C   UNL     1     110.071 130.017 139.190  0.00  0.00    +0.000 A 
ATOM      9  C   UNL     1     110.471 130.702 139.413  0.00  0.00    +0.000 A 
ATOM     10  C   UNL     1     109.387 129.741 139.632  0.00  0.00    +0.000 A 
ATOM     11  C   UNL     1     110.216 131.161 140.093  0.00  0.00    +0.000 A 
ATOM     12  C   UNL     1     109.117 130.187 140.316  0.00  0.00    +0.000 A 
ATOM     13  C   UNL     1     109.534 130.901 140.548  0.00  0.00    +0.000 A 
BRANCH   6  16
ATOM     14  O   UNL     1     114.202 130.513 137.872  0.00  0.00    +0.000 OA
ATOM     15  O   UNL     1     114.002 131.540 136.596  0.00  0.00    +0.000 OA
ATOM     16  C   UNL     1     112.035 130.779 137.893  0.00  0.00    +0.000 A 
ATOM     17  C   UNL     1     112.791 130.519 138.099  0.00  0.00    +0.000 A 
ATOM     18  C   UNL     1     111.935 131.292 137.255  0.00  0.00    +0.000 A 
ATOM     19  C   UNL     1     113.446 130.773 137.666  0.00  0.00    +0.000 A 
ATOM     20  C   UNL     1     112.591 131.546 136.822  0.00  0.00    +0.000 A 
ATOM     21  C   UNL     1     113.346 131.286 137.028  0.00  0.00    +0.000 A 
ENDBRANCH   6  16
ENDBRANCH   1   5
BRANCH   1  27
ATOM     22  O   UNL     1     110.044 129.453 136.658  0.00  0.00    +0.000 OA
ATOM     23  O   UNL     1     110.311 127.053 136.115  0.00  0.00    +0.000 OA
ATOM     24  O   UNL     1     109.032 127.899 135.508  0.00  0.00    +0.000 OA
ATOM     25  C   UNL     1     110.773 128.231 136.781  0.00  0.00    +0.000 C 
ATOM     26  C   UNL     1     110.222 127.853 136.296  0.00  0.00    +0.000 C 
ATOM     27  C   UNL     1     110.684 129.031 136.962  0.00  0.00    +0.000 C 
ATOM     28  C   UNL     1     109.583 128.277 135.992  0.00  0.00    +0.000 C 
ATOM     29  C   UNL     1     109.494 129.077 136.173  0.00  0.00    +0.000 C 
BRANCH  29  31
ATOM     30  O   UNL     1     108.981 130.211 135.472  0.00  0.00    +0.000 OA
ATOM     31  C   UNL     1     108.854 129.499 135.870  0.00  0.00    +0.000 C 
ENDBRANCH  29  31
BRANCH  25  32
ATOM     32  O   UNL     1     111.412 127.807 137.085  0.00  0.00    +0.000 OA
BRANCH  32  34
ATOM     33  O   UNL     1     112.181 127.985 135.894  0.00  0.00    +0.000 OA
ATOM     34  C   UNL     1     112.022 127.564 136.585  0.00  0.00    +0.000 C 
BRANCH  34  35
ATOM     35  C   UNL     1     112.471 126.899 136.776  0.00  0.00    +0.000 C 
ATOM     36  C   UNL     1     113.295 126.947 136.783  0.00  0.00    +0.000 C 
BRANCH  36  37
ATOM     37  C   UNL     1     113.745 126.283 136.975  0.00  0.00    +0.000 A 
ATOM     38  C   UNL     1     114.143 125.869 136.382  0.00  0.00    +0.000 A 
ATOM     39  C   UNL     1     113.798 126.032 137.760  0.00  0.00    +0.000 A 
ATOM     40  C   UNL     1     114.594 125.205 136.575  0.00  0.00    +0.000 A 
ATOM     41  C   UNL     1     114.248 125.368 137.951  0.00  0.00    +0.000 A 
ATOM     42  C   UNL     1     114.646 124.954 137.358  0.00  0.00    +0.000 A 
ENDBRANCH  36  37
ENDBRANCH  34  35
ENDBRANCH  32  34
ENDBRANCH  25  32
ENDBRANCH   1  27
TORSDOF 8
ENDMDL
MODEL 7
REMARK VINA RESULT:      -9.4      7.278      9.157
REMARK  Name = 44257074
REMARK  8 active torsions:
REMARK  status: ('A' for Active; 'I' for Inactive)
REMARK    1  A    between atoms: O_2  and  C_15
REMARK    2  A    between atoms: O_2  and  C_18
REMARK    3  A    between atoms: O_3  and  C_13
REMARK    4  A    between atoms: O_3  and  C_29
REMARK    5  A    between atoms: C_17  and  C_21
REMARK    6  A    between atoms: C_19  and  C_23
REMARK    7  A    between atoms: C_29  and  C_35
REMARK    8  A    between atoms: C_36  and  C_37
REMARK                            x       y       z     vdW  Elec       q    Type
REMARK                         _______ _______ _______ _____ _____    ______ ____
ROOT
ATOM      1  O   UNL     1     106.054 127.325 143.206  0.00  0.00    +0.000 OA
ENDROOT
BRANCH   1   5
ATOM      2  O   UNL     1     106.718 126.965 145.254  0.00  0.00    +0.000 OA
ATOM      3  O   UNL     1     105.164 124.703 144.348  0.00  0.00    +0.000 OA
ATOM      4  O   UNL     1     106.288 124.708 147.044  0.00  0.00    +0.000 OA
ATOM      5  C   UNL     1     106.166 126.957 143.935  0.00  0.00    +0.000 C 
ATOM      6  C   UNL     1     106.607 127.333 144.524  0.00  0.00    +0.000 C 
ATOM      7  C   UNL     1     105.838 126.213 144.078  0.00  0.00    +0.000 C 
ATOM      8  C   UNL     1     105.950 125.845 144.808  0.00  0.00    +0.000 A 
ATOM      9  C   UNL     1     106.390 126.221 145.395  0.00  0.00    +0.000 A 
ATOM     10  C   UNL     1     105.603 125.071 144.943  0.00  0.00    +0.000 A 
ATOM     11  C   UNL     1     106.514 125.849 146.159  0.00  0.00    +0.000 A 
ATOM     12  C   UNL     1     105.716 124.683 145.701  0.00  0.00    +0.000 A 
ATOM     13  C   UNL     1     106.175 125.074 146.314  0.00  0.00    +0.000 A 
BRANCH   6  16
ATOM     14  O   UNL     1     108.798 128.943 143.645  0.00  0.00    +0.000 OA
ATOM     15  O   UNL     1     107.920 130.306 143.954  0.00  0.00    +0.000 OA
ATOM     16  C   UNL     1     106.934 128.076 144.382  0.00  0.00    +0.000 A 
ATOM     17  C   UNL     1     107.702 128.138 144.085  0.00  0.00    +0.000 A 
ATOM     18  C   UNL     1     106.496 128.757 144.537  0.00  0.00    +0.000 A 
ATOM     19  C   UNL     1     108.030 128.881 143.943  0.00  0.00    +0.000 A 
ATOM     20  C   UNL     1     106.825 129.501 144.394  0.00  0.00    +0.000 A 
ATOM     21  C   UNL     1     107.591 129.563 144.097  0.00  0.00    +0.000 A 
ENDBRANCH   6  16
ENDBRANCH   1   5
BRANCH   1  27
ATOM     22  O   UNL     1     106.650 126.331 142.369  0.00  0.00    +0.000 OA
ATOM     23  O   UNL     1     104.817 126.614 140.730  0.00  0.00    +0.000 OA
ATOM     24  O   UNL     1     106.023 125.527 140.439  0.00  0.00    +0.000 OA
ATOM     25  C   UNL     1     105.436 126.970 141.968  0.00  0.00    +0.000 C 
ATOM     26  C   UNL     1     105.428 126.520 141.276  0.00  0.00    +0.000 C 
ATOM     27  C   UNL     1     106.047 126.876 142.515  0.00  0.00    +0.000 C 
ATOM     28  C   UNL     1     106.031 125.976 141.131  0.00  0.00    +0.000 C 
ATOM     29  C   UNL     1     106.642 125.882 141.677  0.00  0.00    +0.000 C 
BRANCH  29  31
ATOM     30  O   UNL     1     108.033 125.556 141.643  0.00  0.00    +0.000 OA
ATOM     31  C   UNL     1     107.245 125.339 141.532  0.00  0.00    +0.000 C 
ENDBRANCH  29  31
BRANCH  25  32
ATOM     32  O   UNL     1     104.832 127.513 142.113  0.00  0.00    +0.000 OA
BRANCH  32  34
ATOM     33  O   UNL     1     105.466 128.496 141.293  0.00  0.00    +0.000 OA
ATOM     34  C   UNL     1     104.794 128.213 141.678  0.00  0.00    +0.000 C 
BRANCH  34  35
ATOM     35  C   UNL     1     104.083 128.630 141.629  0.00  0.00    +0.000 C 
ATOM     36  C   UNL     1     104.084 129.453 141.680  0.00  0.00    +0.000 C 
BRANCH  36  37
ATOM     37  C   UNL     1     103.374 129.870 141.631  0.00  0.00    +0.000 A 
ATOM     38  C   UNL     1     102.903 129.807 140.957  0.00  0.00    +0.000 A 
ATOM     39  C   UNL     1     103.135 130.352 142.258  0.00  0.00    +0.000 A 
ATOM     40  C   UNL     1     102.193 130.225 140.909  0.00  0.00    +0.000 A 
ATOM     41  C   UNL     1     102.425 130.769 142.209  0.00  0.00    +0.000 A 
ATOM     42  C   UNL     1     101.954 130.706 141.535  0.00  0.00    +0.000 A 
ENDBRANCH  36  37
ENDBRANCH  34  35
ENDBRANCH  32  34
ENDBRANCH  25  32
ENDBRANCH   1  27
TORSDOF 8
ENDMDL
MODEL 8
REMARK VINA RESULT:      -9.4      2.645      4.534
REMARK  Name = 44257074
REMARK  8 active torsions:
REMARK  status: ('A' for Active; 'I' for Inactive)
REMARK    1  A    between atoms: O_2  and  C_15
REMARK    2  A    between atoms: O_2  and  C_18
REMARK    3  A    between atoms: O_3  and  C_13
REMARK    4  A    between atoms: O_3  and  C_29
REMARK    5  A    between atoms: C_17  and  C_21
REMARK    6  A    between atoms: C_19  and  C_23
REMARK    7  A    between atoms: C_29  and  C_35
REMARK    8  A    between atoms: C_36  and  C_37
REMARK                            x       y       z     vdW  Elec       q    Type
REMARK                         _______ _______ _______ _____ _____    ______ ____
ROOT
ATOM      1  O   UNL     1     111.130 128.111 138.390  0.00  0.00    +0.000 OA
ENDROOT
BRANCH   1   5
ATOM      2  O   UNL     1     110.518 129.896 137.291  0.00  0.00    +0.000 OA
ATOM      3  O   UNL     1     108.777 127.701 136.582  0.00  0.00    +0.000 OA
ATOM      4  O   UNL     1     108.370 130.328 135.372  0.00  0.00    +0.000 OA
ATOM      5  C   UNL     1     110.713 128.608 137.880  0.00  0.00    +0.000 C 
ATOM      6  C   UNL     1     110.936 129.399 137.800  0.00  0.00    +0.000 C 
ATOM      7  C   UNL     1     110.074 128.315 137.449  0.00  0.00    +0.000 C 
ATOM      8  C   UNL     1     109.657 128.811 136.939  0.00  0.00    +0.000 A 
ATOM      9  C   UNL     1     109.879 129.601 136.860  0.00  0.00    +0.000 A 
ATOM     10  C   UNL     1     108.992 128.493 136.496  0.00  0.00    +0.000 A 
ATOM     11  C   UNL     1     109.453 130.129 136.333  0.00  0.00    +0.000 A 
ATOM     12  C   UNL     1     108.554 129.006 135.964  0.00  0.00    +0.000 A 
ATOM     13  C   UNL     1     108.786 129.829 135.881  0.00  0.00    +0.000 A 
BRANCH   6  16
ATOM     14  O   UNL     1     111.955 130.760 140.097  0.00  0.00    +0.000 OA
ATOM     15  O   UNL     1     113.492 130.573 139.526  0.00  0.00    +0.000 OA
ATOM     16  C   UNL     1     111.575 129.692 138.231  0.00  0.00    +0.000 A 
ATOM     17  C   UNL     1     111.445 130.080 138.949  0.00  0.00    +0.000 A 
ATOM     18  C   UNL     1     112.343 129.599 137.946  0.00  0.00    +0.000 A 
ATOM     19  C   UNL     1     112.085 130.373 139.380  0.00  0.00    +0.000 A 
ATOM     20  C   UNL     1     112.982 129.893 138.378  0.00  0.00    +0.000 A 
ATOM     21  C   UNL     1     112.853 130.279 139.094  0.00  0.00    +0.000 A 
ENDBRANCH   6  16
ENDBRANCH   1   5
BRANCH   1  27
ATOM     22  O   UNL     1     110.133 127.772 139.355  0.00  0.00    +0.000 OA
ATOM     23  O   UNL     1     110.713 125.378 139.114  0.00  0.00    +0.000 OA
ATOM     24  O   UNL     1     109.523 125.838 140.160  0.00  0.00    +0.000 OA
ATOM     25  C   UNL     1     110.922 126.745 138.752  0.00  0.00    +0.000 C 
ATOM     26  C   UNL     1     110.520 126.176 139.194  0.00  0.00    +0.000 C 
ATOM     27  C   UNL     1     110.729 127.543 138.832  0.00  0.00    +0.000 C 
ATOM     28  C   UNL     1     109.925 126.407 139.717  0.00  0.00    +0.000 C 
ATOM     29  C   UNL     1     109.731 127.205 139.798  0.00  0.00    +0.000 C 
BRANCH  29  31
ATOM     30  O   UNL     1     109.218 128.127 140.761  0.00  0.00    +0.000 OA
ATOM     31  C   UNL     1     109.137 127.434 140.320  0.00  0.00    +0.000 C 
ENDBRANCH  29  31
BRANCH  25  32
ATOM     32  O   UNL     1     111.517 126.515 138.229  0.00  0.00    +0.000 OA
BRANCH  32  34
ATOM     33  O   UNL     1     112.459 126.425 139.299  0.00  0.00    +0.000 OA
ATOM     34  C   UNL     1     112.247 126.262 138.519  0.00  0.00    +0.000 C 
BRANCH  34  35
ATOM     35  C   UNL     1     112.763 125.847 138.028  0.00  0.00    +0.000 C 
ATOM     36  C   UNL     1     113.528 126.129 137.902  0.00  0.00    +0.000 C 
BRANCH  36  37
ATOM     37  C   UNL     1     114.046 125.714 137.412  0.00  0.00    +0.000 A 
ATOM     38  C   UNL     1     114.402 125.020 137.680  0.00  0.00    +0.000 A 
ATOM     39  C   UNL     1     114.207 125.994 136.652  0.00  0.00    +0.000 A 
ATOM     40  C   UNL     1     114.920 124.606 137.188  0.00  0.00    +0.000 A 
ATOM     41  C   UNL     1     114.725 125.579 136.161  0.00  0.00    +0.000 A 
ATOM     42  C   UNL     1     115.081 124.885 136.430  0.00  0.00    +0.000 A 
ENDBRANCH  36  37
ENDBRANCH  34  35
ENDBRANCH  32  34
ENDBRANCH  25  32
ENDBRANCH   1  27
TORSDOF 8
ENDMDL
MODEL 9
REMARK VINA RESULT:      -9.4      2.274      4.446
REMARK  Name = 44257074
REMARK  8 active torsions:
REMARK  status: ('A' for Active; 'I' for Inactive)
REMARK    1  A    between atoms: O_2  and  C_15
REMARK    2  A    between atoms: O_2  and  C_18
REMARK    3  A    between atoms: O_3  and  C_13
REMARK    4  A    between atoms: O_3  and  C_29
REMARK    5  A    between atoms: C_17  and  C_21
REMARK    6  A    between atoms: C_19  and  C_23
REMARK    7  A    between atoms: C_29  and  C_35
REMARK    8  A    between atoms: C_36  and  C_37
REMARK                            x       y       z     vdW  Elec       q    Type
REMARK                         _______ _______ _______ _____ _____    ______ ____
ROOT
ATOM      1  O   UNL     1     112.256 128.840 138.248  0.00  0.00    +0.000 OA
ENDROOT
BRANCH   1   5
ATOM      2  O   UNL     1     113.945 130.202 138.488  0.00  0.00    +0.000 OA
ATOM      3  O   UNL     1     112.908 129.508 141.095  0.00  0.00    +0.000 OA
ATOM      4  O   UNL     1     115.188 131.320 140.873  0.00  0.00    +0.000 OA
ATOM      5  C   UNL     1     112.829 129.316 138.602  0.00  0.00    +0.000 C 
ATOM      6  C   UNL     1     113.372 129.726 138.134  0.00  0.00    +0.000 C 
ATOM      7  C   UNL     1     112.860 129.384 139.424  0.00  0.00    +0.000 C 
ATOM      8  C   UNL     1     113.433 129.860 139.778  0.00  0.00    +0.000 A 
ATOM      9  C   UNL     1     113.975 130.269 139.310  0.00  0.00    +0.000 A 
ATOM     10  C   UNL     1     113.454 129.922 140.635  0.00  0.00    +0.000 A 
ATOM     11  C   UNL     1     114.576 130.769 139.666  0.00  0.00    +0.000 A 
ATOM     12  C   UNL     1     114.049 130.416 141.009  0.00  0.00    +0.000 A 
ATOM     13  C   UNL     1     114.614 130.843 140.522  0.00  0.00    +0.000 A 
BRANCH   6  16
ATOM     14  O   UNL     1     114.164 128.400 135.729  0.00  0.00    +0.000 OA
ATOM     15  O   UNL     1     113.250 129.454 134.848  0.00  0.00    +0.000 OA
ATOM     16  C   UNL     1     113.341 129.658 137.313  0.00  0.00    +0.000 A 
ATOM     17  C   UNL     1     113.768 129.063 136.932  0.00  0.00    +0.000 A 
ATOM     18  C   UNL     1     112.884 130.185 136.872  0.00  0.00    +0.000 A 
ATOM     19  C   UNL     1     113.737 128.996 136.110  0.00  0.00    +0.000 A 
ATOM     20  C   UNL     1     112.854 130.117 136.050  0.00  0.00    +0.000 A 
ATOM     21  C   UNL     1     113.280 129.522 135.669  0.00  0.00    +0.000 A 
ENDBRANCH   6  16
ENDBRANCH   1   5
BRANCH   1  27
ATOM     22  O   UNL     1     111.081 129.490 138.736  0.00  0.00    +0.000 OA
ATOM     23  O   UNL     1     110.056 127.287 139.207  0.00  0.00    +0.000 OA
ATOM     24  O   UNL     1     109.224 128.672 139.537  0.00  0.00    +0.000 OA
ATOM     25  C   UNL     1     111.157 128.064 138.728  0.00  0.00    +0.000 C 
ATOM     26  C   UNL     1     110.398 128.022 139.050  0.00  0.00    +0.000 C 
ATOM     27  C   UNL     1     111.498 128.798 138.570  0.00  0.00    +0.000 C 
ATOM     28  C   UNL     1     109.982 128.714 139.215  0.00  0.00    +0.000 C 
ATOM     29  C   UNL     1     110.323 129.449 139.058  0.00  0.00    +0.000 C 
BRANCH  29  31
ATOM     30  O   UNL     1     109.866 130.743 138.660  0.00  0.00    +0.000 OA
ATOM     31  C   UNL     1     109.907 130.141 139.223  0.00  0.00    +0.000 C 
ENDBRANCH  29  31
BRANCH  25  32
ATOM     32  O   UNL     1     111.573 127.371 138.563  0.00  0.00    +0.000 OA
BRANCH  32  34
ATOM     33  O   UNL     1     110.840 127.205 137.348  0.00  0.00    +0.000 OA
ATOM     34  C   UNL     1     111.367 126.911 137.909  0.00  0.00    +0.000 C 
BRANCH  34  35
ATOM     35  C   UNL     1     111.690 126.157 137.818  0.00  0.00    +0.000 C 
ATOM     36  C   UNL     1     111.916 125.893 137.070  0.00  0.00    +0.000 C 
BRANCH  36  37
ATOM     37  C   UNL     1     112.238 125.140 136.978  0.00  0.00    +0.000 A 
ATOM     38  C   UNL     1     111.752 124.474 137.020  0.00  0.00    +0.000 A 
ATOM     39  C   UNL     1     113.048 125.052 136.843  0.00  0.00    +0.000 A 
ATOM     40  C   UNL     1     112.076 123.721 136.928  0.00  0.00    +0.000 A 
ATOM     41  C   UNL     1     113.371 124.298 136.751  0.00  0.00    +0.000 A 
ATOM     42  C   UNL     1     112.885 123.633 136.793  0.00  0.00    +0.000 A 
ENDBRANCH  36  37
ENDBRANCH  34  35
ENDBRANCH  32  34
ENDBRANCH  25  32
ENDBRANCH   1  27
TORSDOF 8
ENDMDL
MODEL 10
REMARK VINA RESULT:      -9.4      2.239      4.045
REMARK  Name = 44257074
REMARK  8 active torsions:
REMARK  status: ('A' for Active; 'I' for Inactive)
REMARK    1  A    between atoms: O_2  and  C_15
REMARK    2  A    between atoms: O_2  and  C_18
REMARK    3  A    between atoms: O_3  and  C_13
REMARK    4  A    between atoms: O_3  and  C_29
REMARK    5  A    between atoms: C_17  and  C_21
REMARK    6  A    between atoms: C_19  and  C_23
REMARK    7  A    between atoms: C_29  and  C_35
REMARK    8  A    between atoms: C_36  and  C_37
REMARK                            x       y       z     vdW  Elec       q    Type
REMARK                         _______ _______ _______ _____ _____    ______ ____
ROOT
ATOM      1  O   UNL     1     112.245 128.701 139.269  0.00  0.00    +0.000 OA
ENDROOT
BRANCH   1   5
ATOM      2  O   UNL     1     113.152 129.476 141.098  0.00  0.00    +0.000 OA
ATOM      3  O   UNL     1     114.404 130.727 138.813  0.00  0.00    +0.000 OA
ATOM      4  O   UNL     1     115.270 131.431 141.513  0.00  0.00    +0.000 OA
ATOM      5  C   UNL     1     112.732 129.135 139.775  0.00  0.00    +0.000 C 
ATOM      6  C   UNL     1     112.666 129.042 140.592  0.00  0.00    +0.000 C 
ATOM      7  C   UNL     1     113.285 129.662 139.464  0.00  0.00    +0.000 C 
ATOM      8  C   UNL     1     113.772 130.095 139.969  0.00  0.00    +0.000 A 
ATOM      9  C   UNL     1     113.706 130.002 140.786  0.00  0.00    +0.000 A 
ATOM     10  C   UNL     1     114.344 130.641 139.632  0.00  0.00    +0.000 A 
ATOM     11  C   UNL     1     114.206 130.448 141.323  0.00  0.00    +0.000 A 
ATOM     12  C   UNL     1     114.854 131.095 140.154  0.00  0.00    +0.000 A 
ATOM     13  C   UNL     1     114.785 130.999 141.005  0.00  0.00    +0.000 A 
BRANCH   6  16
ATOM     14  O   UNL     1     111.957 126.398 141.414  0.00  0.00    +0.000 OA
ATOM     15  O   UNL     1     110.454 126.932 141.836  0.00  0.00    +0.000 OA
ATOM     16  C   UNL     1     112.112 128.515 140.903  0.00  0.00    +0.000 A 
ATOM     17  C   UNL     1     112.311 127.720 141.003  0.00  0.00    +0.000 A 
ATOM     18  C   UNL     1     111.361 128.782 141.114  0.00  0.00    +0.000 A 
ATOM     19  C   UNL     1     111.758 127.193 141.314  0.00  0.00    +0.000 A 
ATOM     20  C   UNL     1     110.808 128.254 141.425  0.00  0.00    +0.000 A 
ATOM     21  C   UNL     1     111.006 127.460 141.525  0.00  0.00    +0.000 A 
ENDBRANCH   6  16
ENDBRANCH   1   5
BRANCH   1  27
ATOM     22  O   UNL     1     111.517 129.732 138.599  0.00  0.00    +0.000 OA
ATOM     23  O   UNL     1     112.039 128.683 136.419  0.00  0.00    +0.000 OA
ATOM     24  O   UNL     1     111.137 130.062 136.476  0.00  0.00    +0.000 OA
ATOM     25  C   UNL     1     112.142 128.692 137.845  0.00  0.00    +0.000 C 
ATOM     26  C   UNL     1     111.865 129.032 137.145  0.00  0.00    +0.000 C 
ATOM     27  C   UNL     1     111.968 129.041 138.571  0.00  0.00    +0.000 C 
ATOM     28  C   UNL     1     111.414 129.722 137.174  0.00  0.00    +0.000 C 
ATOM     29  C   UNL     1     111.240 130.072 137.901  0.00  0.00    +0.000 C 
BRANCH  29  31
ATOM     30  O   UNL     1     110.204 130.850 138.503  0.00  0.00    +0.000 OA
ATOM     31  C   UNL     1     110.790 130.762 137.929  0.00  0.00    +0.000 C 
ENDBRANCH  29  31
BRANCH  25  32
ATOM     32  O   UNL     1     112.593 128.002 137.816  0.00  0.00    +0.000 OA
BRANCH  32  34
ATOM     33  O   UNL     1     111.428 127.180 137.724  0.00  0.00    +0.000 OA
ATOM     34  C   UNL     1     112.238 127.285 137.614  0.00  0.00    +0.000 C 
BRANCH  34  35
ATOM     35  C   UNL     1     112.695 126.673 137.301  0.00  0.00    +0.000 C 
ATOM     36  C   UNL     1     112.889 126.022 137.770  0.00  0.00    +0.000 C 
BRANCH  36  37
ATOM     37  C   UNL     1     113.345 125.410 137.459  0.00  0.00    +0.000 A 
ATOM     38  C   UNL     1     114.143 125.345 137.661  0.00  0.00    +0.000 A 
ATOM     39  C   UNL     1     113.004 124.861 136.946  0.00  0.00    +0.000 A 
ATOM     40  C   UNL     1     114.599 124.732 137.349  0.00  0.00    +0.000 A 
ATOM     41  C   UNL     1     113.461 124.248 136.635  0.00  0.00    +0.000 A 
ATOM     42  C   UNL     1     114.258 124.184 136.837  0.00  0.00    +0.000 A 
ENDBRANCH  36  37
ENDBRANCH  34  35
ENDBRANCH  32  34
ENDBRANCH  25  32
ENDBRANCH   1  27
TORSDOF 8
ENDMDL
