MODEL 1
REMARK VINA RESULT:     -10.6      0.000      0.000
REMARK  Name = 74977686
REMARK  6 active torsions:
REMARK  status: ('A' for Active; 'I' for Inactive)
REMARK    1  A    between atoms: O_2  and  C_16
REMARK    2  A    between atoms: O_2  and  C_21
REMARK    3  A    between atoms: O_14  and  C_39
REMARK    4  A    between atoms: C_18  and  C_22
REMARK    5  A    between atoms: C_20  and  C_25
REMARK    6  A    between atoms: C_34  and  C_36
REMARK                            x       y       z     vdW  Elec       q    Type
REMARK                         _______ _______ _______ _____ _____    ______ ____
ROOT
ATOM      1  O   UNL     1     111.697 126.296 136.543  0.00  0.00    +0.000 OA
ATOM      2  O   UNL     1     114.452 125.986 137.327  0.00  0.00    +0.000 OA
ATOM      3  O   UNL     1     112.972 123.699 136.460  0.00  0.00    +0.000 OA
ATOM      4  O   UNL     1     111.591 123.813 136.060  0.00  0.00    +0.000 OA
ATOM      5  C   UNL     1     113.085 126.126 136.935  0.00  0.00    +0.000 A 
ATOM      6  C   UNL     1     112.383 125.791 136.660  0.00  0.00    +0.000 A 
ATOM      7  C   UNL     1     113.750 125.651 137.052  0.00  0.00    +0.000 A 
ATOM      8  C   UNL     1     112.345 124.983 136.502  0.00  0.00    +0.000 A 
ATOM      9  C   UNL     1     113.713 124.842 136.893  0.00  0.00    +0.000 A 
ATOM     10  C   UNL     1     113.010 124.509 136.618  0.00  0.00    +0.000 A 
ATOM     11  C   UNL     1     111.619 124.623 136.215  0.00  0.00    +0.000 A 
ATOM     12  C   UNL     1     110.963 125.954 136.257  0.00  0.00    +0.000 A 
ATOM     13  C   UNL     1     110.924 125.111 136.092  0.00  0.00    +0.000 A 
ENDROOT
BRANCH   5  19
ATOM     14  O   UNL     1     113.398 127.455 136.516  0.00  0.00    +0.000 OA
ATOM     15  O   UNL     1     112.684 128.319 138.723  0.00  0.00    +0.000 OA
ATOM     16  O   UNL     1     113.235 129.361 137.568  0.00  0.00    +0.000 OA
ATOM     17  C   UNL     1     112.884 127.222 137.829  0.00  0.00    +0.000 C 
ATOM     18  C   UNL     1     112.922 128.031 137.987  0.00  0.00    +0.000 C 
ATOM     19  C   UNL     1     113.122 126.934 137.093  0.00  0.00    +0.000 C 
ATOM     20  C   UNL     1     113.198 128.552 137.410  0.00  0.00    +0.000 C 
ATOM     21  C   UNL     1     113.436 128.264 136.675  0.00  0.00    +0.000 C 
BRANCH  21  23
ATOM     22  O   UNL     1     113.564 128.630 135.299  0.00  0.00    +0.000 OA
ATOM     23  C   UNL     1     113.712 128.785 136.097  0.00  0.00    +0.000 C 
ENDBRANCH  21  23
BRANCH  17  24
ATOM     24  O   UNL     1     112.609 126.701 138.406  0.00  0.00    +0.000 OA
BRANCH  24  29
ATOM     25  O   UNL     1     113.639 127.054 139.332  0.00  0.00    +0.000 OA
ATOM     26  O   UNL     1     111.638 126.248 139.661  0.00  0.00    +0.000 OA
ATOM     27  O   UNL     1     112.182 126.374 141.213  0.00  0.00    +0.000 OA
ATOM     28  O   UNL     1     113.698 126.953 141.511  0.00  0.00    +0.000 OA
ATOM     29  C   UNL     1     112.881 126.764 139.183  0.00  0.00    +0.000 C 
ATOM     30  C   UNL     1     112.395 126.537 139.809  0.00  0.00    +0.000 C 
ATOM     31  C   UNL     1     112.668 126.601 140.585  0.00  0.00    +0.000 C 
ATOM     32  C   UNL     1     113.426 126.890 140.734  0.00  0.00    +0.000 C 
ATOM     33  C   UNL     1     113.911 127.117 140.107  0.00  0.00    +0.000 C 
ENDBRANCH  24  29
ENDBRANCH  17  24
ENDBRANCH   5  19
BRANCH  12  35
ATOM     34  O   UNL     1     108.310 127.861 135.793  0.00  0.00    +0.000 OA
ATOM     35  C   UNL     1     110.300 126.430 136.141  0.00  0.00    +0.000 A 
ATOM     36  C   UNL     1     110.266 126.939 135.492  0.00  0.00    +0.000 A 
ATOM     37  C   UNL     1     109.671 126.399 136.673  0.00  0.00    +0.000 A 
ATOM     38  C   UNL     1     109.602 127.416 135.376  0.00  0.00    +0.000 A 
ATOM     39  C   UNL     1     109.008 126.876 136.557  0.00  0.00    +0.000 A 
ATOM     40  C   UNL     1     108.973 127.385 135.909  0.00  0.00    +0.000 A 
BRANCH  38  41
ATOM     41  O   UNL     1     109.568 127.925 134.727  0.00  0.00    +0.000 OA
ATOM     42  C   UNL     1     110.160 128.488 134.613  0.00  0.00    +0.000 C 
ENDBRANCH  38  41
ENDBRANCH  12  35
TORSDOF 6
ENDMDL
MODEL 2
REMARK VINA RESULT:     -10.3      1.370      2.898
REMARK  Name = 74977686
REMARK  6 active torsions:
REMARK  status: ('A' for Active; 'I' for Inactive)
REMARK    1  A    between atoms: O_2  and  C_16
REMARK    2  A    between atoms: O_2  and  C_21
REMARK    3  A    between atoms: O_14  and  C_39
REMARK    4  A    between atoms: C_18  and  C_22
REMARK    5  A    between atoms: C_20  and  C_25
REMARK    6  A    between atoms: C_34  and  C_36
REMARK                            x       y       z     vdW  Elec       q    Type
REMARK                         _______ _______ _______ _____ _____    ______ ____
ROOT
ATOM      1  O   UNL     1     112.285 126.077 137.293  0.00  0.00    +0.000 OA
ATOM      2  O   UNL     1     113.667 126.686 139.747  0.00  0.00    +0.000 OA
ATOM      3  O   UNL     1     114.999 125.166 137.725  0.00  0.00    +0.000 OA
ATOM      4  O   UNL     1     114.341 124.841 136.483  0.00  0.00    +0.000 OA
ATOM      5  C   UNL     1     112.993 126.377 138.525  0.00  0.00    +0.000 A 
ATOM      6  C   UNL     1     112.991 126.021 137.782  0.00  0.00    +0.000 A 
ATOM      7  C   UNL     1     113.664 126.330 139.003  0.00  0.00    +0.000 A 
ATOM      8  C   UNL     1     113.659 125.618 137.515  0.00  0.00    +0.000 A 
ATOM      9  C   UNL     1     114.333 125.926 138.737  0.00  0.00    +0.000 A 
ATOM     10  C   UNL     1     114.329 125.570 137.992  0.00  0.00    +0.000 A 
ATOM     11  C   UNL     1     113.668 125.243 136.741  0.00  0.00    +0.000 A 
ATOM     12  C   UNL     1     112.276 125.709 136.517  0.00  0.00    +0.000 A 
ATOM     13  C   UNL     1     112.972 125.289 136.240  0.00  0.00    +0.000 A 
ENDROOT
BRANCH   5  19
ATOM     14  O   UNL     1     111.753 126.385 139.236  0.00  0.00    +0.000 OA
ATOM     15  O   UNL     1     111.463 128.784 138.705  0.00  0.00    +0.000 OA
ATOM     16  O   UNL     1     110.319 127.991 139.592  0.00  0.00    +0.000 OA
ATOM     17  C   UNL     1     112.228 127.581 138.615  0.00  0.00    +0.000 C 
ATOM     18  C   UNL     1     111.560 127.985 138.882  0.00  0.00    +0.000 C 
ATOM     19  C   UNL     1     112.325 126.780 138.792  0.00  0.00    +0.000 C 
ATOM     20  C   UNL     1     110.989 127.587 139.325  0.00  0.00    +0.000 C 
ATOM     21  C   UNL     1     111.085 126.788 139.502  0.00  0.00    +0.000 C 
BRANCH  21  23
ATOM     22  O   UNL     1     110.501 125.565 139.957  0.00  0.00    +0.000 OA
ATOM     23  C   UNL     1     110.514 126.391 139.946  0.00  0.00    +0.000 C 
ENDBRANCH  21  23
BRANCH  17  24
ATOM     24  O   UNL     1     112.800 127.977 138.171  0.00  0.00    +0.000 OA
BRANCH  24  29
ATOM     25  O   UNL     1     113.096 128.897 139.224  0.00  0.00    +0.000 OA
ATOM     26  O   UNL     1     113.320 129.081 137.062  0.00  0.00    +0.000 OA
ATOM     27  O   UNL     1     113.876 130.553 137.558  0.00  0.00    +0.000 OA
ATOM     28  O   UNL     1     113.912 130.920 139.167  0.00  0.00    +0.000 OA
ATOM     29  C   UNL     1     113.078 128.713 138.420  0.00  0.00    +0.000 C 
ATOM     30  C   UNL     1     113.338 129.265 137.865  0.00  0.00    +0.000 C 
ATOM     31  C   UNL     1     113.616 130.000 138.114  0.00  0.00    +0.000 C 
ATOM     32  C   UNL     1     113.634 130.184 138.918  0.00  0.00    +0.000 C 
ATOM     33  C   UNL     1     113.374 129.632 139.473  0.00  0.00    +0.000 C 
ENDBRANCH  24  29
ENDBRANCH  17  24
ENDBRANCH   5  19
BRANCH  12  35
ATOM     34  O   UNL     1     109.586 125.905 134.615  0.00  0.00    +0.000 OA
ATOM     35  C   UNL     1     111.604 125.758 136.042  0.00  0.00    +0.000 A 
ATOM     36  C   UNL     1     111.483 126.420 135.565  0.00  0.00    +0.000 A 
ATOM     37  C   UNL     1     111.052 125.145 136.043  0.00  0.00    +0.000 A 
ATOM     38  C   UNL     1     110.811 126.470 135.089  0.00  0.00    +0.000 A 
ATOM     39  C   UNL     1     110.379 125.194 135.568  0.00  0.00    +0.000 A 
ATOM     40  C   UNL     1     110.259 125.856 135.091  0.00  0.00    +0.000 A 
BRANCH  38  41
ATOM     41  O   UNL     1     110.690 127.132 134.612  0.00  0.00    +0.000 OA
ATOM     42  C   UNL     1     110.863 127.885 134.901  0.00  0.00    +0.000 C 
ENDBRANCH  38  41
ENDBRANCH  12  35
TORSDOF 6
ENDMDL
MODEL 3
REMARK VINA RESULT:     -10.2      1.422      3.102
REMARK  Name = 74977686
REMARK  6 active torsions:
REMARK  status: ('A' for Active; 'I' for Inactive)
REMARK    1  A    between atoms: O_2  and  C_16
REMARK    2  A    between atoms: O_2  and  C_21
REMARK    3  A    between atoms: O_14  and  C_39
REMARK    4  A    between atoms: C_18  and  C_22
REMARK    5  A    between atoms: C_20  and  C_25
REMARK    6  A    between atoms: C_34  and  C_36
REMARK                            x       y       z     vdW  Elec       q    Type
REMARK                         _______ _______ _______ _____ _____    ______ ____
ROOT
ATOM      1  O   UNL     1     112.133 127.148 136.099  0.00  0.00    +0.000 OA
ATOM      2  O   UNL     1     111.611 124.349 136.541  0.00  0.00    +0.000 OA
ATOM      3  O   UNL     1     109.858 125.857 134.860  0.00  0.00    +0.000 OA
ATOM      4  O   UNL     1     110.086 127.260 134.614  0.00  0.00    +0.000 OA
ATOM      5  C   UNL     1     111.859 125.738 136.314  0.00  0.00    +0.000 A 
ATOM      6  C   UNL     1     111.649 126.452 135.958  0.00  0.00    +0.000 A 
ATOM      7  C   UNL     1     111.401 125.063 136.185  0.00  0.00    +0.000 A 
ATOM      8  C   UNL     1     110.982 126.491 135.473  0.00  0.00    +0.000 A 
ATOM      9  C   UNL     1     110.735 125.102 135.700  0.00  0.00    +0.000 A 
ATOM     10  C   UNL     1     110.526 125.817 135.345  0.00  0.00    +0.000 A 
ATOM     11  C   UNL     1     110.754 127.230 135.097  0.00  0.00    +0.000 A 
ATOM     12  C   UNL     1     111.920 127.894 135.732  0.00  0.00    +0.000 A 
ATOM     13  C   UNL     1     111.226 127.935 135.227  0.00  0.00    +0.000 A 
ENDROOT
BRANCH   5  19
ATOM     14  O   UNL     1     113.278 125.674 136.462  0.00  0.00    +0.000 OA
ATOM     15  O   UNL     1     113.018 125.629 138.923  0.00  0.00    +0.000 OA
ATOM     16  O   UNL     1     114.525 125.579 138.252  0.00  0.00    +0.000 OA
ATOM     17  C   UNL     1     112.438 125.683 137.619  0.00  0.00    +0.000 C 
ATOM     18  C   UNL     1     113.105 125.644 138.103  0.00  0.00    +0.000 C 
ATOM     19  C   UNL     1     112.525 125.698 136.798  0.00  0.00    +0.000 C 
ATOM     20  C   UNL     1     113.858 125.619 137.767  0.00  0.00    +0.000 C 
ATOM     21  C   UNL     1     113.945 125.634 136.947  0.00  0.00    +0.000 C 
BRANCH  21  23
ATOM     22  O   UNL     1     114.834 125.150 135.937  0.00  0.00    +0.000 OA
ATOM     23  C   UNL     1     114.698 125.609 136.610  0.00  0.00    +0.000 C 
ENDBRANCH  21  23
BRANCH  17  24
ATOM     24  O   UNL     1     111.685 125.708 137.954  0.00  0.00    +0.000 OA
BRANCH  24  29
ATOM     25  O   UNL     1     111.964 126.894 138.701  0.00  0.00    +0.000 OA
ATOM     26  O   UNL     1     110.547 125.276 139.067  0.00  0.00    +0.000 OA
ATOM     27  O   UNL     1     110.256 126.244 140.370  0.00  0.00    +0.000 OA
ATOM     28  O   UNL     1     111.104 127.647 140.560  0.00  0.00    +0.000 OA
ATOM     29  C   UNL     1     111.540 126.193 138.606  0.00  0.00    +0.000 C 
ATOM     30  C   UNL     1     110.970 125.976 139.162  0.00  0.00    +0.000 C 
ATOM     31  C   UNL     1     110.825 126.461 139.813  0.00  0.00    +0.000 C 
ATOM     32  C   UNL     1     111.249 127.162 139.908  0.00  0.00    +0.000 C 
ATOM     33  C   UNL     1     111.818 127.379 139.352  0.00  0.00    +0.000 C 
ENDBRANCH  24  29
ENDBRANCH  17  24
ENDBRANCH   5  19
BRANCH  12  35
ATOM     34  O   UNL     1     113.756 130.587 136.253  0.00  0.00    +0.000 OA
ATOM     35  C   UNL     1     112.379 128.567 135.862  0.00  0.00    +0.000 A 
ATOM     36  C   UNL     1     113.056 128.699 135.409  0.00  0.00    +0.000 A 
ATOM     37  C   UNL     1     112.162 129.109 136.445  0.00  0.00    +0.000 A 
ATOM     38  C   UNL     1     113.516 129.372 135.539  0.00  0.00    +0.000 A 
ATOM     39  C   UNL     1     112.620 129.782 136.575  0.00  0.00    +0.000 A 
ATOM     40  C   UNL     1     113.297 129.914 136.122  0.00  0.00    +0.000 A 
BRANCH  38  41
ATOM     41  O   UNL     1     114.193 129.504 135.087  0.00  0.00    +0.000 OA
ATOM     42  C   UNL     1     114.699 128.877 134.910  0.00  0.00    +0.000 C 
ENDBRANCH  38  41
ENDBRANCH  12  35
TORSDOF 6
ENDMDL
MODEL 4
REMARK VINA RESULT:     -10.1      9.779     12.091
REMARK  Name = 74977686
REMARK  6 active torsions:
REMARK  status: ('A' for Active; 'I' for Inactive)
REMARK    1  A    between atoms: O_2  and  C_16
REMARK    2  A    between atoms: O_2  and  C_21
REMARK    3  A    between atoms: O_14  and  C_39
REMARK    4  A    between atoms: C_18  and  C_22
REMARK    5  A    between atoms: C_20  and  C_25
REMARK    6  A    between atoms: C_34  and  C_36
REMARK                            x       y       z     vdW  Elec       q    Type
REMARK                         _______ _______ _______ _____ _____    ______ ____
ROOT
ATOM      1  O   UNL     1     105.030 125.012 147.285  0.00  0.00    +0.000 OA
ATOM      2  O   UNL     1     107.748 125.688 146.607  0.00  0.00    +0.000 OA
ATOM      3  O   UNL     1     107.157 124.696 149.222  0.00  0.00    +0.000 OA
ATOM      4  O   UNL     1     105.810 124.346 149.600  0.00  0.00    +0.000 OA
ATOM      5  C   UNL     1     106.404 125.349 146.956  0.00  0.00    +0.000 A 
ATOM      6  C   UNL     1     105.858 125.071 147.508  0.00  0.00    +0.000 A 
ATOM      7  C   UNL     1     107.202 125.410 147.160  0.00  0.00    +0.000 A 
ATOM      8  C   UNL     1     106.109 124.853 148.263  0.00  0.00    +0.000 A 
ATOM      9  C   UNL     1     107.453 125.192 147.915  0.00  0.00    +0.000 A 
ATOM     10  C   UNL     1     106.906 124.914 148.466  0.00  0.00    +0.000 A 
ATOM     11  C   UNL     1     105.549 124.562 148.847  0.00  0.00    +0.000 A 
ATOM     12  C   UNL     1     104.457 124.723 147.855  0.00  0.00    +0.000 A 
ATOM     13  C   UNL     1     104.718 124.496 148.641  0.00  0.00    +0.000 A 
ENDROOT
BRANCH   5  19
ATOM     14  O   UNL     1     106.172 125.018 145.586  0.00  0.00    +0.000 OA
ATOM     15  O   UNL     1     105.364 127.319 145.167  0.00  0.00    +0.000 OA
ATOM     16  O   UNL     1     105.400 126.220 143.935  0.00  0.00    +0.000 OA
ATOM     17  C   UNL     1     105.884 126.334 146.062  0.00  0.00    +0.000 C 
ATOM     18  C   UNL     1     105.633 126.552 145.306  0.00  0.00    +0.000 C 
ATOM     19  C   UNL     1     106.153 125.567 146.202  0.00  0.00    +0.000 C 
ATOM     20  C   UNL     1     105.652 126.002 144.691  0.00  0.00    +0.000 C 
ATOM     21  C   UNL     1     105.921 125.236 144.831  0.00  0.00    +0.000 C 
BRANCH  21  23
ATOM     22  O   UNL     1     105.985 123.879 144.386  0.00  0.00    +0.000 OA
ATOM     23  C   UNL     1     105.939 124.686 144.216  0.00  0.00    +0.000 C 
ENDBRANCH  21  23
BRANCH  17  24
ATOM     24  O   UNL     1     105.866 126.883 146.677  0.00  0.00    +0.000 OA
BRANCH  24  29
ATOM     25  O   UNL     1     106.781 127.775 146.037  0.00  0.00    +0.000 OA
ATOM     26  O   UNL     1     105.182 128.157 147.472  0.00  0.00    +0.000 OA
ATOM     27  O   UNL     1     105.754 129.685 147.231  0.00  0.00    +0.000 OA
ATOM     28  O   UNL     1     107.012 129.940 146.194  0.00  0.00    +0.000 OA
ATOM     29  C   UNL     1     106.153 127.648 146.556  0.00  0.00    +0.000 C 
ATOM     30  C   UNL     1     105.810 128.284 146.954  0.00  0.00    +0.000 C 
ATOM     31  C   UNL     1     106.097 129.048 146.833  0.00  0.00    +0.000 C 
ATOM     32  C   UNL     1     106.726 129.175 146.314  0.00  0.00    +0.000 C 
ATOM     33  C   UNL     1     107.068 128.539 145.917  0.00  0.00    +0.000 C 
ENDBRANCH  24  29
ENDBRANCH  17  24
ENDBRANCH   5  19
BRANCH  12  35
ATOM     34  O   UNL     1     101.270 124.484 147.031  0.00  0.00    +0.000 OA
ATOM     35  C   UNL     1     103.660 124.664 147.649  0.00  0.00    +0.000 A 
ATOM     36  C   UNL     1     103.400 124.032 147.187  0.00  0.00    +0.000 A 
ATOM     37  C   UNL     1     103.123 125.235 147.905  0.00  0.00    +0.000 A 
ATOM     38  C   UNL     1     102.603 123.972 146.980  0.00  0.00    +0.000 A 
ATOM     39  C   UNL     1     102.327 125.175 147.699  0.00  0.00    +0.000 A 
ATOM     40  C   UNL     1     102.066 124.544 147.237  0.00  0.00    +0.000 A 
BRANCH  38  41
ATOM     41  O   UNL     1     102.342 123.340 146.518  0.00  0.00    +0.000 OA
ATOM     42  C   UNL     1     102.821 123.047 145.913  0.00  0.00    +0.000 C 
ENDBRANCH  38  41
ENDBRANCH  12  35
TORSDOF 6
ENDMDL
MODEL 5
REMARK VINA RESULT:     -10.0      1.234      2.777
REMARK  Name = 74977686
REMARK  6 active torsions:
REMARK  status: ('A' for Active; 'I' for Inactive)
REMARK    1  A    between atoms: O_2  and  C_16
REMARK    2  A    between atoms: O_2  and  C_21
REMARK    3  A    between atoms: O_14  and  C_39
REMARK    4  A    between atoms: C_18  and  C_22
REMARK    5  A    between atoms: C_20  and  C_25
REMARK    6  A    between atoms: C_34  and  C_36
REMARK                            x       y       z     vdW  Elec       q    Type
REMARK                         _______ _______ _______ _____ _____    ______ ____
ROOT
ATOM      1  O   UNL     1     111.705 127.775 136.212  0.00  0.00    +0.000 OA
ATOM      2  O   UNL     1     114.125 126.386 136.929  0.00  0.00    +0.000 OA
ATOM      3  O   UNL     1     114.280 128.724 135.292  0.00  0.00    +0.000 OA
ATOM      4  O   UNL     1     113.091 129.447 134.911  0.00  0.00    +0.000 OA
ATOM      5  C   UNL     1     112.932 127.084 136.566  0.00  0.00    +0.000 A 
ATOM      6  C   UNL     1     112.561 127.707 136.173  0.00  0.00    +0.000 A 
ATOM      7  C   UNL     1     113.754 127.008 136.535  0.00  0.00    +0.000 A 
ATOM      8  C   UNL     1     113.010 128.253 135.748  0.00  0.00    +0.000 A 
ATOM      9  C   UNL     1     114.203 127.555 136.111  0.00  0.00    +0.000 A 
ATOM     10  C   UNL     1     113.830 128.177 135.717  0.00  0.00    +0.000 A 
ATOM     11  C   UNL     1     112.634 128.906 135.334  0.00  0.00    +0.000 A 
ATOM     12  C   UNL     1     111.312 128.421 135.805  0.00  0.00    +0.000 A 
ATOM     13  C   UNL     1     111.780 128.990 135.362  0.00  0.00    +0.000 A 
ENDROOT
BRANCH   5  19
ATOM     14  O   UNL     1     112.227 125.843 136.628  0.00  0.00    +0.000 OA
ATOM     15  O   UNL     1     111.650 126.288 138.992  0.00  0.00    +0.000 OA
ATOM     16  O   UNL     1     111.136 124.898 138.265  0.00  0.00    +0.000 OA
ATOM     17  C   UNL     1     112.291 126.686 137.780  0.00  0.00    +0.000 C 
ATOM     18  C   UNL     1     111.842 126.140 138.204  0.00  0.00    +0.000 C 
ATOM     19  C   UNL     1     112.484 126.538 136.991  0.00  0.00    +0.000 C 
ATOM     20  C   UNL     1     111.586 125.445 137.840  0.00  0.00    +0.000 C 
ATOM     21  C   UNL     1     111.778 125.297 137.052  0.00  0.00    +0.000 C 
BRANCH  21  23
ATOM     22  O   UNL     1     111.199 124.630 135.928  0.00  0.00    +0.000 OA
ATOM     23  C   UNL     1     111.522 124.602 136.688  0.00  0.00    +0.000 C 
ENDBRANCH  21  23
BRANCH  17  24
ATOM     24  O   UNL     1     112.548 127.381 138.143  0.00  0.00    +0.000 OA
BRANCH  24  29
ATOM     25  O   UNL     1     113.336 126.679 139.107  0.00  0.00    +0.000 OA
ATOM     26  O   UNL     1     112.419 128.658 139.180  0.00  0.00    +0.000 OA
ATOM     27  O   UNL     1     113.142 128.595 140.661  0.00  0.00    +0.000 OA
ATOM     28  O   UNL     1     113.995 127.255 141.106  0.00  0.00    +0.000 OA
ATOM     29  C   UNL     1     112.910 127.349 138.884  0.00  0.00    +0.000 C 
ATOM     30  C   UNL     1     112.845 127.988 139.402  0.00  0.00    +0.000 C 
ATOM     31  C   UNL     1     113.207 127.956 140.142  0.00  0.00    +0.000 C 
ATOM     32  C   UNL     1     113.633 127.286 140.365  0.00  0.00    +0.000 C 
ATOM     33  C   UNL     1     113.698 126.648 139.847  0.00  0.00    +0.000 C 
ENDBRANCH  24  29
ENDBRANCH  17  24
ENDBRANCH   5  19
BRANCH  12  35
ATOM     34  O   UNL     1     108.028 128.716 135.936  0.00  0.00    +0.000 OA
ATOM     35  C   UNL     1     110.491 128.495 135.837  0.00  0.00    +0.000 A 
ATOM     36  C   UNL     1     110.141 128.947 136.432  0.00  0.00    +0.000 A 
ATOM     37  C   UNL     1     110.020 128.116 135.277  0.00  0.00    +0.000 A 
ATOM     38  C   UNL     1     109.320 129.021 136.465  0.00  0.00    +0.000 A 
ATOM     39  C   UNL     1     109.199 128.190 135.309  0.00  0.00    +0.000 A 
ATOM     40  C   UNL     1     108.849 128.642 135.904  0.00  0.00    +0.000 A 
BRANCH  38  41
ATOM     41  O   UNL     1     108.969 129.474 137.059  0.00  0.00    +0.000 OA
ATOM     42  C   UNL     1     109.340 129.549 137.793  0.00  0.00    +0.000 C 
ENDBRANCH  38  41
ENDBRANCH  12  35
TORSDOF 6
ENDMDL
MODEL 6
REMARK VINA RESULT:      -9.9      1.803      4.537
REMARK  Name = 74977686
REMARK  6 active torsions:
REMARK  status: ('A' for Active; 'I' for Inactive)
REMARK    1  A    between atoms: O_2  and  C_16
REMARK    2  A    between atoms: O_2  and  C_21
REMARK    3  A    between atoms: O_14  and  C_39
REMARK    4  A    between atoms: C_18  and  C_22
REMARK    5  A    between atoms: C_20  and  C_25
REMARK    6  A    between atoms: C_34  and  C_36
REMARK                            x       y       z     vdW  Elec       q    Type
REMARK                         _______ _______ _______ _____ _____    ______ ____
ROOT
ATOM      1  O   UNL     1     112.180 127.488 137.188  0.00  0.00    +0.000 OA
ATOM      2  O   UNL     1     111.831 130.120 138.306  0.00  0.00    +0.000 OA
ATOM      3  O   UNL     1     113.924 129.664 136.413  0.00  0.00    +0.000 OA
ATOM      4  O   UNL     1     114.131 128.360 135.831  0.00  0.00    +0.000 OA
ATOM      5  C   UNL     1     112.015 128.819 137.744  0.00  0.00    +0.000 A 
ATOM      6  C   UNL     1     112.425 128.310 137.241  0.00  0.00    +0.000 A 
ATOM      7  C   UNL     1     112.242 129.611 137.803  0.00  0.00    +0.000 A 
ATOM      8  C   UNL     1     113.061 128.591 136.797  0.00  0.00    +0.000 A 
ATOM      9  C   UNL     1     112.878 129.892 137.359  0.00  0.00    +0.000 A 
ATOM     10  C   UNL     1     113.287 129.382 136.857  0.00  0.00    +0.000 A 
ATOM     11  C   UNL     1     113.496 128.070 136.270  0.00  0.00    +0.000 A 
ATOM     12  C   UNL     1     112.603 126.952 136.666  0.00  0.00    +0.000 A 
ATOM     13  C   UNL     1     113.265 127.245 136.204  0.00  0.00    +0.000 A 
ENDROOT
BRANCH   5  19
ATOM     14  O   UNL     1     111.503 128.250 138.950  0.00  0.00    +0.000 OA
ATOM     15  O   UNL     1     109.222 128.269 137.991  0.00  0.00    +0.000 OA
ATOM     16  O   UNL     1     109.470 127.693 139.518  0.00  0.00    +0.000 OA
ATOM     17  C   UNL     1     110.618 128.544 137.867  0.00  0.00    +0.000 C 
ATOM     18  C   UNL     1     109.982 128.263 138.310  0.00  0.00    +0.000 C 
ATOM     19  C   UNL     1     111.380 128.538 138.187  0.00  0.00    +0.000 C 
ATOM     20  C   UNL     1     110.107 127.975 139.074  0.00  0.00    +0.000 C 
ATOM     21  C   UNL     1     110.867 127.969 139.393  0.00  0.00    +0.000 C 
BRANCH  21  23
ATOM     22  O   UNL     1     111.725 127.361 140.362  0.00  0.00    +0.000 OA
ATOM     23  C   UNL     1     110.992 127.681 140.157  0.00  0.00    +0.000 C 
ENDBRANCH  21  23
BRANCH  17  24
ATOM     24  O   UNL     1     110.495 128.832 137.104  0.00  0.00    +0.000 OA
BRANCH  24  29
ATOM     25  O   UNL     1     109.633 129.884 137.546  0.00  0.00    +0.000 OA
ATOM     26  O   UNL     1     109.744 128.836 135.635  0.00  0.00    +0.000 OA
ATOM     27  O   UNL     1     108.509 129.888 135.341  0.00  0.00    +0.000 OA
ATOM     28  O   UNL     1     108.023 130.938 136.517  0.00  0.00    +0.000 OA
ATOM     29  C   UNL     1     109.876 129.359 136.957  0.00  0.00    +0.000 C 
ATOM     30  C   UNL     1     109.502 129.360 136.222  0.00  0.00    +0.000 C 
ATOM     31  C   UNL     1     108.884 129.887 136.076  0.00  0.00    +0.000 C 
ATOM     32  C   UNL     1     108.641 130.412 136.665  0.00  0.00    +0.000 C 
ATOM     33  C   UNL     1     109.016 130.410 137.399  0.00  0.00    +0.000 C 
ENDBRANCH  24  29
ENDBRANCH  17  24
ENDBRANCH   5  19
BRANCH  12  35
ATOM     34  O   UNL     1     111.689 123.789 136.436  0.00  0.00    +0.000 OA
ATOM     35  C   UNL     1     112.375 126.161 136.609  0.00  0.00    +0.000 A 
ATOM     36  C   UNL     1     111.761 125.945 136.102  0.00  0.00    +0.000 A 
ATOM     37  C   UNL     1     112.760 125.587 137.058  0.00  0.00    +0.000 A 
ATOM     38  C   UNL     1     111.531 125.154 136.044  0.00  0.00    +0.000 A 
ATOM     39  C   UNL     1     112.531 124.796 137.000  0.00  0.00    +0.000 A 
ATOM     40  C   UNL     1     111.917 124.580 136.493  0.00  0.00    +0.000 A 
BRANCH  38  41
ATOM     41  O   UNL     1     110.917 124.938 135.537  0.00  0.00    +0.000 OA
ATOM     42  C   UNL     1     110.332 125.486 135.341  0.00  0.00    +0.000 C 
ENDBRANCH  38  41
ENDBRANCH  12  35
TORSDOF 6
ENDMDL
MODEL 7
REMARK VINA RESULT:      -9.9      1.506      4.514
REMARK  Name = 74977686
REMARK  6 active torsions:
REMARK  status: ('A' for Active; 'I' for Inactive)
REMARK    1  A    between atoms: O_2  and  C_16
REMARK    2  A    between atoms: O_2  and  C_21
REMARK    3  A    between atoms: O_14  and  C_39
REMARK    4  A    between atoms: C_18  and  C_22
REMARK    5  A    between atoms: C_20  and  C_25
REMARK    6  A    between atoms: C_34  and  C_36
REMARK                            x       y       z     vdW  Elec       q    Type
REMARK                         _______ _______ _______ _____ _____    ______ ____
ROOT
ATOM      1  O   UNL     1     112.584 126.248 138.553  0.00  0.00    +0.000 OA
ATOM      2  O   UNL     1     111.073 124.614 136.724  0.00  0.00    +0.000 OA
ATOM      3  O   UNL     1     113.920 124.365 136.807  0.00  0.00    +0.000 OA
ATOM      4  O   UNL     1     114.711 125.166 137.708  0.00  0.00    +0.000 OA
ATOM      5  C   UNL     1     111.834 125.419 137.627  0.00  0.00    +0.000 A 
ATOM      6  C   UNL     1     112.562 125.645 137.941  0.00  0.00    +0.000 A 
ATOM      7  C   UNL     1     111.801 124.840 137.038  0.00  0.00    +0.000 A 
ATOM      8  C   UNL     1     113.257 125.294 137.668  0.00  0.00    +0.000 A 
ATOM      9  C   UNL     1     112.496 124.489 136.765  0.00  0.00    +0.000 A 
ATOM     10  C   UNL     1     113.224 124.717 137.080  0.00  0.00    +0.000 A 
ATOM     11  C   UNL     1     114.022 125.522 137.988  0.00  0.00    +0.000 A 
ATOM     12  C   UNL     1     113.339 126.489 138.884  0.00  0.00    +0.000 A 
ATOM     13  C   UNL     1     114.063 126.123 138.600  0.00  0.00    +0.000 A 
ENDROOT
BRANCH   5  19
ATOM     14  O   UNL     1     110.847 125.578 138.646  0.00  0.00    +0.000 OA
ATOM     15  O   UNL     1     109.640 127.204 137.224  0.00  0.00    +0.000 OA
ATOM     16  O   UNL     1     109.054 126.822 138.719  0.00  0.00    +0.000 OA
ATOM     17  C   UNL     1     110.737 126.311 137.425  0.00  0.00    +0.000 C 
ATOM     18  C   UNL     1     110.042 126.662 137.698  0.00  0.00    +0.000 C 
ATOM     19  C   UNL     1     111.140 125.769 137.899  0.00  0.00    +0.000 C 
ATOM     20  C   UNL     1     109.750 126.471 138.445  0.00  0.00    +0.000 C 
ATOM     21  C   UNL     1     110.152 125.929 138.919  0.00  0.00    +0.000 C 
BRANCH  21  23
ATOM     22  O   UNL     1     110.016 124.995 139.993  0.00  0.00    +0.000 OA
ATOM     23  C   UNL     1     109.860 125.738 139.667  0.00  0.00    +0.000 C 
ENDBRANCH  21  23
BRANCH  17  24
ATOM     24  O   UNL     1     111.030 126.502 136.677  0.00  0.00    +0.000 OA
BRANCH  24  29
ATOM     25  O   UNL     1     111.169 127.884 137.015  0.00  0.00    +0.000 OA
ATOM     26  O   UNL     1     110.975 126.899 135.077  0.00  0.00    +0.000 OA
ATOM     27  O   UNL     1     111.086 128.478 134.614  0.00  0.00    +0.000 OA
ATOM     28  O   UNL     1     111.253 129.662 135.752  0.00  0.00    +0.000 OA
ATOM     29  C   UNL     1     111.086 127.293 136.446  0.00  0.00    +0.000 C 
ATOM     30  C   UNL     1     111.058 127.490 135.646  0.00  0.00    +0.000 C 
ATOM     31  C   UNL     1     111.114 128.280 135.415  0.00  0.00    +0.000 C 
ATOM     32  C   UNL     1     111.197 128.872 135.984  0.00  0.00    +0.000 C 
ATOM     33  C   UNL     1     111.225 128.673 136.784  0.00  0.00    +0.000 C 
ENDBRANCH  24  29
ENDBRANCH  17  24
ENDBRANCH   5  19
BRANCH  12  35
ATOM     34  O   UNL     1     113.460 128.802 141.235  0.00  0.00    +0.000 OA
ATOM     35  C   UNL     1     113.369 127.067 139.472  0.00  0.00    +0.000 A 
ATOM     36  C   UNL     1     113.345 127.866 139.267  0.00  0.00    +0.000 A 
ATOM     37  C   UNL     1     113.424 126.847 140.265  0.00  0.00    +0.000 A 
ATOM     38  C   UNL     1     113.375 128.445 139.854  0.00  0.00    +0.000 A 
ATOM     39  C   UNL     1     113.454 127.426 140.853  0.00  0.00    +0.000 A 
ATOM     40  C   UNL     1     113.430 128.224 140.647  0.00  0.00    +0.000 A 
BRANCH  38  41
ATOM     41  O   UNL     1     113.351 129.243 139.649  0.00  0.00    +0.000 OA
ATOM     42  C   UNL     1     113.833 129.528 139.043  0.00  0.00    +0.000 C 
ENDBRANCH  38  41
ENDBRANCH  12  35
TORSDOF 6
ENDMDL
MODEL 8
REMARK VINA RESULT:      -9.9      1.395      4.443
REMARK  Name = 74977686
REMARK  6 active torsions:
REMARK  status: ('A' for Active; 'I' for Inactive)
REMARK    1  A    between atoms: O_2  and  C_16
REMARK    2  A    between atoms: O_2  and  C_21
REMARK    3  A    between atoms: O_14  and  C_39
REMARK    4  A    between atoms: C_18  and  C_22
REMARK    5  A    between atoms: C_20  and  C_25
REMARK    6  A    between atoms: C_34  and  C_36
REMARK                            x       y       z     vdW  Elec       q    Type
REMARK                         _______ _______ _______ _____ _____    ______ ____
ROOT
ATOM      1  O   UNL     1     112.410 127.333 137.718  0.00  0.00    +0.000 OA
ATOM      2  O   UNL     1     111.793 130.141 137.914  0.00  0.00    +0.000 OA
ATOM      3  O   UNL     1     111.610 128.496 140.245  0.00  0.00    +0.000 OA
ATOM      4  O   UNL     1     111.911 127.087 140.188  0.00  0.00    +0.000 OA
ATOM      5  C   UNL     1     112.096 128.747 137.831  0.00  0.00    +0.000 A 
ATOM      6  C   UNL     1     112.166 128.009 138.192  0.00  0.00    +0.000 A 
ATOM      7  C   UNL     1     111.863 129.402 138.275  0.00  0.00    +0.000 A 
ATOM      8  C   UNL     1     112.005 127.925 138.996  0.00  0.00    +0.000 A 
ATOM      9  C   UNL     1     111.701 129.319 139.080  0.00  0.00    +0.000 A 
ATOM     10  C   UNL     1     111.772 128.580 139.440  0.00  0.00    +0.000 A 
ATOM     11  C   UNL     1     112.075 127.161 139.383  0.00  0.00    +0.000 A 
ATOM     12  C   UNL     1     112.485 126.562 138.088  0.00  0.00    +0.000 A 
ATOM     13  C   UNL     1     112.317 126.475 138.926  0.00  0.00    +0.000 A 
ENDROOT
BRANCH   5  19
ATOM     14  O   UNL     1     113.018 129.030 136.777  0.00  0.00    +0.000 OA
ATOM     15  O   UNL     1     111.222 128.682 135.111  0.00  0.00    +0.000 OA
ATOM     16  O   UNL     1     112.744 129.081 134.612  0.00  0.00    +0.000 OA
ATOM     17  C   UNL     1     111.658 128.714 136.471  0.00  0.00    +0.000 C 
ATOM     18  C   UNL     1     111.820 128.798 135.666  0.00  0.00    +0.000 C 
ATOM     19  C   UNL     1     112.258 128.830 137.027  0.00  0.00    +0.000 C 
ATOM     20  C   UNL     1     112.582 128.997 135.418  0.00  0.00    +0.000 C 
ATOM     21  C   UNL     1     113.180 129.113 135.973  0.00  0.00    +0.000 C 
BRANCH  21  23
ATOM     22  O   UNL     1     114.394 129.844 136.166  0.00  0.00    +0.000 OA
ATOM     23  C   UNL     1     113.941 129.312 135.724  0.00  0.00    +0.000 C 
ENDBRANCH  21  23
BRANCH  17  24
ATOM     24  O   UNL     1     110.898 128.515 136.721  0.00  0.00    +0.000 OA
BRANCH  24  29
ATOM     25  O   UNL     1     110.308 129.694 136.168  0.00  0.00    +0.000 OA
ATOM     26  O   UNL     1     109.463 127.719 136.550  0.00  0.00    +0.000 OA
ATOM     27  O   UNL     1     108.156 128.498 135.914  0.00  0.00    +0.000 OA
ATOM     28  O   UNL     1     108.284 130.075 135.447  0.00  0.00    +0.000 OA
ATOM     29  C   UNL     1     110.244 128.906 136.402  0.00  0.00    +0.000 C 
ATOM     30  C   UNL     1     109.527 128.507 136.317  0.00  0.00    +0.000 C 
ATOM     31  C   UNL     1     108.874 128.897 135.999  0.00  0.00    +0.000 C 
ATOM     32  C   UNL     1     108.938 129.686 135.765  0.00  0.00    +0.000 C 
ATOM     33  C   UNL     1     109.655 130.084 135.850  0.00  0.00    +0.000 C 
ENDBRANCH  24  29
ENDBRANCH  17  24
ENDBRANCH   5  19
BRANCH  12  35
ATOM     34  O   UNL     1     113.416 123.947 136.302  0.00  0.00    +0.000 OA
ATOM     35  C   UNL     1     112.718 125.908 137.642  0.00  0.00    +0.000 A 
ATOM     36  C   UNL     1     112.155 125.470 137.228  0.00  0.00    +0.000 A 
ATOM     37  C   UNL     1     113.513 125.693 137.609  0.00  0.00    +0.000 A 
ATOM     38  C   UNL     1     112.387 124.816 136.781  0.00  0.00    +0.000 A 
ATOM     39  C   UNL     1     113.746 125.039 137.162  0.00  0.00    +0.000 A 
ATOM     40  C   UNL     1     113.183 124.601 136.748  0.00  0.00    +0.000 A 
BRANCH  38  41
ATOM     41  O   UNL     1     111.824 124.377 136.367  0.00  0.00    +0.000 OA
ATOM     42  C   UNL     1     111.213 124.763 135.967  0.00  0.00    +0.000 C 
ENDBRANCH  38  41
ENDBRANCH  12  35
TORSDOF 6
ENDMDL
MODEL 9
REMARK VINA RESULT:      -9.9      1.457      4.198
REMARK  Name = 74977686
REMARK  6 active torsions:
REMARK  status: ('A' for Active; 'I' for Inactive)
REMARK    1  A    between atoms: O_2  and  C_16
REMARK    2  A    between atoms: O_2  and  C_21
REMARK    3  A    between atoms: O_14  and  C_39
REMARK    4  A    between atoms: C_18  and  C_22
REMARK    5  A    between atoms: C_20  and  C_25
REMARK    6  A    between atoms: C_34  and  C_36
REMARK                            x       y       z     vdW  Elec       q    Type
REMARK                         _______ _______ _______ _____ _____    ______ ____
ROOT
ATOM      1  O   UNL     1     112.104 126.841 137.305  0.00  0.00    +0.000 OA
ATOM      2  O   UNL     1     111.248 127.406 134.613  0.00  0.00    +0.000 OA
ATOM      3  O   UNL     1     110.721 124.834 135.743  0.00  0.00    +0.000 OA
ATOM      4  O   UNL     1     111.134 124.512 137.087  0.00  0.00    +0.000 OA
ATOM      5  C   UNL     1     111.667 127.113 135.947  0.00  0.00    +0.000 A 
ATOM      6  C   UNL     1     111.719 126.586 136.580  0.00  0.00    +0.000 A 
ATOM      7  C   UNL     1     111.299 126.879 135.245  0.00  0.00    +0.000 A 
ATOM      8  C   UNL     1     111.404 125.827 136.512  0.00  0.00    +0.000 A 
ATOM      9  C   UNL     1     110.984 126.120 135.178  0.00  0.00    +0.000 A 
ATOM     10  C   UNL     1     111.037 125.594 135.811  0.00  0.00    +0.000 A 
ATOM     11  C   UNL     1     111.452 125.269 137.165  0.00  0.00    +0.000 A 
ATOM     12  C   UNL     1     112.161 126.297 137.967  0.00  0.00    +0.000 A 
ATOM     13  C   UNL     1     111.833 125.506 137.897  0.00  0.00    +0.000 A 
ENDROOT
BRANCH   5  19
ATOM     14  O   UNL     1     112.763 128.016 135.792  0.00  0.00    +0.000 OA
ATOM     15  O   UNL     1     111.365 129.862 136.664  0.00  0.00    +0.000 OA
ATOM     16  O   UNL     1     112.928 130.151 136.218  0.00  0.00    +0.000 OA
ATOM     17  C   UNL     1     111.516 128.487 136.306  0.00  0.00    +0.000 C 
ATOM     18  C   UNL     1     111.831 129.247 136.374  0.00  0.00    +0.000 C 
ATOM     19  C   UNL     1     111.982 127.871 136.015  0.00  0.00    +0.000 C 
ATOM     20  C   UNL     1     112.612 129.390 136.151  0.00  0.00    +0.000 C 
ATOM     21  C   UNL     1     113.078 128.775 135.860  0.00  0.00    +0.000 C 
BRANCH  21  23
ATOM     22  O   UNL     1     114.409 128.302 135.642  0.00  0.00    +0.000 OA
ATOM     23  C   UNL     1     113.859 128.919 135.637  0.00  0.00    +0.000 C 
ENDBRANCH  21  23
BRANCH  17  24
ATOM     24  O   UNL     1     110.735 128.343 136.529  0.00  0.00    +0.000 OA
BRANCH  24  29
ATOM     25  O   UNL     1     110.202 129.225 135.537  0.00  0.00    +0.000 OA
ATOM     26  O   UNL     1     109.389 128.573 137.455  0.00  0.00    +0.000 OA
ATOM     27  O   UNL     1     108.184 129.569 136.929  0.00  0.00    +0.000 OA
ATOM     28  O   UNL     1     108.325 130.336 135.474  0.00  0.00    +0.000 OA
ATOM     29  C   UNL     1     110.132 128.842 136.265  0.00  0.00    +0.000 C 
ATOM     30  C   UNL     1     109.459 128.956 136.729  0.00  0.00    +0.000 C 
ATOM     31  C   UNL     1     108.857 129.454 136.465  0.00  0.00    +0.000 C 
ATOM     32  C   UNL     1     108.928 129.838 135.737  0.00  0.00    +0.000 C 
ATOM     33  C   UNL     1     109.600 129.723 135.274  0.00  0.00    +0.000 C 
ENDBRANCH  24  29
ENDBRANCH  17  24
ENDBRANCH   5  19
BRANCH  12  35
ATOM     34  O   UNL     1     113.632 127.240 140.768  0.00  0.00    +0.000 OA
ATOM     35  C   UNL     1     112.529 126.533 138.667  0.00  0.00    +0.000 A 
ATOM     36  C   UNL     1     112.093 126.917 139.253  0.00  0.00    +0.000 A 
ATOM     37  C   UNL     1     113.332 126.385 138.782  0.00  0.00    +0.000 A 
ATOM     38  C   UNL     1     112.461 127.153 139.954  0.00  0.00    +0.000 A 
ATOM     39  C   UNL     1     113.700 126.620 139.482  0.00  0.00    +0.000 A 
ATOM     40  C   UNL     1     113.264 127.004 140.068  0.00  0.00    +0.000 A 
BRANCH  38  41
ATOM     41  O   UNL     1     112.025 127.537 140.540  0.00  0.00    +0.000 OA
ATOM     42  C   UNL     1     111.454 128.095 140.330  0.00  0.00    +0.000 C 
ENDBRANCH  38  41
ENDBRANCH  12  35
TORSDOF 6
ENDMDL
MODEL 10
REMARK VINA RESULT:      -9.9      2.012      3.926
REMARK  Name = 74977686
REMARK  6 active torsions:
REMARK  status: ('A' for Active; 'I' for Inactive)
REMARK    1  A    between atoms: O_2  and  C_16
REMARK    2  A    between atoms: O_2  and  C_21
REMARK    3  A    between atoms: O_14  and  C_39
REMARK    4  A    between atoms: C_18  and  C_22
REMARK    5  A    between atoms: C_20  and  C_25
REMARK    6  A    between atoms: C_34  and  C_36
REMARK                            x       y       z     vdW  Elec       q    Type
REMARK                         _______ _______ _______ _____ _____    ______ ____
ROOT
ATOM      1  O   UNL     1     112.951 128.934 136.563  0.00  0.00    +0.000 OA
ATOM      2  O   UNL     1     113.511 131.743 136.872  0.00  0.00    +0.000 OA
ATOM      3  O   UNL     1     115.257 130.129 135.285  0.00  0.00    +0.000 OA
ATOM      4  O   UNL     1     115.011 128.719 135.106  0.00  0.00    +0.000 OA
ATOM      5  C   UNL     1     113.245 130.349 136.711  0.00  0.00    +0.000 A 
ATOM      6  C   UNL     1     113.447 129.615 136.392  0.00  0.00    +0.000 A 
ATOM      7  C   UNL     1     113.713 131.010 136.553  0.00  0.00    +0.000 A 
ATOM      8  C   UNL     1     114.118 129.542 135.917  0.00  0.00    +0.000 A 
ATOM      9  C   UNL     1     114.384 130.937 136.078  0.00  0.00    +0.000 A 
ATOM     10  C   UNL     1     114.586 130.202 135.761  0.00  0.00    +0.000 A 
ATOM     11  C   UNL     1     114.339 128.782 135.580  0.00  0.00    +0.000 A 
ATOM     12  C   UNL     1     113.157 128.167 136.235  0.00  0.00    +0.000 A 
ATOM     13  C   UNL     1     113.855 128.091 135.740  0.00  0.00    +0.000 A 
ENDROOT
BRANCH   5  19
ATOM     14  O   UNL     1     111.824 130.406 136.845  0.00  0.00    +0.000 OA
ATOM     15  O   UNL     1     112.065 130.673 139.293  0.00  0.00    +0.000 OA
ATOM     16  O   UNL     1     110.562 130.641 138.611  0.00  0.00    +0.000 OA
ATOM     17  C   UNL     1     112.655 130.511 138.002  0.00  0.00    +0.000 C 
ATOM     18  C   UNL     1     111.985 130.584 138.477  0.00  0.00    +0.000 C 
ATOM     19  C   UNL     1     112.575 130.422 137.185  0.00  0.00    +0.000 C 
ATOM     20  C   UNL     1     111.234 130.568 138.135  0.00  0.00    +0.000 C 
ATOM     21  C   UNL     1     111.153 130.479 137.320  0.00  0.00    +0.000 C 
BRANCH  21  23
ATOM     22  O   UNL     1     110.291 130.757 136.214  0.00  0.00    +0.000 OA
ATOM     23  C   UNL     1     110.402 130.463 136.978  0.00  0.00    +0.000 C 
ENDBRANCH  21  23
BRANCH  17  24
ATOM     24  O   UNL     1     113.406 130.527 138.343  0.00  0.00    +0.000 OA
BRANCH  24  29
ATOM     25  O   UNL     1     113.153 129.369 139.142  0.00  0.00    +0.000 OA
ATOM     26  O   UNL     1     114.544 131.025 139.428  0.00  0.00    +0.000 OA
ATOM     27  O   UNL     1     114.860 130.119 140.769  0.00  0.00    +0.000 OA
ATOM     28  O   UNL     1     114.037 128.712 141.026  0.00  0.00    +0.000 OA
ATOM     29  C   UNL     1     113.564 130.072 139.014  0.00  0.00    +0.000 C 
ATOM     30  C   UNL     1     114.133 130.323 139.556  0.00  0.00    +0.000 C 
ATOM     31  C   UNL     1     114.290 129.869 140.226  0.00  0.00    +0.000 C 
ATOM     32  C   UNL     1     113.879 129.165 140.355  0.00  0.00    +0.000 C 
ATOM     33  C   UNL     1     113.310 128.916 139.812  0.00  0.00    +0.000 C 
ENDBRANCH  24  29
ENDBRANCH  17  24
ENDBRANCH   5  19
BRANCH  12  35
ATOM     34  O   UNL     1     111.275 125.531 136.869  0.00  0.00    +0.000 OA
ATOM     35  C   UNL     1     112.686 127.508 136.393  0.00  0.00    +0.000 A 
ATOM     36  C   UNL     1     112.021 127.356 135.931  0.00  0.00    +0.000 A 
ATOM     37  C   UNL     1     112.881 127.001 137.014  0.00  0.00    +0.000 A 
ATOM     38  C   UNL     1     111.550 126.696 136.089  0.00  0.00    +0.000 A 
ATOM     39  C   UNL     1     112.411 126.342 137.173  0.00  0.00    +0.000 A 
ATOM     40  C   UNL     1     111.745 126.190 136.710  0.00  0.00    +0.000 A 
BRANCH  38  41
ATOM     41  O   UNL     1     110.884 126.544 135.626  0.00  0.00    +0.000 OA
ATOM     42  C   UNL     1     110.502 127.163 135.237  0.00  0.00    +0.000 C 
ENDBRANCH  38  41
ENDBRANCH  12  35
TORSDOF 6
ENDMDL
