MODEL 1
REMARK VINA RESULT:      -9.6      0.000      0.000
REMARK  Name = 131704
REMARK  3 active torsions:
REMARK  status: ('A' for Active; 'I' for Inactive)
REMARK    1  A    between atoms: O_5  and  C_17
REMARK    2  A    between atoms: C_9  and  C_14
REMARK    3  A    between atoms: C_22  and  C_24
REMARK                            x       y       z     vdW  Elec       q    Type
REMARK                         _______ _______ _______ _____ _____    ______ ____
ROOT
ATOM      1  O   UNL     1     112.289 126.668 136.163  0.00  0.00    +0.000 OA
ATOM      2  O   UNL     1     109.768 126.053 134.880  0.00  0.00    +0.000 OA
ATOM      3  O   UNL     1     110.543 124.978 135.452  0.00  0.00    +0.000 OA
ATOM      4  C   UNL     1     111.471 127.712 135.572  0.00  0.00    +0.000 A 
ATOM      5  C   UNL     1     111.581 126.912 135.744  0.00  0.00    +0.000 A 
ATOM      6  C   UNL     1     110.795 127.958 135.169  0.00  0.00    +0.000 A 
ATOM      7  C   UNL     1     111.013 126.359 135.513  0.00  0.00    +0.000 A 
ATOM      8  C   UNL     1     110.227 127.405 134.939  0.00  0.00    +0.000 A 
ATOM      9  C   UNL     1     110.337 126.606 135.111  0.00  0.00    +0.000 A 
ATOM     10  C   UNL     1     111.115 125.524 135.686  0.00  0.00    +0.000 A 
ATOM     11  C   UNL     1     112.409 125.836 136.345  0.00  0.00    +0.000 A 
ATOM     12  C   UNL     1     111.818 125.260 136.105  0.00  0.00    +0.000 A 
ENDROOT
BRANCH   4  16
ATOM     13  O   UNL     1     112.683 128.423 135.311  0.00  0.00    +0.000 OA
ATOM     14  O   UNL     1     112.453 129.603 137.475  0.00  0.00    +0.000 OA
ATOM     15  O   UNL     1     113.741 129.923 136.494  0.00  0.00    +0.000 OA
ATOM     16  C   UNL     1     112.038 128.264 135.802  0.00  0.00    +0.000 C 
ATOM     17  C   UNL     1     112.530 129.210 136.753  0.00  0.00    +0.000 C 
ATOM     18  C   UNL     1     111.962 128.658 136.523  0.00  0.00    +0.000 C 
ATOM     19  C   UNL     1     113.173 129.369 136.263  0.00  0.00    +0.000 C 
ATOM     20  C   UNL     1     113.250 128.976 135.542  0.00  0.00    +0.000 C 
ATOM     21  C   UNL     1     113.893 129.135 135.051  0.00  0.00    +0.000 C 
ENDBRANCH   4  16
BRANCH  11  23
ATOM     22  O   UNL     1     115.119 124.859 137.954  0.00  0.00    +0.000 OA
ATOM     23  C   UNL     1     113.086 125.592 136.748  0.00  0.00    +0.000 A 
ATOM     24  C   UNL     1     113.113 125.627 137.571  0.00  0.00    +0.000 A 
ATOM     25  C   UNL     1     113.738 125.312 136.327  0.00  0.00    +0.000 A 
ATOM     26  C   UNL     1     113.790 125.383 137.974  0.00  0.00    +0.000 A 
ATOM     27  C   UNL     1     114.416 125.068 136.728  0.00  0.00    +0.000 A 
ATOM     28  C   UNL     1     114.442 125.103 137.553  0.00  0.00    +0.000 A 
ENDBRANCH  11  23
BRANCH   6  29
ATOM     29  O   UNL     1     110.686 128.758 134.997  0.00  0.00    +0.000 OA
ATOM     30  C   UNL     1     109.998 129.007 134.616  0.00  0.00    +0.000 C 
ENDBRANCH   6  29
TORSDOF 3
ENDMDL
MODEL 2
REMARK VINA RESULT:      -9.6      1.336      4.114
REMARK  Name = 131704
REMARK  3 active torsions:
REMARK  status: ('A' for Active; 'I' for Inactive)
REMARK    1  A    between atoms: O_5  and  C_17
REMARK    2  A    between atoms: C_9  and  C_14
REMARK    3  A    between atoms: C_22  and  C_24
REMARK                            x       y       z     vdW  Elec       q    Type
REMARK                         _______ _______ _______ _____ _____    ______ ____
ROOT
ATOM      1  O   UNL     1     112.762 126.497 136.504  0.00  0.00    +0.000 OA
ATOM      2  O   UNL     1     114.433 124.217 137.126  0.00  0.00    +0.000 OA
ATOM      3  O   UNL     1     115.031 125.529 137.076  0.00  0.00    +0.000 OA
ATOM      4  C   UNL     1     112.211 125.155 136.568  0.00  0.00    +0.000 A 
ATOM      5  C   UNL     1     112.865 125.654 136.633  0.00  0.00    +0.000 A 
ATOM      6  C   UNL     1     112.298 124.344 136.689  0.00  0.00    +0.000 A 
ATOM      7  C   UNL     1     113.606 125.341 136.819  0.00  0.00    +0.000 A 
ATOM      8  C   UNL     1     113.038 124.031 136.875  0.00  0.00    +0.000 A 
ATOM      9  C   UNL     1     113.692 124.530 136.940  0.00  0.00    +0.000 A 
ATOM     10  C   UNL     1     114.294 125.850 136.889  0.00  0.00    +0.000 A 
ATOM     11  C   UNL     1     113.440 127.022 136.570  0.00  0.00    +0.000 A 
ATOM     12  C   UNL     1     114.211 126.697 136.764  0.00  0.00    +0.000 A 
ENDROOT
BRANCH   4  16
ATOM     13  O   UNL     1     111.246 125.553 135.592  0.00  0.00    +0.000 OA
ATOM     14  O   UNL     1     109.700 126.235 137.401  0.00  0.00    +0.000 OA
ATOM     15  O   UNL     1     109.249 126.406 135.823  0.00  0.00    +0.000 OA
ATOM     16  C   UNL     1     111.471 125.467 136.382  0.00  0.00    +0.000 C 
ATOM     17  C   UNL     1     110.215 126.008 136.798  0.00  0.00    +0.000 C 
ATOM     18  C   UNL     1     110.956 125.695 136.984  0.00  0.00    +0.000 C 
ATOM     19  C   UNL     1     109.991 126.093 136.009  0.00  0.00    +0.000 C 
ATOM     20  C   UNL     1     110.505 125.866 135.406  0.00  0.00    +0.000 C 
ATOM     21  C   UNL     1     110.281 125.951 134.617  0.00  0.00    +0.000 C 
ENDBRANCH   4  16
BRANCH  11  23
ATOM     22  O   UNL     1     113.083 130.266 136.084  0.00  0.00    +0.000 OA
ATOM     23  C   UNL     1     113.351 127.833 136.448  0.00  0.00    +0.000 A 
ATOM     24  C   UNL     1     113.487 128.156 135.702  0.00  0.00    +0.000 A 
ATOM     25  C   UNL     1     113.125 128.322 137.073  0.00  0.00    +0.000 A 
ATOM     26  C   UNL     1     113.398 128.967 135.580  0.00  0.00    +0.000 A 
ATOM     27  C   UNL     1     113.035 129.133 136.953  0.00  0.00    +0.000 A 
ATOM     28  C   UNL     1     113.172 129.456 136.205  0.00  0.00    +0.000 A 
ENDBRANCH  11  23
BRANCH   6  29
ATOM     29  O   UNL     1     111.643 123.845 136.624  0.00  0.00    +0.000 OA
ATOM     30  C   UNL     1     111.718 123.043 136.800  0.00  0.00    +0.000 C 
ENDBRANCH   6  29
TORSDOF 3
ENDMDL
MODEL 3
REMARK VINA RESULT:      -9.5      0.905      3.705
REMARK  Name = 131704
REMARK  3 active torsions:
REMARK  status: ('A' for Active; 'I' for Inactive)
REMARK    1  A    between atoms: O_5  and  C_17
REMARK    2  A    between atoms: C_9  and  C_14
REMARK    3  A    between atoms: C_22  and  C_24
REMARK                            x       y       z     vdW  Elec       q    Type
REMARK                         _______ _______ _______ _____ _____    ______ ____
ROOT
ATOM      1  O   UNL     1     112.420 126.964 136.253  0.00  0.00    +0.000 OA
ATOM      2  O   UNL     1     110.218 125.457 135.131  0.00  0.00    +0.000 OA
ATOM      3  O   UNL     1     110.348 126.857 134.802  0.00  0.00    +0.000 OA
ATOM      4  C   UNL     1     112.244 125.553 136.551  0.00  0.00    +0.000 A 
ATOM      5  C   UNL     1     111.982 126.231 136.159  0.00  0.00    +0.000 A 
ATOM      6  C   UNL     1     111.831 124.844 136.468  0.00  0.00    +0.000 A 
ATOM      7  C   UNL     1     111.307 126.199 135.686  0.00  0.00    +0.000 A 
ATOM      8  C   UNL     1     111.156 124.812 135.995  0.00  0.00    +0.000 A 
ATOM      9  C   UNL     1     110.894 125.489 135.604  0.00  0.00    +0.000 A 
ATOM     10  C   UNL     1     111.024 126.897 135.274  0.00  0.00    +0.000 A 
ATOM     11  C   UNL     1     112.152 127.673 135.848  0.00  0.00    +0.000 A 
ATOM     12  C   UNL     1     111.449 127.640 135.355  0.00  0.00    +0.000 A 
ENDROOT
BRANCH   4  16
ATOM     13  O   UNL     1     112.867 125.867 137.798  0.00  0.00    +0.000 OA
ATOM     14  O   UNL     1     115.047 125.119 136.895  0.00  0.00    +0.000 OA
ATOM     15  O   UNL     1     114.944 125.681 138.444  0.00  0.00    +0.000 OA
ATOM     16  C   UNL     1     112.918 125.585 137.023  0.00  0.00    +0.000 C 
ATOM     17  C   UNL     1     114.320 125.368 137.197  0.00  0.00    +0.000 C 
ATOM     18  C   UNL     1     113.645 125.336 136.723  0.00  0.00    +0.000 C 
ATOM     19  C   UNL     1     114.268 125.649 137.970  0.00  0.00    +0.000 C 
ATOM     20  C   UNL     1     113.542 125.899 138.271  0.00  0.00    +0.000 C 
ATOM     21  C   UNL     1     113.490 126.180 139.044  0.00  0.00    +0.000 C 
ENDBRANCH   4  16
BRANCH  11  23
ATOM     22  O   UNL     1     113.812 130.505 136.182  0.00  0.00    +0.000 OA
ATOM     23  C   UNL     1     112.567 128.381 135.932  0.00  0.00    +0.000 A 
ATOM     24  C   UNL     1     112.340 128.927 136.506  0.00  0.00    +0.000 A 
ATOM     25  C   UNL     1     113.210 128.544 135.441  0.00  0.00    +0.000 A 
ATOM     26  C   UNL     1     112.755 129.636 136.590  0.00  0.00    +0.000 A 
ATOM     27  C   UNL     1     113.625 129.251 135.523  0.00  0.00    +0.000 A 
ATOM     28  C   UNL     1     113.398 129.798 136.099  0.00  0.00    +0.000 A 
ENDBRANCH  11  23
BRANCH   6  29
ATOM     29  O   UNL     1     112.093 124.166 136.860  0.00  0.00    +0.000 OA
ATOM     30  C   UNL     1     111.704 123.448 136.746  0.00  0.00    +0.000 C 
ENDBRANCH   6  29
TORSDOF 3
ENDMDL
MODEL 4
REMARK VINA RESULT:      -9.3      1.751      2.586
REMARK  Name = 131704
REMARK  3 active torsions:
REMARK  status: ('A' for Active; 'I' for Inactive)
REMARK    1  A    between atoms: O_5  and  C_17
REMARK    2  A    between atoms: C_9  and  C_14
REMARK    3  A    between atoms: C_22  and  C_24
REMARK                            x       y       z     vdW  Elec       q    Type
REMARK                         _______ _______ _______ _____ _____    ______ ____
ROOT
ATOM      1  O   UNL     1     110.504 127.543 136.012  0.00  0.00    +0.000 OA
ATOM      2  O   UNL     1     107.971 128.929 135.806  0.00  0.00    +0.000 OA
ATOM      3  O   UNL     1     107.975 127.488 135.892  0.00  0.00    +0.000 OA
ATOM      4  C   UNL     1     110.443 128.991 135.923  0.00  0.00    +0.000 A 
ATOM      5  C   UNL     1     110.047 128.267 135.946  0.00  0.00    +0.000 A 
ATOM      6  C   UNL     1     110.015 129.693 135.860  0.00  0.00    +0.000 A 
ATOM      7  C   UNL     1     109.223 128.246 135.907  0.00  0.00    +0.000 A 
ATOM      8  C   UNL     1     109.191 129.672 135.821  0.00  0.00    +0.000 A 
ATOM      9  C   UNL     1     108.796 128.949 135.845  0.00  0.00    +0.000 A 
ATOM     10  C   UNL     1     108.799 127.500 135.931  0.00  0.00    +0.000 A 
ATOM     11  C   UNL     1     110.097 126.786 136.037  0.00  0.00    +0.000 A 
ATOM     12  C   UNL     1     109.239 126.764 135.996  0.00  0.00    +0.000 A 
ENDROOT
BRANCH   4  16
ATOM     13  O   UNL     1     111.645 129.017 136.695  0.00  0.00    +0.000 OA
ATOM     14  O   UNL     1     112.981 129.063 134.612  0.00  0.00    +0.000 OA
ATOM     15  O   UNL     1     113.739 129.074 136.078  0.00  0.00    +0.000 OA
ATOM     16  C   UNL     1     111.266 129.012 135.961  0.00  0.00    +0.000 C 
ATOM     17  C   UNL     1     112.536 129.048 135.307  0.00  0.00    +0.000 C 
ATOM     18  C   UNL     1     111.712 129.027 135.268  0.00  0.00    +0.000 C 
ATOM     19  C   UNL     1     112.914 129.053 136.039  0.00  0.00    +0.000 C 
ATOM     20  C   UNL     1     112.469 129.038 136.734  0.00  0.00    +0.000 C 
ATOM     21  C   UNL     1     112.846 129.043 137.467  0.00  0.00    +0.000 C 
ENDBRANCH   4  16
BRANCH  11  23
ATOM     22  O   UNL     1     111.818 123.982 136.289  0.00  0.00    +0.000 OA
ATOM     23  C   UNL     1     110.527 126.085 136.100  0.00  0.00    +0.000 A 
ATOM     24  C   UNL     1     110.740 125.668 135.420  0.00  0.00    +0.000 A 
ATOM     25  C   UNL     1     110.745 125.799 136.843  0.00  0.00    +0.000 A 
ATOM     26  C   UNL     1     111.171 124.967 135.483  0.00  0.00    +0.000 A 
ATOM     27  C   UNL     1     111.175 125.099 136.907  0.00  0.00    +0.000 A 
ATOM     28  C   UNL     1     111.388 124.682 136.226  0.00  0.00    +0.000 A 
ENDBRANCH  11  23
BRANCH   6  29
ATOM     29  O   UNL     1     110.411 130.417 135.836  0.00  0.00    +0.000 OA
ATOM     30  C   UNL     1     109.982 131.121 135.823  0.00  0.00    +0.000 C 
ENDBRANCH   6  29
TORSDOF 3
ENDMDL
MODEL 5
REMARK VINA RESULT:      -9.1      1.048      3.587
REMARK  Name = 131704
REMARK  3 active torsions:
REMARK  status: ('A' for Active; 'I' for Inactive)
REMARK    1  A    between atoms: O_5  and  C_17
REMARK    2  A    between atoms: C_9  and  C_14
REMARK    3  A    between atoms: C_22  and  C_24
REMARK                            x       y       z     vdW  Elec       q    Type
REMARK                         _______ _______ _______ _____ _____    ______ ____
ROOT
ATOM      1  O   UNL     1     111.389 127.277 135.994  0.00  0.00    +0.000 OA
ATOM      2  O   UNL     1     111.693 124.399 135.969  0.00  0.00    +0.000 OA
ATOM      3  O   UNL     1     110.474 124.978 135.457  0.00  0.00    +0.000 OA
ATOM      4  C   UNL     1     112.595 126.643 136.496  0.00  0.00    +0.000 A 
ATOM      5  C   UNL     1     111.846 126.568 136.158  0.00  0.00    +0.000 A 
ATOM      6  C   UNL     1     113.043 125.970 136.658  0.00  0.00    +0.000 A 
ATOM      7  C   UNL     1     111.545 125.820 135.982  0.00  0.00    +0.000 A 
ATOM      8  C   UNL     1     112.742 125.222 136.483  0.00  0.00    +0.000 A 
ATOM      9  C   UNL     1     111.994 125.147 136.145  0.00  0.00    +0.000 A 
ATOM     10  C   UNL     1     110.767 125.729 135.630  0.00  0.00    +0.000 A 
ATOM     11  C   UNL     1     110.608 127.206 135.641  0.00  0.00    +0.000 A 
ATOM     12  C   UNL     1     110.295 126.427 135.458  0.00  0.00    +0.000 A 
ENDROOT
BRANCH   4  16
ATOM     13  O   UNL     1     113.306 127.816 136.096  0.00  0.00    +0.000 OA
ATOM     14  O   UNL     1     112.976 128.784 138.350  0.00  0.00    +0.000 OA
ATOM     15  O   UNL     1     113.797 129.635 137.199  0.00  0.00    +0.000 OA
ATOM     16  C   UNL     1     112.895 127.390 136.672  0.00  0.00    +0.000 C 
ATOM     17  C   UNL     1     113.086 128.461 137.598  0.00  0.00    +0.000 C 
ATOM     18  C   UNL     1     112.786 127.713 137.423  0.00  0.00    +0.000 C 
ATOM     19  C   UNL     1     113.497 128.886 137.023  0.00  0.00    +0.000 C 
ATOM     20  C   UNL     1     113.607 128.564 136.271  0.00  0.00    +0.000 C 
ATOM     21  C   UNL     1     114.017 128.989 135.696  0.00  0.00    +0.000 C 
ENDBRANCH   4  16
BRANCH  11  23
ATOM     22  O   UNL     1     108.824 129.906 134.995  0.00  0.00    +0.000 OA
ATOM     23  C   UNL     1     110.162 127.881 135.480  0.00  0.00    +0.000 A 
ATOM     24  C   UNL     1     109.600 128.144 136.023  0.00  0.00    +0.000 A 
ATOM     25  C   UNL     1     110.277 128.293 134.775  0.00  0.00    +0.000 A 
ATOM     26  C   UNL     1     109.154 128.819 135.862  0.00  0.00    +0.000 A 
ATOM     27  C   UNL     1     109.832 128.968 134.612  0.00  0.00    +0.000 A 
ATOM     28  C   UNL     1     109.270 129.231 135.156  0.00  0.00    +0.000 A 
ENDBRANCH  11  23
BRANCH   6  29
ATOM     29  O   UNL     1     113.792 126.044 136.997  0.00  0.00    +0.000 OA
ATOM     30  C   UNL     1     114.250 125.373 137.136  0.00  0.00    +0.000 C 
ENDBRANCH   6  29
TORSDOF 3
ENDMDL
MODEL 6
REMARK VINA RESULT:      -9.0     12.947     13.792
REMARK  Name = 131704
REMARK  3 active torsions:
REMARK  status: ('A' for Active; 'I' for Inactive)
REMARK    1  A    between atoms: O_5  and  C_17
REMARK    2  A    between atoms: C_9  and  C_14
REMARK    3  A    between atoms: C_22  and  C_24
REMARK                            x       y       z     vdW  Elec       q    Type
REMARK                         _______ _______ _______ _____ _____    ______ ____
ROOT
ATOM      1  O   UNL     1     104.216 125.667 147.259  0.00  0.00    +0.000 OA
ATOM      2  O   UNL     1     102.316 123.484 147.176  0.00  0.00    +0.000 OA
ATOM      3  O   UNL     1     102.183 124.489 148.203  0.00  0.00    +0.000 OA
ATOM      4  C   UNL     1     104.305 124.630 146.246  0.00  0.00    +0.000 A 
ATOM      5  C   UNL     1     103.918 124.943 146.905  0.00  0.00    +0.000 A 
ATOM      6  C   UNL     1     104.028 123.935 145.898  0.00  0.00    +0.000 A 
ATOM      7  C   UNL     1     103.256 124.561 147.215  0.00  0.00    +0.000 A 
ATOM      8  C   UNL     1     103.366 123.553 146.208  0.00  0.00    +0.000 A 
ATOM      9  C   UNL     1     102.980 123.866 146.866  0.00  0.00    +0.000 A 
ATOM     10  C   UNL     1     102.845 124.877 147.900  0.00  0.00    +0.000 A 
ATOM     11  C   UNL     1     103.818 125.999 147.945  0.00  0.00    +0.000 A 
ATOM     12  C   UNL     1     103.128 125.601 148.268  0.00  0.00    +0.000 A 
ENDROOT
BRANCH   4  16
ATOM     13  O   UNL     1     104.874 125.614 145.381  0.00  0.00    +0.000 OA
ATOM     14  O   UNL     1     107.141 124.950 146.119  0.00  0.00    +0.000 OA
ATOM     15  O   UNL     1     106.956 126.156 145.008  0.00  0.00    +0.000 OA
ATOM     16  C   UNL     1     104.967 125.011 145.937  0.00  0.00    +0.000 C 
ATOM     17  C   UNL     1     106.386 125.172 145.873  0.00  0.00    +0.000 C 
ATOM     18  C   UNL     1     105.723 124.790 146.183  0.00  0.00    +0.000 C 
ATOM     19  C   UNL     1     106.292 125.774 145.318  0.00  0.00    +0.000 C 
ATOM     20  C   UNL     1     105.536 125.996 145.071  0.00  0.00    +0.000 C 
ATOM     21  C   UNL     1     105.443 126.598 144.516  0.00  0.00    +0.000 C 
ENDBRANCH   4  16
BRANCH  11  23
ATOM     22  O   UNL     1     104.932 128.777 149.332  0.00  0.00    +0.000 OA
ATOM     23  C   UNL     1     104.096 126.694 148.292  0.00  0.00    +0.000 A 
ATOM     24  C   UNL     1     103.771 127.421 148.079  0.00  0.00    +0.000 A 
ATOM     25  C   UNL     1     104.701 126.661 148.852  0.00  0.00    +0.000 A 
ATOM     26  C   UNL     1     104.049 128.116 148.425  0.00  0.00    +0.000 A 
ATOM     27  C   UNL     1     104.980 127.355 149.199  0.00  0.00    +0.000 A 
ATOM     28  C   UNL     1     104.654 128.083 148.986  0.00  0.00    +0.000 A 
ENDBRANCH  11  23
BRANCH   6  29
ATOM     29  O   UNL     1     104.415 123.622 145.240  0.00  0.00    +0.000 OA
ATOM     30  C   UNL     1     104.108 122.957 144.859  0.00  0.00    +0.000 C 
ENDBRANCH   6  29
TORSDOF 3
ENDMDL
MODEL 7
REMARK VINA RESULT:      -8.7      2.245      3.918
REMARK  Name = 131704
REMARK  3 active torsions:
REMARK  status: ('A' for Active; 'I' for Inactive)
REMARK    1  A    between atoms: O_5  and  C_17
REMARK    2  A    between atoms: C_9  and  C_14
REMARK    3  A    between atoms: C_22  and  C_24
REMARK                            x       y       z     vdW  Elec       q    Type
REMARK                         _______ _______ _______ _____ _____    ______ ____
ROOT
ATOM      1  O   UNL     1     113.062 127.124 137.746  0.00  0.00    +0.000 OA
ATOM      2  O   UNL     1     113.504 129.795 136.723  0.00  0.00    +0.000 OA
ATOM      3  O   UNL     1     113.676 128.670 135.837  0.00  0.00    +0.000 OA
ATOM      4  C   UNL     1     112.902 128.290 138.595  0.00  0.00    +0.000 A 
ATOM      5  C   UNL     1     113.085 127.975 137.854  0.00  0.00    +0.000 A 
ATOM      6  C   UNL     1     112.921 129.107 138.711  0.00  0.00    +0.000 A 
ATOM      7  C   UNL     1     113.285 128.477 137.231  0.00  0.00    +0.000 A 
ATOM      8  C   UNL     1     113.121 129.608 138.088  0.00  0.00    +0.000 A 
ATOM      9  C   UNL     1     113.303 129.293 137.348  0.00  0.00    +0.000 A 
ATOM     10  C   UNL     1     113.477 128.161 136.455  0.00  0.00    +0.000 A 
ATOM     11  C   UNL     1     113.251 126.789 136.977  0.00  0.00    +0.000 A 
ATOM     12  C   UNL     1     113.460 127.311 136.327  0.00  0.00    +0.000 A 
ENDROOT
BRANCH   4  16
ATOM     13  O   UNL     1     111.921 127.541 139.314  0.00  0.00    +0.000 OA
ATOM     14  O   UNL     1     113.664 126.782 140.899  0.00  0.00    +0.000 OA
ATOM     15  O   UNL     1     112.101 126.285 141.091  0.00  0.00    +0.000 OA
ATOM     16  C   UNL     1     112.702 127.790 139.218  0.00  0.00    +0.000 C 
ATOM     17  C   UNL     1     113.082 127.035 140.371  0.00  0.00    +0.000 C 
ATOM     18  C   UNL     1     113.283 127.536 139.747  0.00  0.00    +0.000 C 
ATOM     19  C   UNL     1     112.302 126.787 140.466  0.00  0.00    +0.000 C 
ATOM     20  C   UNL     1     111.721 127.040 139.938  0.00  0.00    +0.000 C 
ATOM     21  C   UNL     1     110.940 126.792 140.033  0.00  0.00    +0.000 C 
ENDBRANCH   4  16
BRANCH  11  23
ATOM     22  O   UNL     1     113.174 123.522 136.521  0.00  0.00    +0.000 OA
ATOM     23  C   UNL     1     113.232 125.972 136.863  0.00  0.00    +0.000 A 
ATOM     24  C   UNL     1     113.908 125.520 137.000  0.00  0.00    +0.000 A 
ATOM     25  C   UNL     1     112.537 125.607 136.611  0.00  0.00    +0.000 A 
ATOM     26  C   UNL     1     113.889 124.703 136.886  0.00  0.00    +0.000 A 
ATOM     27  C   UNL     1     112.517 124.790 136.497  0.00  0.00    +0.000 A 
ATOM     28  C   UNL     1     113.194 124.338 136.635  0.00  0.00    +0.000 A 
ENDBRANCH  11  23
BRANCH   6  29
ATOM     29  O   UNL     1     112.738 129.422 139.452  0.00  0.00    +0.000 OA
ATOM     30  C   UNL     1     112.736 130.240 139.563  0.00  0.00    +0.000 C 
ENDBRANCH   6  29
TORSDOF 3
ENDMDL
