MODEL 1
REMARK VINA RESULT:      -9.8      0.000      0.000
REMARK  Name = 44258691
REMARK  5 active torsions:
REMARK  status: ('A' for Active; 'I' for Inactive)
REMARK    1  A    between atoms: O_2  and  C_15
REMARK    2  A    between atoms: O_2  and  C_17
REMARK    3  A    between atoms: O_9  and  C_26
REMARK    4  A    between atoms: C_14  and  C_16
REMARK    5  A    between atoms: C_25  and  C_28
REMARK                            x       y       z     vdW  Elec       q    Type
REMARK                         _______ _______ _______ _____ _____    ______ ____
ROOT
ATOM      1  O   UNL     1     112.932 129.891 135.664  0.00  0.00    +0.000 OA
ATOM      2  O   UNL     1     113.492 127.266 136.374  0.00  0.00    +0.000 OA
ATOM      3  O   UNL     1     111.093 126.553 135.984  0.00  0.00    +0.000 OA
ATOM      4  C   UNL     1     111.776 128.931 135.612  0.00  0.00    +0.000 A 
ATOM      5  C   UNL     1     112.557 129.165 135.739  0.00  0.00    +0.000 A 
ATOM      6  C   UNL     1     111.557 128.145 135.737  0.00  0.00    +0.000 A 
ATOM      7  C   UNL     1     113.118 128.615 135.989  0.00  0.00    +0.000 A 
ATOM      8  C   UNL     1     112.118 127.594 135.987  0.00  0.00    +0.000 A 
ATOM      9  C   UNL     1     112.898 127.829 136.113  0.00  0.00    +0.000 A 
ATOM     10  C   UNL     1     113.835 129.004 136.067  0.00  0.00    +0.000 A 
ATOM     11  C   UNL     1     111.876 126.779 136.113  0.00  0.00    +0.000 A 
ATOM     12  C   UNL     1     113.270 126.446 136.505  0.00  0.00    +0.000 A 
ATOM     13  C   UNL     1     112.456 126.202 136.373  0.00  0.00    +0.000 A 
ATOM     14  C   UNL     1     113.721 129.792 135.866  0.00  0.00    +0.000 A 
ENDROOT
BRANCH  12  15
ATOM     15  C   UNL     1     113.833 125.897 136.755  0.00  0.00    +0.000 A 
ATOM     16  C   UNL     1     113.929 125.743 137.560  0.00  0.00    +0.000 A 
ATOM     17  C   UNL     1     114.300 125.504 136.201  0.00  0.00    +0.000 A 
ATOM     18  C   UNL     1     114.492 125.194 137.810  0.00  0.00    +0.000 A 
ATOM     19  C   UNL     1     114.863 124.956 136.451  0.00  0.00    +0.000 A 
ATOM     20  C   UNL     1     114.959 124.801 137.256  0.00  0.00    +0.000 A 
ENDBRANCH  12  15
BRANCH  13  21
ATOM     21  O   UNL     1     112.234 125.417 136.497  0.00  0.00    +0.000 OA
ATOM     22  C   UNL     1     111.480 125.163 136.280  0.00  0.00    +0.000 C 
ENDBRANCH  13  21
BRANCH   4  23
ATOM     23  O   UNL     1     111.215 129.481 135.362  0.00  0.00    +0.000 OA
BRANCH  23  32
ATOM     24  O   UNL     1     110.575 129.715 136.618  0.00  0.00    +0.000 OA
ATOM     25  O   UNL     1     108.370 129.720 135.493  0.00  0.00    +0.000 OA
ATOM     26  O   UNL     1     108.465 129.952 137.123  0.00  0.00    +0.000 OA
ATOM     27  O   UNL     1     109.745 129.484 134.612  0.00  0.00    +0.000 OA
ATOM     28  C   UNL     1     109.105 129.718 135.868  0.00  0.00    +0.000 C 
ATOM     29  C   UNL     1     109.153 129.834 136.683  0.00  0.00    +0.000 C 
ATOM     30  C   UNL     1     109.793 129.600 135.428  0.00  0.00    +0.000 C 
ATOM     31  C   UNL     1     109.888 129.833 137.058  0.00  0.00    +0.000 C 
ATOM     32  C   UNL     1     110.528 129.599 135.802  0.00  0.00    +0.000 C 
BRANCH  31  34
ATOM     33  O   UNL     1     110.522 130.436 138.188  0.00  0.00    +0.000 OA
ATOM     34  C   UNL     1     109.935 129.949 137.873  0.00  0.00    +0.000 C 
ENDBRANCH  31  34
ENDBRANCH  23  32
ENDBRANCH   4  23
TORSDOF 5
ENDMDL
MODEL 2
REMARK VINA RESULT:      -9.4      1.418      2.149
REMARK  Name = 44258691
REMARK  5 active torsions:
REMARK  status: ('A' for Active; 'I' for Inactive)
REMARK    1  A    between atoms: O_2  and  C_15
REMARK    2  A    between atoms: O_2  and  C_17
REMARK    3  A    between atoms: O_9  and  C_26
REMARK    4  A    between atoms: C_14  and  C_16
REMARK    5  A    between atoms: C_25  and  C_28
REMARK                            x       y       z     vdW  Elec       q    Type
REMARK                         _______ _______ _______ _____ _____    ______ ____
ROOT
ATOM      1  O   UNL     1     113.948 129.756 135.491  0.00  0.00    +0.000 OA
ATOM      2  O   UNL     1     113.729 127.200 136.552  0.00  0.00    +0.000 OA
ATOM      3  O   UNL     1     112.324 128.028 138.490  0.00  0.00    +0.000 OA
ATOM      4  C   UNL     1     113.150 129.633 136.759  0.00  0.00    +0.000 A 
ATOM      5  C   UNL     1     113.608 129.366 136.126  0.00  0.00    +0.000 A 
ATOM      6  C   UNL     1     112.880 129.099 137.327  0.00  0.00    +0.000 A 
ATOM      7  C   UNL     1     113.796 128.565 136.062  0.00  0.00    +0.000 A 
ATOM      8  C   UNL     1     113.068 128.298 137.262  0.00  0.00    +0.000 A 
ATOM      9  C   UNL     1     113.526 128.032 136.631  0.00  0.00    +0.000 A 
ATOM     10  C   UNL     1     114.250 128.467 135.387  0.00  0.00    +0.000 A 
ATOM     11  C   UNL     1     112.781 127.752 137.861  0.00  0.00    +0.000 A 
ATOM     12  C   UNL     1     113.451 126.639 137.140  0.00  0.00    +0.000 A 
ATOM     13  C   UNL     1     112.974 126.917 137.799  0.00  0.00    +0.000 A 
ATOM     14  C   UNL     1     114.344 129.202 135.034  0.00  0.00    +0.000 A 
ENDROOT
BRANCH  12  15
ATOM     15  C   UNL     1     113.641 125.839 137.074  0.00  0.00    +0.000 A 
ATOM     16  C   UNL     1     114.333 125.549 137.415  0.00  0.00    +0.000 A 
ATOM     17  C   UNL     1     113.137 125.329 136.665  0.00  0.00    +0.000 A 
ATOM     18  C   UNL     1     114.523 124.749 137.349  0.00  0.00    +0.000 A 
ATOM     19  C   UNL     1     113.327 124.529 136.598  0.00  0.00    +0.000 A 
ATOM     20  C   UNL     1     114.020 124.238 136.940  0.00  0.00    +0.000 A 
ENDBRANCH  12  15
BRANCH  13  21
ATOM     21  O   UNL     1     112.703 126.385 138.369  0.00  0.00    +0.000 OA
ATOM     22  C   UNL     1     112.331 126.664 139.050  0.00  0.00    +0.000 C 
ENDBRANCH  13  21
BRANCH   4  23
ATOM     23  O   UNL     1     112.962 130.434 136.823  0.00  0.00    +0.000 OA
BRANCH  23  32
ATOM     24  O   UNL     1     111.606 130.383 136.374  0.00  0.00    +0.000 OA
ATOM     25  O   UNL     1     110.948 131.937 138.184  0.00  0.00    +0.000 OA
ATOM     26  O   UNL     1     109.813 131.369 137.131  0.00  0.00    +0.000 OA
ATOM     27  O   UNL     1     112.523 131.470 138.030  0.00  0.00    +0.000 OA
ATOM     28  C   UNL     1     111.167 131.419 137.581  0.00  0.00    +0.000 C 
ATOM     29  C   UNL     1     110.600 131.135 137.054  0.00  0.00    +0.000 C 
ATOM     30  C   UNL     1     111.955 131.185 137.503  0.00  0.00    +0.000 C 
ATOM     31  C   UNL     1     110.819 130.617 136.450  0.00  0.00    +0.000 C 
ATOM     32  C   UNL     1     112.175 130.667 136.900  0.00  0.00    +0.000 C 
BRANCH  31  34
ATOM     33  O   UNL     1     110.442 130.226 135.129  0.00  0.00    +0.000 OA
ATOM     34  C   UNL     1     110.252 130.333 135.924  0.00  0.00    +0.000 C 
ENDBRANCH  31  34
ENDBRANCH  23  32
ENDBRANCH   4  23
TORSDOF 5
ENDMDL
MODEL 3
REMARK VINA RESULT:      -9.2      3.097      4.181
REMARK  Name = 44258691
REMARK  5 active torsions:
REMARK  status: ('A' for Active; 'I' for Inactive)
REMARK    1  A    between atoms: O_2  and  C_15
REMARK    2  A    between atoms: O_2  and  C_17
REMARK    3  A    between atoms: O_9  and  C_26
REMARK    4  A    between atoms: C_14  and  C_16
REMARK    5  A    between atoms: C_25  and  C_28
REMARK                            x       y       z     vdW  Elec       q    Type
REMARK                         _______ _______ _______ _____ _____    ______ ____
ROOT
ATOM      1  O   UNL     1     113.214 127.500 141.295  0.00  0.00    +0.000 OA
ATOM      2  O   UNL     1     113.605 126.300 138.822  0.00  0.00    +0.000 OA
ATOM      3  O   UNL     1     111.189 125.550 138.702  0.00  0.00    +0.000 OA
ATOM      4  C   UNL     1     112.012 126.835 140.685  0.00  0.00    +0.000 A 
ATOM      5  C   UNL     1     112.799 127.080 140.726  0.00  0.00    +0.000 A 
ATOM      6  C   UNL     1     111.746 126.411 140.028  0.00  0.00    +0.000 A 
ATOM      7  C   UNL     1     113.320 126.902 140.111  0.00  0.00    +0.000 A 
ATOM      8  C   UNL     1     112.267 126.233 139.414  0.00  0.00    +0.000 A 
ATOM      9  C   UNL     1     113.053 126.479 139.455  0.00  0.00    +0.000 A 
ATOM     10  C   UNL     1     114.052 127.213 140.305  0.00  0.00    +0.000 A 
ATOM     11  C   UNL     1     111.978 125.791 138.735  0.00  0.00    +0.000 A 
ATOM     12  C   UNL     1     113.335 125.859 138.135  0.00  0.00    +0.000 A 
ATOM     13  C   UNL     1     112.516 125.603 138.093  0.00  0.00    +0.000 A 
ATOM     14  C   UNL     1     113.988 127.582 141.035  0.00  0.00    +0.000 A 
ENDROOT
BRANCH  12  15
ATOM     15  C   UNL     1     113.858 125.682 137.522  0.00  0.00    +0.000 A 
ATOM     16  C   UNL     1     113.923 126.191 136.876  0.00  0.00    +0.000 A 
ATOM     17  C   UNL     1     114.315 124.997 137.556  0.00  0.00    +0.000 A 
ATOM     18  C   UNL     1     114.445 126.014 136.263  0.00  0.00    +0.000 A 
ATOM     19  C   UNL     1     114.838 124.820 136.943  0.00  0.00    +0.000 A 
ATOM     20  C   UNL     1     114.904 125.329 136.296  0.00  0.00    +0.000 A 
ENDBRANCH  12  15
BRANCH  13  21
ATOM     21  O   UNL     1     112.247 125.180 137.437  0.00  0.00    +0.000 OA
ATOM     22  C   UNL     1     111.502 124.825 137.453  0.00  0.00    +0.000 C 
ENDBRANCH  13  21
BRANCH   4  23
ATOM     23  O   UNL     1     111.491 127.013 141.299  0.00  0.00    +0.000 OA
BRANCH  23  32
ATOM     24  O   UNL     1     110.741 128.061 140.681  0.00  0.00    +0.000 OA
ATOM     25  O   UNL     1     108.645 127.074 141.551  0.00  0.00    +0.000 OA
ATOM     26  O   UNL     1     108.595 128.450 140.643  0.00  0.00    +0.000 OA
ATOM     27  O   UNL     1     110.093 126.355 141.879  0.00  0.00    +0.000 OA
ATOM     28  C   UNL     1     109.344 127.403 141.261  0.00  0.00    +0.000 C 
ATOM     29  C   UNL     1     109.319 128.091 140.807  0.00  0.00    +0.000 C 
ATOM     30  C   UNL     1     110.068 127.043 141.425  0.00  0.00    +0.000 C 
ATOM     31  C   UNL     1     110.018 128.420 140.517  0.00  0.00    +0.000 C 
ATOM     32  C   UNL     1     110.767 127.372 141.135  0.00  0.00    +0.000 C 
BRANCH  31  34
ATOM     33  O   UNL     1     110.560 129.697 140.174  0.00  0.00    +0.000 OA
ATOM     34  C   UNL     1     109.992 129.108 140.064  0.00  0.00    +0.000 C 
ENDBRANCH  31  34
ENDBRANCH  23  32
ENDBRANCH   4  23
TORSDOF 5
ENDMDL
MODEL 4
REMARK VINA RESULT:      -9.0      1.615      2.768
REMARK  Name = 44258691
REMARK  5 active torsions:
REMARK  status: ('A' for Active; 'I' for Inactive)
REMARK    1  A    between atoms: O_2  and  C_15
REMARK    2  A    between atoms: O_2  and  C_17
REMARK    3  A    between atoms: O_9  and  C_26
REMARK    4  A    between atoms: C_14  and  C_16
REMARK    5  A    between atoms: C_25  and  C_28
REMARK                            x       y       z     vdW  Elec       q    Type
REMARK                         _______ _______ _______ _____ _____    ______ ____
ROOT
ATOM      1  O   UNL     1     109.769 127.072 139.012  0.00  0.00    +0.000 OA
ATOM      2  O   UNL     1     112.168 126.261 137.875  0.00  0.00    +0.000 OA
ATOM      3  O   UNL     1     112.467 128.485 136.700  0.00  0.00    +0.000 OA
ATOM      4  C   UNL     1     110.458 128.079 138.134  0.00  0.00    +0.000 A 
ATOM      5  C   UNL     1     110.359 127.356 138.518  0.00  0.00    +0.000 A 
ATOM      6  C   UNL     1     111.123 128.207 137.662  0.00  0.00    +0.000 A 
ATOM      7  C   UNL     1     110.923 126.760 138.430  0.00  0.00    +0.000 A 
ATOM      8  C   UNL     1     111.688 127.612 137.574  0.00  0.00    +0.000 A 
ATOM      9  C   UNL     1     111.588 126.889 137.958  0.00  0.00    +0.000 A 
ATOM     10  C   UNL     1     110.678 126.115 138.871  0.00  0.00    +0.000 A 
ATOM     11  C   UNL     1     112.375 127.758 137.080  0.00  0.00    +0.000 A 
ATOM     12  C   UNL     1     112.863 126.388 137.385  0.00  0.00    +0.000 A 
ATOM     13  C   UNL     1     112.967 127.142 136.985  0.00  0.00    +0.000 A 
ATOM     14  C   UNL     1     109.966 126.306 139.230  0.00  0.00    +0.000 A 
ENDROOT
BRANCH  12  15
ATOM     15  C   UNL     1     113.426 125.792 137.299  0.00  0.00    +0.000 A 
ATOM     16  C   UNL     1     113.359 125.247 136.683  0.00  0.00    +0.000 A 
ATOM     17  C   UNL     1     114.055 125.740 137.829  0.00  0.00    +0.000 A 
ATOM     18  C   UNL     1     113.922 124.650 136.597  0.00  0.00    +0.000 A 
ATOM     19  C   UNL     1     114.618 125.143 137.743  0.00  0.00    +0.000 A 
ATOM     20  C   UNL     1     114.552 124.598 137.127  0.00  0.00    +0.000 A 
ENDBRANCH  12  15
BRANCH  13  21
ATOM     21  O   UNL     1     113.630 127.273 136.513  0.00  0.00    +0.000 OA
ATOM     22  C   UNL     1     113.725 127.995 136.126  0.00  0.00    +0.000 C 
ENDBRANCH  13  21
BRANCH   4  23
ATOM     23  O   UNL     1     109.894 128.675 138.222  0.00  0.00    +0.000 OA
BRANCH  23  32
ATOM     24  O   UNL     1     109.231 128.498 136.968  0.00  0.00    +0.000 OA
ATOM     25  O   UNL     1     109.011 130.952 136.738  0.00  0.00    +0.000 OA
ATOM     26  O   UNL     1     108.422 129.957 135.562  0.00  0.00    +0.000 OA
ATOM     27  O   UNL     1     109.747 130.311 138.068  0.00  0.00    +0.000 OA
ATOM     28  C   UNL     1     109.084 130.134 136.815  0.00  0.00    +0.000 C 
ATOM     29  C   UNL     1     108.790 129.636 136.227  0.00  0.00    +0.000 C 
ATOM     30  C   UNL     1     109.453 129.813 137.480  0.00  0.00    +0.000 C 
ATOM     31  C   UNL     1     108.863 128.818 136.304  0.00  0.00    +0.000 C 
ATOM     32  C   UNL     1     109.526 128.995 137.557  0.00  0.00    +0.000 C 
BRANCH  31  34
ATOM     33  O   UNL     1     108.165 127.631 135.921  0.00  0.00    +0.000 OA
ATOM     34  C   UNL     1     108.568 128.321 135.716  0.00  0.00    +0.000 C 
ENDBRANCH  31  34
ENDBRANCH  23  32
ENDBRANCH   4  23
TORSDOF 5
ENDMDL
MODEL 5
REMARK VINA RESULT:      -8.9      7.761     11.330
REMARK  Name = 44258691
REMARK  5 active torsions:
REMARK  status: ('A' for Active; 'I' for Inactive)
REMARK    1  A    between atoms: O_2  and  C_15
REMARK    2  A    between atoms: O_2  and  C_17
REMARK    3  A    between atoms: O_9  and  C_26
REMARK    4  A    between atoms: C_14  and  C_16
REMARK    5  A    between atoms: C_25  and  C_28
REMARK                            x       y       z     vdW  Elec       q    Type
REMARK                         _______ _______ _______ _____ _____    ______ ____
ROOT
ATOM      1  O   UNL     1     103.656 128.343 140.574  0.00  0.00    +0.000 OA
ATOM      2  O   UNL     1     102.591 130.635 141.724  0.00  0.00    +0.000 OA
ATOM      3  O   UNL     1     103.873 130.261 143.876  0.00  0.00    +0.000 OA
ATOM      4  C   UNL     1     104.105 128.650 141.976  0.00  0.00    +0.000 A 
ATOM      5  C   UNL     1     103.688 128.769 141.274  0.00  0.00    +0.000 A 
ATOM      6  C   UNL     1     104.024 129.185 142.599  0.00  0.00    +0.000 A 
ATOM      7  C   UNL     1     103.191 129.423 141.195  0.00  0.00    +0.000 A 
ATOM      8  C   UNL     1     103.527 129.839 142.520  0.00  0.00    +0.000 A 
ATOM      9  C   UNL     1     103.111 129.958 141.819  0.00  0.00    +0.000 A 
ATOM     10  C   UNL     1     102.856 129.396 140.447  0.00  0.00    +0.000 A 
ATOM     11  C   UNL     1     103.452 130.388 143.177  0.00  0.00    +0.000 A 
ATOM     12  C   UNL     1     102.502 131.195 142.369  0.00  0.00    +0.000 A 
ATOM     13  C   UNL     1     102.936 131.071 143.100  0.00  0.00    +0.000 A 
ATOM     14  C   UNL     1     103.143 128.729 140.064  0.00  0.00    +0.000 A 
ENDROOT
BRANCH  12  15
ATOM     15  C   UNL     1     102.005 131.849 142.288  0.00  0.00    +0.000 A 
ATOM     16  C   UNL     1     102.305 132.563 142.005  0.00  0.00    +0.000 A 
ATOM     17  C   UNL     1     101.208 131.786 142.489  0.00  0.00    +0.000 A 
ATOM     18  C   UNL     1     101.808 133.216 141.923  0.00  0.00    +0.000 A 
ATOM     19  C   UNL     1     100.710 132.440 142.407  0.00  0.00    +0.000 A 
ATOM     20  C   UNL     1     101.010 133.155 142.124  0.00  0.00    +0.000 A 
ENDBRANCH  12  15
BRANCH  13  21
ATOM     21  O   UNL     1     102.858 131.604 143.725  0.00  0.00    +0.000 OA
ATOM     22  C   UNL     1     103.206 131.439 144.455  0.00  0.00    +0.000 C 
ENDBRANCH  13  21
BRANCH   4  23
ATOM     23  O   UNL     1     104.601 127.996 142.055  0.00  0.00    +0.000 OA
BRANCH  23  32
ATOM     24  O   UNL     1     105.867 128.648 141.932  0.00  0.00    +0.000 OA
ATOM     25  O   UNL     1     106.743 127.302 143.815  0.00  0.00    +0.000 OA
ATOM     26  O   UNL     1     107.716 128.402 143.064  0.00  0.00    +0.000 OA
ATOM     27  O   UNL     1     105.186 127.099 143.311  0.00  0.00    +0.000 OA
ATOM     28  C   UNL     1     106.451 127.751 143.188  0.00  0.00    +0.000 C 
ATOM     29  C   UNL     1     106.937 128.301 142.812  0.00  0.00    +0.000 C 
ATOM     30  C   UNL     1     105.672 127.649 142.935  0.00  0.00    +0.000 C 
ATOM     31  C   UNL     1     106.645 128.750 142.184  0.00  0.00    +0.000 C 
ATOM     32  C   UNL     1     105.380 128.098 142.307  0.00  0.00    +0.000 C 
BRANCH  31  34
ATOM     33  O   UNL     1     106.998 129.499 141.019  0.00  0.00    +0.000 OA
ATOM     34  C   UNL     1     107.132 129.299 141.809  0.00  0.00    +0.000 C 
ENDBRANCH  31  34
ENDBRANCH  23  32
ENDBRANCH   4  23
TORSDOF 5
ENDMDL
MODEL 6
REMARK VINA RESULT:      -8.9      1.893      3.902
REMARK  Name = 44258691
REMARK  5 active torsions:
REMARK  status: ('A' for Active; 'I' for Inactive)
REMARK    1  A    between atoms: O_2  and  C_15
REMARK    2  A    between atoms: O_2  and  C_17
REMARK    3  A    between atoms: O_9  and  C_26
REMARK    4  A    between atoms: C_14  and  C_16
REMARK    5  A    between atoms: C_25  and  C_28
REMARK                            x       y       z     vdW  Elec       q    Type
REMARK                         _______ _______ _______ _____ _____    ______ ____
ROOT
ATOM      1  O   UNL     1     113.342 125.462 136.920  0.00  0.00    +0.000 OA
ATOM      2  O   UNL     1     113.911 128.055 136.108  0.00  0.00    +0.000 OA
ATOM      3  O   UNL     1     111.503 128.776 136.417  0.00  0.00    +0.000 OA
ATOM      4  C   UNL     1     112.183 126.420 136.906  0.00  0.00    +0.000 A 
ATOM      5  C   UNL     1     112.968 126.182 136.806  0.00  0.00    +0.000 A 
ATOM      6  C   UNL     1     111.965 127.198 136.743  0.00  0.00    +0.000 A 
ATOM      7  C   UNL     1     113.532 126.723 136.543  0.00  0.00    +0.000 A 
ATOM      8  C   UNL     1     112.530 127.739 136.481  0.00  0.00    +0.000 A 
ATOM      9  C   UNL     1     113.313 127.501 136.381  0.00  0.00    +0.000 A 
ATOM     10  C   UNL     1     114.251 126.333 136.498  0.00  0.00    +0.000 A 
ATOM     11  C   UNL     1     112.289 128.547 136.315  0.00  0.00    +0.000 A 
ATOM     12  C   UNL     1     113.689 128.868 135.937  0.00  0.00    +0.000 A 
ATOM     13  C   UNL     1     112.873 129.115 136.041  0.00  0.00    +0.000 A 
ATOM     14  C   UNL     1     114.135 125.554 136.730  0.00  0.00    +0.000 A 
ENDROOT
BRANCH  12  15
ATOM     15  C   UNL     1     114.256 129.407 135.674  0.00  0.00    +0.000 A 
ATOM     16  C   UNL     1     114.603 129.933 136.207  0.00  0.00    +0.000 A 
ATOM     17  C   UNL     1     114.476 129.419 134.880  0.00  0.00    +0.000 A 
ATOM     18  C   UNL     1     115.170 130.472 135.945  0.00  0.00    +0.000 A 
ATOM     19  C   UNL     1     115.043 129.957 134.617  0.00  0.00    +0.000 A 
ATOM     20  C   UNL     1     115.390 130.484 135.150  0.00  0.00    +0.000 A 
ENDBRANCH  12  15
BRANCH  13  21
ATOM     21  O   UNL     1     112.651 129.893 135.879  0.00  0.00    +0.000 OA
ATOM     22  C   UNL     1     111.862 130.122 135.957  0.00  0.00    +0.000 C 
ENDBRANCH  13  21
BRANCH   4  23
ATOM     23  O   UNL     1     111.618 125.879 137.169  0.00  0.00    +0.000 OA
BRANCH  23  32
ATOM     24  O   UNL     1     111.509 126.241 138.547  0.00  0.00    +0.000 OA
ATOM     25  O   UNL     1     109.042 126.213 138.359  0.00  0.00    +0.000 OA
ATOM     26  O   UNL     1     109.755 126.584 139.798  0.00  0.00    +0.000 OA
ATOM     27  O   UNL     1     109.973 125.860 137.043  0.00  0.00    +0.000 OA
ATOM     28  C   UNL     1     109.864 126.222 138.421  0.00  0.00    +0.000 C 
ATOM     29  C   UNL     1     110.221 126.408 139.141  0.00  0.00    +0.000 C 
ATOM     30  C   UNL     1     110.330 126.046 137.763  0.00  0.00    +0.000 C 
ATOM     31  C   UNL     1     111.044 126.417 139.204  0.00  0.00    +0.000 C 
ATOM     32  C   UNL     1     111.153 126.055 137.826  0.00  0.00    +0.000 C 
BRANCH  31  34
ATOM     33  O   UNL     1     112.031 126.149 140.202  0.00  0.00    +0.000 OA
ATOM     34  C   UNL     1     111.400 126.603 139.924  0.00  0.00    +0.000 C 
ENDBRANCH  31  34
ENDBRANCH  23  32
ENDBRANCH   4  23
TORSDOF 5
ENDMDL
MODEL 7
REMARK VINA RESULT:      -8.9     10.677     12.672
REMARK  Name = 44258691
REMARK  5 active torsions:
REMARK  status: ('A' for Active; 'I' for Inactive)
REMARK    1  A    between atoms: O_2  and  C_15
REMARK    2  A    between atoms: O_2  and  C_17
REMARK    3  A    between atoms: O_9  and  C_26
REMARK    4  A    between atoms: C_14  and  C_16
REMARK    5  A    between atoms: C_25  and  C_28
REMARK                            x       y       z     vdW  Elec       q    Type
REMARK                         _______ _______ _______ _____ _____    ______ ____
ROOT
ATOM      1  O   UNL     1     106.454 124.538 147.688  0.00  0.00    +0.000 OA
ATOM      2  O   UNL     1     106.759 127.023 146.489  0.00  0.00    +0.000 OA
ATOM      3  O   UNL     1     105.091 126.452 144.671  0.00  0.00    +0.000 OA
ATOM      4  C   UNL     1     105.631 124.782 146.453  0.00  0.00    +0.000 A 
ATOM      5  C   UNL     1     106.175 124.966 147.047  0.00  0.00    +0.000 A 
ATOM      6  C   UNL     1     105.457 125.337 145.868  0.00  0.00    +0.000 A 
ATOM      7  C   UNL     1     106.543 125.704 147.055  0.00  0.00    +0.000 A 
ATOM      8  C   UNL     1     105.826 126.075 145.876  0.00  0.00    +0.000 A 
ATOM      9  C   UNL     1     106.368 126.258 146.469  0.00  0.00    +0.000 A 
ATOM     10  C   UNL     1     107.047 125.726 147.701  0.00  0.00    +0.000 A 
ATOM     11  C   UNL     1     105.635 126.644 145.261  0.00  0.00    +0.000 A 
ATOM     12  C   UNL     1     106.581 127.606 145.882  0.00  0.00    +0.000 A 
ATOM     13  C   UNL     1     106.016 127.414 145.264  0.00  0.00    +0.000 A 
ATOM     14  C   UNL     1     106.992 125.007 148.092  0.00  0.00    +0.000 A 
ENDROOT
BRANCH  12  15
ATOM     15  C   UNL     1     106.951 128.343 145.893  0.00  0.00    +0.000 A 
ATOM     16  C   UNL     1     107.688 128.440 145.535  0.00  0.00    +0.000 A 
ATOM     17  C   UNL     1     106.584 128.983 146.261  0.00  0.00    +0.000 A 
ATOM     18  C   UNL     1     108.058 129.177 145.546  0.00  0.00    +0.000 A 
ATOM     19  C   UNL     1     106.953 129.720 146.272  0.00  0.00    +0.000 A 
ATOM     20  C   UNL     1     107.691 129.818 145.914  0.00  0.00    +0.000 A 
ENDBRANCH  12  15
BRANCH  13  21
ATOM     21  O   UNL     1     105.839 127.967 144.678  0.00  0.00    +0.000 OA
ATOM     22  C   UNL     1     105.434 127.733 143.999  0.00  0.00    +0.000 C 
ENDBRANCH  13  21
BRANCH   4  23
ATOM     23  O   UNL     1     105.263 124.044 146.445  0.00  0.00    +0.000 OA
BRANCH  23  32
ATOM     24  O   UNL     1     104.005 124.409 147.016  0.00  0.00    +0.000 OA
ATOM     25  O   UNL     1     102.838 123.014 145.336  0.00  0.00    +0.000 OA
ATOM     26  O   UNL     1     101.970 123.844 146.467  0.00  0.00    +0.000 OA
ATOM     27  O   UNL     1     104.485 123.114 145.325  0.00  0.00    +0.000 OA
ATOM     28  C   UNL     1     103.227 123.479 145.896  0.00  0.00    +0.000 C 
ATOM     29  C   UNL     1     102.793 123.894 146.462  0.00  0.00    +0.000 C 
ATOM     30  C   UNL     1     104.051 123.529 145.891  0.00  0.00    +0.000 C 
ATOM     31  C   UNL     1     103.182 124.359 147.021  0.00  0.00    +0.000 C 
ATOM     32  C   UNL     1     104.440 123.994 146.451  0.00  0.00    +0.000 C 
BRANCH  31  34
ATOM     33  O   UNL     1     102.993 124.780 148.374  0.00  0.00    +0.000 OA
ATOM     34  C   UNL     1     102.747 124.773 147.586  0.00  0.00    +0.000 C 
ENDBRANCH  31  34
ENDBRANCH  23  32
ENDBRANCH   4  23
TORSDOF 5
ENDMDL
MODEL 8
REMARK VINA RESULT:      -8.8      9.104     10.833
REMARK  Name = 44258691
REMARK  5 active torsions:
REMARK  status: ('A' for Active; 'I' for Inactive)
REMARK    1  A    between atoms: O_2  and  C_15
REMARK    2  A    between atoms: O_2  and  C_17
REMARK    3  A    between atoms: O_9  and  C_26
REMARK    4  A    between atoms: C_14  and  C_16
REMARK    5  A    between atoms: C_25  and  C_28
REMARK                            x       y       z     vdW  Elec       q    Type
REMARK                         _______ _______ _______ _____ _____    ______ ____
ROOT
ATOM      1  O   UNL     1     107.047 128.802 145.125  0.00  0.00    +0.000 OA
ATOM      2  O   UNL     1     106.897 126.598 146.806  0.00  0.00    +0.000 OA
ATOM      3  O   UNL     1     105.288 125.409 145.253  0.00  0.00    +0.000 OA
ATOM      4  C   UNL     1     106.156 127.681 144.668  0.00  0.00    +0.000 A 
ATOM      5  C   UNL     1     106.680 128.071 145.172  0.00  0.00    +0.000 A 
ATOM      6  C   UNL     1     105.873 126.932 144.866  0.00  0.00    +0.000 A 
ATOM      7  C   UNL     1     106.921 127.711 145.875  0.00  0.00    +0.000 A 
ATOM      8  C   UNL     1     106.114 126.572 145.569  0.00  0.00    +0.000 A 
ATOM      9  C   UNL     1     106.638 126.962 146.072  0.00  0.00    +0.000 A 
ATOM     10  C   UNL     1     107.435 128.223 146.255  0.00  0.00    +0.000 A 
ATOM     11  C   UNL     1     105.812 125.792 145.764  0.00  0.00    +0.000 A 
ATOM     12  C   UNL     1     106.606 125.818 147.019  0.00  0.00    +0.000 A 
ATOM     13  C   UNL     1     106.060 125.412 146.493  0.00  0.00    +0.000 A 
ATOM     14  C   UNL     1     107.514 128.897 145.793  0.00  0.00    +0.000 A 
ENDROOT
BRANCH  12  15
ATOM     15  C   UNL     1     106.848 125.461 147.722  0.00  0.00    +0.000 A 
ATOM     16  C   UNL     1     106.383 125.526 148.400  0.00  0.00    +0.000 A 
ATOM     17  C   UNL     1     107.556 125.038 147.746  0.00  0.00    +0.000 A 
ATOM     18  C   UNL     1     106.626 125.169 149.103  0.00  0.00    +0.000 A 
ATOM     19  C   UNL     1     107.799 124.681 148.449  0.00  0.00    +0.000 A 
ATOM     20  C   UNL     1     107.334 124.746 149.128  0.00  0.00    +0.000 A 
ENDBRANCH  12  15
BRANCH  13  21
ATOM     21  O   UNL     1     105.775 124.663 146.689  0.00  0.00    +0.000 OA
ATOM     22  C   UNL     1     105.104 124.365 146.312  0.00  0.00    +0.000 C 
ENDBRANCH  13  21
BRANCH   4  23
ATOM     23  O   UNL     1     105.915 128.041 143.965  0.00  0.00    +0.000 OA
BRANCH  23  32
ATOM     24  O   UNL     1     106.742 127.299 143.067  0.00  0.00    +0.000 OA
ATOM     25  O   UNL     1     104.876 127.182 141.445  0.00  0.00    +0.000 OA
ATOM     26  O   UNL     1     106.325 126.480 141.088  0.00  0.00    +0.000 OA
ATOM     27  O   UNL     1     104.671 127.963 142.884  0.00  0.00    +0.000 OA
ATOM     28  C   UNL     1     105.498 127.221 141.986  0.00  0.00    +0.000 C 
ATOM     29  C   UNL     1     106.223 126.870 141.807  0.00  0.00    +0.000 C 
ATOM     30  C   UNL     1     105.395 127.612 142.706  0.00  0.00    +0.000 C 
ATOM     31  C   UNL     1     106.845 126.909 142.348  0.00  0.00    +0.000 C 
ATOM     32  C   UNL     1     106.018 127.651 143.246  0.00  0.00    +0.000 C 
BRANCH  31  34
ATOM     33  O   UNL     1     108.272 126.909 142.420  0.00  0.00    +0.000 OA
ATOM     34  C   UNL     1     107.569 126.558 142.169  0.00  0.00    +0.000 C 
ENDBRANCH  31  34
ENDBRANCH  23  32
ENDBRANCH   4  23
TORSDOF 5
ENDMDL
MODEL 9
REMARK VINA RESULT:      -8.7      2.202      3.395
REMARK  Name = 44258691
REMARK  5 active torsions:
REMARK  status: ('A' for Active; 'I' for Inactive)
REMARK    1  A    between atoms: O_2  and  C_15
REMARK    2  A    between atoms: O_2  and  C_17
REMARK    3  A    between atoms: O_9  and  C_26
REMARK    4  A    between atoms: C_14  and  C_16
REMARK    5  A    between atoms: C_25  and  C_28
REMARK                            x       y       z     vdW  Elec       q    Type
REMARK                         _______ _______ _______ _____ _____    ______ ____
ROOT
ATOM      1  O   UNL     1     112.162 127.826 140.974  0.00  0.00    +0.000 OA
ATOM      2  O   UNL     1     113.103 126.431 138.765  0.00  0.00    +0.000 OA
ATOM      3  O   UNL     1     113.001 128.497 137.304  0.00  0.00    +0.000 OA
ATOM      4  C   UNL     1     112.315 128.620 139.706  0.00  0.00    +0.000 A 
ATOM      5  C   UNL     1     112.347 127.948 140.185  0.00  0.00    +0.000 A 
ATOM      6  C   UNL     1     112.542 128.573 138.915  0.00  0.00    +0.000 A 
ATOM      7  C   UNL     1     112.607 127.230 139.871  0.00  0.00    +0.000 A 
ATOM      8  C   UNL     1     112.802 127.855 138.601  0.00  0.00    +0.000 A 
ATOM      9  C   UNL     1     112.835 127.185 139.079  0.00  0.00    +0.000 A 
ATOM     10  C   UNL     1     112.580 126.670 140.469  0.00  0.00    +0.000 A 
ATOM     11  C   UNL     1     113.036 127.820 137.775  0.00  0.00    +0.000 A 
ATOM     12  C   UNL     1     113.342 126.376 137.941  0.00  0.00    +0.000 A 
ATOM     13  C   UNL     1     113.308 127.076 137.443  0.00  0.00    +0.000 A 
ATOM     14  C   UNL     1     112.305 127.037 141.150  0.00  0.00    +0.000 A 
ENDROOT
BRANCH  12  15
ATOM     15  C   UNL     1     113.601 125.657 137.631  0.00  0.00    +0.000 A 
ATOM     16  C   UNL     1     114.400 125.457 137.667  0.00  0.00    +0.000 A 
ATOM     17  C   UNL     1     113.061 125.140 137.283  0.00  0.00    +0.000 A 
ATOM     18  C   UNL     1     114.660 124.738 137.357  0.00  0.00    +0.000 A 
ATOM     19  C   UNL     1     113.320 124.421 136.973  0.00  0.00    +0.000 A 
ATOM     20  C   UNL     1     114.120 124.220 137.009  0.00  0.00    +0.000 A 
ENDBRANCH  12  15
BRANCH  13  21
ATOM     21  O   UNL     1     113.534 127.033 136.651  0.00  0.00    +0.000 OA
ATOM     22  C   UNL     1     113.581 127.720 136.197  0.00  0.00    +0.000 C 
ENDBRANCH  13  21
BRANCH   4  23
ATOM     23  O   UNL     1     112.055 129.337 140.019  0.00  0.00    +0.000 OA
BRANCH  23  32
ATOM     24  O   UNL     1     110.726 129.345 139.494  0.00  0.00    +0.000 OA
ATOM     25  O   UNL     1     110.962 131.743 138.932  0.00  0.00    +0.000 OA
ATOM     26  O   UNL     1     109.555 130.951 138.594  0.00  0.00    +0.000 OA
ATOM     27  O   UNL     1     112.212 130.937 139.645  0.00  0.00    +0.000 OA
ATOM     28  C   UNL     1     110.883 130.944 139.119  0.00  0.00    +0.000 C 
ATOM     29  C   UNL     1     110.180 130.547 138.950  0.00  0.00    +0.000 C 
ATOM     30  C   UNL     1     111.509 130.540 139.476  0.00  0.00    +0.000 C 
ATOM     31  C   UNL     1     110.101 129.748 139.138  0.00  0.00    +0.000 C 
ATOM     32  C   UNL     1     111.430 129.740 139.663  0.00  0.00    +0.000 C 
BRANCH  31  34
ATOM     33  O   UNL     1     109.061 128.850 139.530  0.00  0.00    +0.000 OA
ATOM     34  C   UNL     1     109.398 129.352 138.969  0.00  0.00    +0.000 C 
ENDBRANCH  31  34
ENDBRANCH  23  32
ENDBRANCH   4  23
TORSDOF 5
ENDMDL
