MODEL 1
REMARK VINA RESULT:      -9.8      0.000      0.000
REMARK  Name = 44260020
REMARK  6 active torsions:
REMARK  status: ('A' for Active; 'I' for Inactive)
REMARK    1  A    between atoms: S_1  and  O_12
REMARK    2  A    between atoms: O_3  and  C_22
REMARK    3  A    between atoms: O_3  and  C_25
REMARK    4  A    between atoms: O_12  and  C_33
REMARK    5  A    between atoms: C_23  and  C_24
REMARK    6  A    between atoms: C_32  and  C_34
REMARK                            x       y       z     vdW  Elec       q    Type
REMARK                         _______ _______ _______ _____ _____    ______ ____
ROOT
ATOM      1  O   UNL     1     110.162 130.664 136.076  0.00  0.00    +0.000 OA
ATOM      2  O   UNL     1     112.341 128.771 136.465  0.00  0.00    +0.000 OA
ATOM      3  O   UNL     1     112.285 131.296 137.931  0.00  0.00    +0.000 OA
ATOM      4  O   UNL     1     111.190 132.210 137.713  0.00  0.00    +0.000 OA
ATOM      5  C   UNL     1     111.240 129.708 136.257  0.00  0.00    +0.000 A 
ATOM      6  C   UNL     1     110.870 130.460 136.447  0.00  0.00    +0.000 A 
ATOM      7  C   UNL     1     111.212 130.975 136.992  0.00  0.00    +0.000 A 
ATOM      8  C   UNL     1     111.977 129.491 136.641  0.00  0.00    +0.000 A 
ATOM      9  C   UNL     1     111.949 130.774 137.386  0.00  0.00    +0.000 A 
ATOM     10  C   UNL     1     112.334 130.027 137.209  0.00  0.00    +0.000 A 
ATOM     11  C   UNL     1     110.847 131.695 137.167  0.00  0.00    +0.000 A 
ATOM     12  C   UNL     1     109.796 131.383 136.249  0.00  0.00    +0.000 A 
ATOM     13  C   UNL     1     110.140 131.898 136.795  0.00  0.00    +0.000 A 
ENDROOT
BRANCH  12  16
ATOM     14  O   UNL     1     106.945 131.252 136.112  0.00  0.00    +0.000 OA
ATOM     15  O   UNL     1     106.967 132.197 134.761  0.00  0.00    +0.000 OA
ATOM     16  C   UNL     1     109.089 131.586 135.878  0.00  0.00    +0.000 A 
ATOM     17  C   UNL     1     108.370 131.317 136.181  0.00  0.00    +0.000 A 
ATOM     18  C   UNL     1     109.100 132.060 135.201  0.00  0.00    +0.000 A 
ATOM     19  C   UNL     1     107.664 131.521 135.809  0.00  0.00    +0.000 A 
ATOM     20  C   UNL     1     108.393 132.263 134.829  0.00  0.00    +0.000 A 
ATOM     21  C   UNL     1     107.674 131.994 135.133  0.00  0.00    +0.000 A 
ENDBRANCH  12  16
BRANCH   5  22
ATOM     22  O   UNL     1     110.890 129.199 135.710  0.00  0.00    +0.000 OA
BRANCH  22  30
ATOM     23  O   UNL     1     110.294 128.460 136.778  0.00  0.00    +0.000 OA
ATOM     24  O   UNL     1     109.140 127.016 135.133  0.00  0.00    +0.000 OA
ATOM     25  O   UNL     1     110.121 128.236 134.613  0.00  0.00    +0.000 OA
ATOM     26  O   UNL     1     108.928 126.758 136.748  0.00  0.00    +0.000 OA
ATOM     27  C   UNL     1     109.524 127.497 135.681  0.00  0.00    +0.000 C 
ATOM     28  C   UNL     1     110.015 128.107 135.421  0.00  0.00    +0.000 C 
ATOM     29  C   UNL     1     109.418 127.368 136.488  0.00  0.00    +0.000 C 
ATOM     30  C   UNL     1     110.400 128.589 135.970  0.00  0.00    +0.000 C 
ATOM     31  C   UNL     1     109.804 127.850 137.037  0.00  0.00    +0.000 C 
BRANCH  31  34
ATOM     32  O   UNL     1     109.147 128.168 138.266  0.00  0.00    +0.000 OA
ATOM     33  O   UNL     1     110.143 127.145 138.232  0.00  0.00    +0.000 OA
ATOM     34  C   UNL     1     109.698 127.721 137.845  0.00  0.00    +0.000 C 
ENDBRANCH  31  34
ENDBRANCH  22  30
ENDBRANCH   5  22
BRANCH  13  35
ATOM     35  O   UNL     1     109.774 132.617 136.969  0.00  0.00    +0.000 OA
BRANCH  35  36
ATOM     36  S   UNL     1     109.998 133.042 137.640  0.00  0.00    +0.000 S 
ATOM     37  O   UNL     1     110.222 133.465 138.312  0.00  0.00    +0.000 OA
ATOM     38  O   UNL     1     109.500 132.574 138.102  0.00  0.00    +0.000 OA
ATOM     39  O   UNL     1     110.496 133.510 137.179  0.00  0.00    +0.000 OA
ENDBRANCH  35  36
ENDBRANCH  13  35
TORSDOF 6
ENDMDL
MODEL 2
REMARK VINA RESULT:      -9.7      2.825      4.880
REMARK  Name = 44260020
REMARK  6 active torsions:
REMARK  status: ('A' for Active; 'I' for Inactive)
REMARK    1  A    between atoms: S_1  and  O_12
REMARK    2  A    between atoms: O_3  and  C_22
REMARK    3  A    between atoms: O_3  and  C_25
REMARK    4  A    between atoms: O_12  and  C_33
REMARK    5  A    between atoms: C_23  and  C_24
REMARK    6  A    between atoms: C_32  and  C_34
REMARK                            x       y       z     vdW  Elec       q    Type
REMARK                         _______ _______ _______ _____ _____    ______ ____
ROOT
ATOM      1  O   UNL     1     111.296 127.315 137.230  0.00  0.00    +0.000 OA
ATOM      2  O   UNL     1     111.103 125.421 139.434  0.00  0.00    +0.000 OA
ATOM      3  O   UNL     1     108.694 126.460 138.151  0.00  0.00    +0.000 OA
ATOM      4  O   UNL     1     108.828 127.397 137.062  0.00  0.00    +0.000 OA
ATOM      5  C   UNL     1     111.219 126.370 138.330  0.00  0.00    +0.000 A 
ATOM      6  C   UNL     1     110.832 126.864 137.742  0.00  0.00    +0.000 A 
ATOM      7  C   UNL     1     110.011 126.891 137.686  0.00  0.00    +0.000 A 
ATOM      8  C   UNL     1     110.741 125.898 138.866  0.00  0.00    +0.000 A 
ATOM      9  C   UNL     1     109.516 126.427 138.214  0.00  0.00    +0.000 A 
ATOM     10  C   UNL     1     109.884 125.927 138.808  0.00  0.00    +0.000 A 
ATOM     11  C   UNL     1     109.651 127.370 137.117  0.00  0.00    +0.000 A 
ATOM     12  C   UNL     1     110.937 127.793 136.661  0.00  0.00    +0.000 A 
ATOM     13  C   UNL     1     110.115 127.820 136.606  0.00  0.00    +0.000 A 
ENDROOT
BRANCH  12  16
ATOM     14  O   UNL     1     112.355 130.206 136.080  0.00  0.00    +0.000 OA
ATOM     15  O   UNL     1     112.793 129.595 134.612  0.00  0.00    +0.000 OA
ATOM     16  C   UNL     1     111.401 128.244 136.149  0.00  0.00    +0.000 A 
ATOM     17  C   UNL     1     111.646 129.000 136.371  0.00  0.00    +0.000 A 
ATOM     18  C   UNL     1     111.620 127.938 135.414  0.00  0.00    +0.000 A 
ATOM     19  C   UNL     1     112.110 129.450 135.859  0.00  0.00    +0.000 A 
ATOM     20  C   UNL     1     112.084 128.388 134.902  0.00  0.00    +0.000 A 
ATOM     21  C   UNL     1     112.329 129.144 135.124  0.00  0.00    +0.000 A 
ENDBRANCH  12  16
BRANCH   5  22
ATOM     22  O   UNL     1     112.042 126.349 138.379  0.00  0.00    +0.000 OA
BRANCH  22  30
ATOM     23  O   UNL     1     112.059 125.162 137.583  0.00  0.00    +0.000 OA
ATOM     24  O   UNL     1     114.533 125.144 137.664  0.00  0.00    +0.000 OA
ATOM     25  O   UNL     1     113.691 126.337 138.433  0.00  0.00    +0.000 OA
ATOM     26  O   UNL     1     113.726 123.964 136.842  0.00  0.00    +0.000 OA
ATOM     27  C   UNL     1     113.708 125.150 137.637  0.00  0.00    +0.000 C 
ATOM     28  C   UNL     1     113.288 125.747 138.022  0.00  0.00    +0.000 C 
ATOM     29  C   UNL     1     113.305 124.560 137.226  0.00  0.00    +0.000 C 
ATOM     30  C   UNL     1     112.462 125.753 137.995  0.00  0.00    +0.000 C 
ATOM     31  C   UNL     1     112.480 124.566 137.199  0.00  0.00    +0.000 C 
BRANCH  31  34
ATOM     32  O   UNL     1     111.806 124.117 136.022  0.00  0.00    +0.000 OA
ATOM     33  O   UNL     1     111.944 123.243 137.144  0.00  0.00    +0.000 OA
ATOM     34  C   UNL     1     112.077 123.976 136.788  0.00  0.00    +0.000 C 
ENDBRANCH  31  34
ENDBRANCH  22  30
ENDBRANCH   5  22
BRANCH  13  35
ATOM     35  O   UNL     1     109.756 128.299 136.037  0.00  0.00    +0.000 OA
BRANCH  35  36
ATOM     36  S   UNL     1     108.935 128.289 135.948  0.00  0.00    +0.000 S 
ATOM     37  O   UNL     1     108.115 128.278 135.859  0.00  0.00    +0.000 OA
ATOM     38  O   UNL     1     109.001 127.664 135.413  0.00  0.00    +0.000 OA
ATOM     39  O   UNL     1     108.869 128.914 136.483  0.00  0.00    +0.000 OA
ENDBRANCH  35  36
ENDBRANCH  13  35
TORSDOF 6
ENDMDL
MODEL 3
REMARK VINA RESULT:      -9.6      2.601      5.984
REMARK  Name = 44260020
REMARK  6 active torsions:
REMARK  status: ('A' for Active; 'I' for Inactive)
REMARK    1  A    between atoms: S_1  and  O_12
REMARK    2  A    between atoms: O_3  and  C_22
REMARK    3  A    between atoms: O_3  and  C_25
REMARK    4  A    between atoms: O_12  and  C_33
REMARK    5  A    between atoms: C_23  and  C_24
REMARK    6  A    between atoms: C_32  and  C_34
REMARK                            x       y       z     vdW  Elec       q    Type
REMARK                         _______ _______ _______ _____ _____    ______ ____
ROOT
ATOM      1  O   UNL     1     110.664 126.917 137.429  0.00  0.00    +0.000 OA
ATOM      2  O   UNL     1     108.354 127.804 135.893  0.00  0.00    +0.000 OA
ATOM      3  O   UNL     1     109.847 125.426 135.093  0.00  0.00    +0.000 OA
ATOM      4  O   UNL     1     110.987 125.016 135.877  0.00  0.00    +0.000 OA
ATOM      5  C   UNL     1     109.510 127.374 136.675  0.00  0.00    +0.000 A 
ATOM      6  C   UNL     1     110.152 126.814 136.790  0.00  0.00    +0.000 A 
ATOM      7  C   UNL     1     110.259 126.181 136.274  0.00  0.00    +0.000 A 
ATOM      8  C   UNL     1     108.973 127.271 136.012  0.00  0.00    +0.000 A 
ATOM      9  C   UNL     1     109.732 126.062 135.605  0.00  0.00    +0.000 A 
ATOM     10  C   UNL     1     109.085 126.611 135.474  0.00  0.00    +0.000 A 
ATOM     11  C   UNL     1     110.880 125.649 136.395  0.00  0.00    +0.000 A 
ATOM     12  C   UNL     1     111.284 126.386 137.550  0.00  0.00    +0.000 A 
ATOM     13  C   UNL     1     111.392 125.753 137.033  0.00  0.00    +0.000 A 
ENDROOT
BRANCH  12  16
ATOM     14  O   UNL     1     111.860 126.099 140.335  0.00  0.00    +0.000 OA
ATOM     15  O   UNL     1     113.334 126.801 140.103  0.00  0.00    +0.000 OA
ATOM     16  C   UNL     1     111.796 126.490 138.189  0.00  0.00    +0.000 A 
ATOM     17  C   UNL     1     111.572 126.242 138.943  0.00  0.00    +0.000 A 
ATOM     18  C   UNL     1     112.535 126.842 138.072  0.00  0.00    +0.000 A 
ATOM     19  C   UNL     1     112.084 126.346 139.580  0.00  0.00    +0.000 A 
ATOM     20  C   UNL     1     113.046 126.945 138.710  0.00  0.00    +0.000 A 
ATOM     21  C   UNL     1     112.822 126.698 139.465  0.00  0.00    +0.000 A 
ENDBRANCH  12  16
BRANCH   5  22
ATOM     22  O   UNL     1     109.410 128.005 137.197  0.00  0.00    +0.000 OA
BRANCH  22  30
ATOM     23  O   UNL     1     110.159 128.852 136.324  0.00  0.00    +0.000 OA
ATOM     24  O   UNL     1     109.642 130.796 137.766  0.00  0.00    +0.000 OA
ATOM     25  O   UNL     1     109.065 129.300 138.159  0.00  0.00    +0.000 OA
ATOM     26  O   UNL     1     110.563 130.995 136.412  0.00  0.00    +0.000 OA
ATOM     27  C   UNL     1     109.814 130.148 137.285  0.00  0.00    +0.000 C 
ATOM     28  C   UNL     1     109.526 129.400 137.482  0.00  0.00    +0.000 C 
ATOM     29  C   UNL     1     110.275 130.248 136.609  0.00  0.00    +0.000 C 
ATOM     30  C   UNL     1     109.698 128.752 137.001  0.00  0.00    +0.000 C 
ATOM     31  C   UNL     1     110.447 129.599 136.127  0.00  0.00    +0.000 C 
BRANCH  31  34
ATOM     32  O   UNL     1     111.722 129.574 135.483  0.00  0.00    +0.000 OA
ATOM     33  O   UNL     1     110.553 129.924 134.740  0.00  0.00    +0.000 OA
ATOM     34  C   UNL     1     110.907 129.699 135.451  0.00  0.00    +0.000 C 
ENDBRANCH  31  34
ENDBRANCH  22  30
ENDBRANCH   5  22
BRANCH  13  35
ATOM     35  O   UNL     1     112.012 125.222 137.155  0.00  0.00    +0.000 OA
BRANCH  35  36
ATOM     36  S   UNL     1     111.980 124.468 136.821  0.00  0.00    +0.000 S 
ATOM     37  O   UNL     1     111.949 123.715 136.486  0.00  0.00    +0.000 OA
ATOM     38  O   UNL     1     112.506 124.707 136.231  0.00  0.00    +0.000 OA
ATOM     39  O   UNL     1     111.455 124.228 137.410  0.00  0.00    +0.000 OA
ENDBRANCH  35  36
ENDBRANCH  13  35
TORSDOF 6
ENDMDL
MODEL 4
REMARK VINA RESULT:      -9.6      1.470      3.158
REMARK  Name = 44260020
REMARK  6 active torsions:
REMARK  status: ('A' for Active; 'I' for Inactive)
REMARK    1  A    between atoms: S_1  and  O_12
REMARK    2  A    between atoms: O_3  and  C_22
REMARK    3  A    between atoms: O_3  and  C_25
REMARK    4  A    between atoms: O_12  and  C_33
REMARK    5  A    between atoms: C_23  and  C_24
REMARK    6  A    between atoms: C_32  and  C_34
REMARK                            x       y       z     vdW  Elec       q    Type
REMARK                         _______ _______ _______ _____ _____    ______ ____
ROOT
ATOM      1  O   UNL     1     110.060 130.481 136.563  0.00  0.00    +0.000 OA
ATOM      2  O   UNL     1     110.550 127.617 136.375  0.00  0.00    +0.000 OA
ATOM      3  O   UNL     1     107.935 128.725 135.698  0.00  0.00    +0.000 OA
ATOM      4  O   UNL     1     107.728 130.149 135.803  0.00  0.00    +0.000 OA
ATOM      5  C   UNL     1     110.322 129.056 136.475  0.00  0.00    +0.000 A 
ATOM      6  C   UNL     1     109.786 129.723 136.389  0.00  0.00    +0.000 A 
ATOM      7  C   UNL     1     109.010 129.612 136.136  0.00  0.00    +0.000 A 
ATOM      8  C   UNL     1     110.043 128.263 136.295  0.00  0.00    +0.000 A 
ATOM      9  C   UNL     1     108.714 128.827 135.951  0.00  0.00    +0.000 A 
ATOM     10  C   UNL     1     109.234 128.148 136.031  0.00  0.00    +0.000 A 
ATOM     11  C   UNL     1     108.505 130.260 136.057  0.00  0.00    +0.000 A 
ATOM     12  C   UNL     1     109.555 131.130 136.484  0.00  0.00    +0.000 A 
ATOM     13  C   UNL     1     108.778 131.019 136.231  0.00  0.00    +0.000 A 
ENDROOT
BRANCH  12  16
ATOM     14  O   UNL     1     110.117 133.181 138.393  0.00  0.00    +0.000 OA
ATOM     15  O   UNL     1     110.649 134.164 137.180  0.00  0.00    +0.000 OA
ATOM     16  C   UNL     1     109.829 131.888 136.659  0.00  0.00    +0.000 A 
ATOM     17  C   UNL     1     109.836 132.156 137.439  0.00  0.00    +0.000 A 
ATOM     18  C   UNL     1     110.095 132.380 136.051  0.00  0.00    +0.000 A 
ATOM     19  C   UNL     1     110.109 132.914 137.612  0.00  0.00    +0.000 A 
ATOM     20  C   UNL     1     110.368 133.139 136.225  0.00  0.00    +0.000 A 
ATOM     21  C   UNL     1     110.376 133.406 137.006  0.00  0.00    +0.000 A 
ENDBRANCH  12  16
BRANCH   5  22
ATOM     22  O   UNL     1     111.098 129.176 136.729  0.00  0.00    +0.000 OA
BRANCH  22  30
ATOM     23  O   UNL     1     110.707 128.907 138.077  0.00  0.00    +0.000 OA
ATOM     24  O   UNL     1     113.085 128.912 138.766  0.00  0.00    +0.000 OA
ATOM     25  O   UNL     1     112.682 129.180 137.189  0.00  0.00    +0.000 OA
ATOM     26  O   UNL     1     111.902 128.642 139.884  0.00  0.00    +0.000 OA
ATOM     27  C   UNL     1     112.292 128.911 138.537  0.00  0.00    +0.000 C 
ATOM     28  C   UNL     1     112.092 129.044 137.748  0.00  0.00    +0.000 C 
ATOM     29  C   UNL     1     111.702 128.775 139.096  0.00  0.00    +0.000 C 
ATOM     30  C   UNL     1     111.298 129.042 137.518  0.00  0.00    +0.000 C 
ATOM     31  C   UNL     1     110.908 128.773 138.866  0.00  0.00    +0.000 C 
BRANCH  31  34
ATOM     32  O   UNL     1     109.934 129.275 139.783  0.00  0.00    +0.000 OA
ATOM     33  O   UNL     1     110.109 127.865 139.626  0.00  0.00    +0.000 OA
ATOM     34  C   UNL     1     110.318 128.638 139.425  0.00  0.00    +0.000 C 
ENDBRANCH  31  34
ENDBRANCH  22  30
ENDBRANCH   5  22
BRANCH  13  35
ATOM     35  O   UNL     1     108.274 131.668 136.152  0.00  0.00    +0.000 OA
BRANCH  35  36
ATOM     36  S   UNL     1     107.471 131.549 136.004  0.00  0.00    +0.000 S 
ATOM     37  O   UNL     1     106.667 131.430 135.858  0.00  0.00    +0.000 OA
ATOM     38  O   UNL     1     107.331 131.486 136.815  0.00  0.00    +0.000 OA
ATOM     39  O   UNL     1     107.609 131.612 135.193  0.00  0.00    +0.000 OA
ENDBRANCH  35  36
ENDBRANCH  13  35
TORSDOF 6
ENDMDL
MODEL 5
REMARK VINA RESULT:      -9.5      4.211      6.824
REMARK  Name = 44260020
REMARK  6 active torsions:
REMARK  status: ('A' for Active; 'I' for Inactive)
REMARK    1  A    between atoms: S_1  and  O_12
REMARK    2  A    between atoms: O_3  and  C_22
REMARK    3  A    between atoms: O_3  and  C_25
REMARK    4  A    between atoms: O_12  and  C_33
REMARK    5  A    between atoms: C_23  and  C_24
REMARK    6  A    between atoms: C_32  and  C_34
REMARK                            x       y       z     vdW  Elec       q    Type
REMARK                         _______ _______ _______ _____ _____    ______ ____
ROOT
ATOM      1  O   UNL     1     112.725 125.984 138.424  0.00  0.00    +0.000 OA
ATOM      2  O   UNL     1     111.332 126.840 140.834  0.00  0.00    +0.000 OA
ATOM      3  O   UNL     1     109.839 125.892 138.510  0.00  0.00    +0.000 OA
ATOM      4  O   UNL     1     110.562 125.476 137.333  0.00  0.00    +0.000 OA
ATOM      5  C   UNL     1     112.048 126.415 139.634  0.00  0.00    +0.000 A 
ATOM      6  C   UNL     1     112.019 126.108 138.831  0.00  0.00    +0.000 A 
ATOM      7  C   UNL     1     111.299 125.939 138.468  0.00  0.00    +0.000 A 
ATOM      8  C   UNL     1     111.315 126.546 140.063  0.00  0.00    +0.000 A 
ATOM      9  C   UNL     1     110.556 126.064 138.882  0.00  0.00    +0.000 A 
ATOM     10  C   UNL     1     110.564 126.370 139.684  0.00  0.00    +0.000 A 
ATOM     11  C   UNL     1     111.284 125.645 137.696  0.00  0.00    +0.000 A 
ATOM     12  C   UNL     1     112.712 125.690 137.653  0.00  0.00    +0.000 A 
ATOM     13  C   UNL     1     111.990 125.521 137.290  0.00  0.00    +0.000 A 
ENDROOT
BRANCH  12  16
ATOM     14  O   UNL     1     114.802 126.666 135.966  0.00  0.00    +0.000 OA
ATOM     15  O   UNL     1     115.539 125.191 136.026  0.00  0.00    +0.000 OA
ATOM     16  C   UNL     1     113.418 125.566 137.246  0.00  0.00    +0.000 A 
ATOM     17  C   UNL     1     113.757 126.178 136.809  0.00  0.00    +0.000 A 
ATOM     18  C   UNL     1     113.787 124.827 137.276  0.00  0.00    +0.000 A 
ATOM     19  C   UNL     1     114.463 126.054 136.403  0.00  0.00    +0.000 A 
ATOM     20  C   UNL     1     114.493 124.703 136.869  0.00  0.00    +0.000 A 
ATOM     21  C   UNL     1     114.832 125.316 136.433  0.00  0.00    +0.000 A 
ENDBRANCH  12  16
BRANCH   5  22
ATOM     22  O   UNL     1     112.773 126.581 139.989  0.00  0.00    +0.000 OA
BRANCH  22  30
ATOM     23  O   UNL     1     112.665 127.947 139.581  0.00  0.00    +0.000 OA
ATOM     24  O   UNL     1     114.701 128.495 140.878  0.00  0.00    +0.000 OA
ATOM     25  O   UNL     1     114.130 126.947 140.854  0.00  0.00    +0.000 OA
ATOM     26  O   UNL     1     113.915 129.676 140.038  0.00  0.00    +0.000 OA
ATOM     27  C   UNL     1     114.022 128.312 140.446  0.00  0.00    +0.000 C 
ATOM     28  C   UNL     1     113.738 127.538 140.434  0.00  0.00    +0.000 C 
ATOM     29  C   UNL     1     113.630 128.903 140.026  0.00  0.00    +0.000 C 
ATOM     30  C   UNL     1     113.058 127.355 140.001  0.00  0.00    +0.000 C 
ATOM     31  C   UNL     1     112.950 128.720 139.593  0.00  0.00    +0.000 C 
BRANCH  31  34
ATOM     32  O   UNL     1     112.008 129.793 139.556  0.00  0.00    +0.000 OA
ATOM     33  O   UNL     1     112.714 129.421 138.371  0.00  0.00    +0.000 OA
ATOM     34  C   UNL     1     112.558 129.311 139.174  0.00  0.00    +0.000 C 
ENDBRANCH  31  34
ENDBRANCH  22  30
ENDBRANCH   5  22
BRANCH  13  35
ATOM     35  O   UNL     1     111.976 125.227 136.518  0.00  0.00    +0.000 OA
BRANCH  35  36
ATOM     36  S   UNL     1     111.266 125.206 136.099  0.00  0.00    +0.000 S 
ATOM     37  O   UNL     1     110.556 125.184 135.679  0.00  0.00    +0.000 OA
ATOM     38  O   UNL     1     111.175 124.410 136.293  0.00  0.00    +0.000 OA
ATOM     39  O   UNL     1     111.357 126.003 135.903  0.00  0.00    +0.000 OA
ENDBRANCH  35  36
ENDBRANCH  13  35
TORSDOF 6
ENDMDL
MODEL 6
REMARK VINA RESULT:      -9.4      2.849      6.047
REMARK  Name = 44260020
REMARK  6 active torsions:
REMARK  status: ('A' for Active; 'I' for Inactive)
REMARK    1  A    between atoms: S_1  and  O_12
REMARK    2  A    between atoms: O_3  and  C_22
REMARK    3  A    between atoms: O_3  and  C_25
REMARK    4  A    between atoms: O_12  and  C_33
REMARK    5  A    between atoms: C_23  and  C_24
REMARK    6  A    between atoms: C_32  and  C_34
REMARK                            x       y       z     vdW  Elec       q    Type
REMARK                         _______ _______ _______ _____ _____    ______ ____
ROOT
ATOM      1  O   UNL     1     112.758 127.760 136.808  0.00  0.00    +0.000 OA
ATOM      2  O   UNL     1     111.811 130.483 136.395  0.00  0.00    +0.000 OA
ATOM      3  O   UNL     1     110.113 128.201 135.731  0.00  0.00    +0.000 OA
ATOM      4  O   UNL     1     110.615 126.867 135.949  0.00  0.00    +0.000 OA
ATOM      5  C   UNL     1     112.302 129.125 136.608  0.00  0.00    +0.000 A 
ATOM      6  C   UNL     1     112.164 128.277 136.562  0.00  0.00    +0.000 A 
ATOM      7  C   UNL     1     111.451 127.980 136.276  0.00  0.00    +0.000 A 
ATOM      8  C   UNL     1     111.687 129.668 136.353  0.00  0.00    +0.000 A 
ATOM      9  C   UNL     1     110.824 128.508 136.016  0.00  0.00    +0.000 A 
ATOM     10  C   UNL     1     110.944 129.358 136.055  0.00  0.00    +0.000 A 
ATOM     11  C   UNL     1     111.330 127.164 136.235  0.00  0.00    +0.000 A 
ATOM     12  C   UNL     1     112.638 126.945 136.768  0.00  0.00    +0.000 A 
ATOM     13  C   UNL     1     111.923 126.647 136.482  0.00  0.00    +0.000 A 
ENDROOT
BRANCH  12  16
ATOM     14  O   UNL     1     114.993 125.430 136.201  0.00  0.00    +0.000 OA
ATOM     15  O   UNL     1     115.012 124.877 137.755  0.00  0.00    +0.000 OA
ATOM     16  C   UNL     1     113.231 126.428 137.014  0.00  0.00    +0.000 A 
ATOM     17  C   UNL     1     113.816 126.187 136.484  0.00  0.00    +0.000 A 
ATOM     18  C   UNL     1     113.240 126.151 137.793  0.00  0.00    +0.000 A 
ATOM     19  C   UNL     1     114.409 125.671 136.731  0.00  0.00    +0.000 A 
ATOM     20  C   UNL     1     113.834 125.635 138.039  0.00  0.00    +0.000 A 
ATOM     21  C   UNL     1     114.418 125.394 137.509  0.00  0.00    +0.000 A 
ENDBRANCH  12  16
BRANCH   5  22
ATOM     22  O   UNL     1     113.019 129.413 136.896  0.00  0.00    +0.000 OA
BRANCH  22  30
ATOM     23  O   UNL     1     112.485 129.511 138.218  0.00  0.00    +0.000 OA
ATOM     24  O   UNL     1     114.379 130.959 138.878  0.00  0.00    +0.000 OA
ATOM     25  O   UNL     1     114.283 130.379 137.336  0.00  0.00    +0.000 OA
ATOM     26  O   UNL     1     113.213 130.574 139.978  0.00  0.00    +0.000 OA
ATOM     27  C   UNL     1     113.748 130.477 138.658  0.00  0.00    +0.000 C 
ATOM     28  C   UNL     1     113.700 130.187 137.887  0.00  0.00    +0.000 C 
ATOM     29  C   UNL     1     113.165 130.284 139.208  0.00  0.00    +0.000 C 
ATOM     30  C   UNL     1     113.068 129.703 137.666  0.00  0.00    +0.000 C 
ATOM     31  C   UNL     1     112.533 129.800 138.988  0.00  0.00    +0.000 C 
BRANCH  31  34
ATOM     32  O   UNL     1     111.992 128.895 139.952  0.00  0.00    +0.000 OA
ATOM     33  O   UNL     1     111.325 130.128 139.676  0.00  0.00    +0.000 OA
ATOM     34  C   UNL     1     111.950 129.608 139.538  0.00  0.00    +0.000 C 
ENDBRANCH  31  34
ENDBRANCH  22  30
ENDBRANCH   5  22
BRANCH  13  35
ATOM     35  O   UNL     1     111.803 125.831 136.442  0.00  0.00    +0.000 OA
BRANCH  35  36
ATOM     36  S   UNL     1     111.132 125.532 136.067  0.00  0.00    +0.000 S 
ATOM     37  O   UNL     1     110.460 125.233 135.692  0.00  0.00    +0.000 OA
ATOM     38  O   UNL     1     110.748 125.479 136.795  0.00  0.00    +0.000 OA
ATOM     39  O   UNL     1     111.515 125.585 135.338  0.00  0.00    +0.000 OA
ENDBRANCH  35  36
ENDBRANCH  13  35
TORSDOF 6
ENDMDL
MODEL 7
REMARK VINA RESULT:      -9.4      7.287      9.060
REMARK  Name = 44260020
REMARK  6 active torsions:
REMARK  status: ('A' for Active; 'I' for Inactive)
REMARK    1  A    between atoms: S_1  and  O_12
REMARK    2  A    between atoms: O_3  and  C_22
REMARK    3  A    between atoms: O_3  and  C_25
REMARK    4  A    between atoms: O_12  and  C_33
REMARK    5  A    between atoms: C_23  and  C_24
REMARK    6  A    between atoms: C_32  and  C_34
REMARK                            x       y       z     vdW  Elec       q    Type
REMARK                         _______ _______ _______ _____ _____    ______ ____
ROOT
ATOM      1  O   UNL     1     103.378 130.298 142.327  0.00  0.00    +0.000 OA
ATOM      2  O   UNL     1     105.420 128.628 143.561  0.00  0.00    +0.000 OA
ATOM      3  O   UNL     1     104.247 127.889 140.991  0.00  0.00    +0.000 OA
ATOM      4  O   UNL     1     103.238 128.740 140.409  0.00  0.00    +0.000 OA
ATOM      5  C   UNL     1     104.397 129.477 142.957  0.00  0.00    +0.000 A 
ATOM      6  C   UNL     1     103.855 129.626 142.306  0.00  0.00    +0.000 A 
ATOM      7  C   UNL     1     103.809 129.106 141.668  0.00  0.00    +0.000 A 
ATOM      8  C   UNL     1     104.897 128.779 142.941  0.00  0.00    +0.000 A 
ATOM      9  C   UNL     1     104.301 128.403 141.634  0.00  0.00    +0.000 A 
ATOM     10  C   UNL     1     104.848 128.238 142.275  0.00  0.00    +0.000 A 
ATOM     11  C   UNL     1     103.284 129.259 141.048  0.00  0.00    +0.000 A 
ATOM     12  C   UNL     1     102.853 130.452 141.709  0.00  0.00    +0.000 A 
ATOM     13  C   UNL     1     102.807 129.932 141.070  0.00  0.00    +0.000 A 
ENDROOT
BRANCH  12  16
ATOM     14  O   UNL     1     102.489 133.245 141.228  0.00  0.00    +0.000 OA
ATOM     15  O   UNL     1     100.943 133.141 141.794  0.00  0.00    +0.000 OA
ATOM     16  C   UNL     1     102.376 131.124 141.730  0.00  0.00    +0.000 A 
ATOM     17  C   UNL     1     102.671 131.848 141.468  0.00  0.00    +0.000 A 
ATOM     18  C   UNL     1     101.602 131.071 142.014  0.00  0.00    +0.000 A 
ATOM     19  C   UNL     1     102.194 132.520 141.490  0.00  0.00    +0.000 A 
ATOM     20  C   UNL     1     101.125 131.744 142.035  0.00  0.00    +0.000 A 
ATOM     21  C   UNL     1     101.420 132.468 141.773  0.00  0.00    +0.000 A 
ENDBRANCH  12  16
BRANCH   5  22
ATOM     22  O   UNL     1     104.437 130.002 143.592  0.00  0.00    +0.000 OA
BRANCH  22  30
ATOM     23  O   UNL     1     105.549 130.659 142.981  0.00  0.00    +0.000 OA
ATOM     24  O   UNL     1     105.745 132.154 144.944  0.00  0.00    +0.000 OA
ATOM     25  O   UNL     1     104.568 130.999 144.901  0.00  0.00    +0.000 OA
ATOM     26  O   UNL     1     106.791 132.312 143.679  0.00  0.00    +0.000 OA
ATOM     27  C   UNL     1     105.680 131.656 144.290  0.00  0.00    +0.000 C 
ATOM     28  C   UNL     1     105.091 131.078 144.269  0.00  0.00    +0.000 C 
ATOM     29  C   UNL     1     106.203 131.735 143.657  0.00  0.00    +0.000 C 
ATOM     30  C   UNL     1     105.025 130.579 143.614  0.00  0.00    +0.000 C 
ATOM     31  C   UNL     1     106.137 131.236 143.002  0.00  0.00    +0.000 C 
BRANCH  31  34
ATOM     32  O   UNL     1     107.412 130.978 142.410  0.00  0.00    +0.000 OA
ATOM     33  O   UNL     1     106.432 131.734 141.696  0.00  0.00    +0.000 OA
ATOM     34  C   UNL     1     106.660 131.316 142.370  0.00  0.00    +0.000 C 
ENDBRANCH  31  34
ENDBRANCH  22  30
ENDBRANCH   5  22
BRANCH  13  35
ATOM     35  O   UNL     1     102.283 130.085 140.451  0.00  0.00    +0.000 OA
BRANCH  35  36
ATOM     36  S   UNL     1     102.392 129.721 139.719  0.00  0.00    +0.000 S 
ATOM     37  O   UNL     1     102.500 129.356 138.987  0.00  0.00    +0.000 OA
ATOM     38  O   UNL     1     101.812 129.166 139.909  0.00  0.00    +0.000 OA
ATOM     39  O   UNL     1     102.972 130.276 139.528  0.00  0.00    +0.000 OA
ENDBRANCH  35  36
ENDBRANCH  13  35
TORSDOF 6
ENDMDL
MODEL 8
REMARK VINA RESULT:      -9.4      2.911      4.384
REMARK  Name = 44260020
REMARK  6 active torsions:
REMARK  status: ('A' for Active; 'I' for Inactive)
REMARK    1  A    between atoms: S_1  and  O_12
REMARK    2  A    between atoms: O_3  and  C_22
REMARK    3  A    between atoms: O_3  and  C_25
REMARK    4  A    between atoms: O_12  and  C_33
REMARK    5  A    between atoms: C_23  and  C_24
REMARK    6  A    between atoms: C_32  and  C_34
REMARK                            x       y       z     vdW  Elec       q    Type
REMARK                         _______ _______ _______ _____ _____    ______ ____
ROOT
ATOM      1  O   UNL     1     112.189 127.989 137.814  0.00  0.00    +0.000 OA
ATOM      2  O   UNL     1     112.595 125.994 139.896  0.00  0.00    +0.000 OA
ATOM      3  O   UNL     1     113.817 128.638 140.111  0.00  0.00    +0.000 OA
ATOM      4  O   UNL     1     113.594 129.601 139.060  0.00  0.00    +0.000 OA
ATOM      5  C   UNL     1     112.381 126.982 138.843  0.00  0.00    +0.000 A 
ATOM      6  C   UNL     1     112.526 127.772 138.535  0.00  0.00    +0.000 A 
ATOM      7  C   UNL     1     112.994 128.308 138.950  0.00  0.00    +0.000 A 
ATOM      8  C   UNL     1     112.729 126.750 139.593  0.00  0.00    +0.000 A 
ATOM      9  C   UNL     1     113.350 128.094 139.702  0.00  0.00    +0.000 A 
ATOM     10  C   UNL     1     113.217 127.309 140.025  0.00  0.00    +0.000 A 
ATOM     11  C   UNL     1     113.126 129.064 138.644  0.00  0.00    +0.000 A 
ATOM     12  C   UNL     1     112.320 128.744 137.508  0.00  0.00    +0.000 A 
ATOM     13  C   UNL     1     112.789 129.281 137.924  0.00  0.00    +0.000 A 
ENDROOT
BRANCH  12  16
ATOM     14  O   UNL     1     112.434 128.852 134.655  0.00  0.00    +0.000 OA
ATOM     15  O   UNL     1     110.972 129.614 134.625  0.00  0.00    +0.000 OA
ATOM     16  C   UNL     1     111.984 128.962 136.787  0.00  0.00    +0.000 A 
ATOM     17  C   UNL     1     112.377 128.798 136.081  0.00  0.00    +0.000 A 
ATOM     18  C   UNL     1     111.251 129.343 136.773  0.00  0.00    +0.000 A 
ATOM     19  C   UNL     1     112.040 129.015 135.361  0.00  0.00    +0.000 A 
ATOM     20  C   UNL     1     110.915 129.560 136.052  0.00  0.00    +0.000 A 
ATOM     21  C   UNL     1     111.308 129.397 135.346  0.00  0.00    +0.000 A 
ENDBRANCH  12  16
BRANCH   5  22
ATOM     22  O   UNL     1     111.911 126.452 138.420  0.00  0.00    +0.000 OA
BRANCH  22  30
ATOM     23  O   UNL     1     113.068 125.889 137.799  0.00  0.00    +0.000 OA
ATOM     24  O   UNL     1     111.709 123.987 136.987  0.00  0.00    +0.000 OA
ATOM     25  O   UNL     1     111.004 125.184 137.879  0.00  0.00    +0.000 OA
ATOM     26  O   UNL     1     113.318 124.060 136.636  0.00  0.00    +0.000 OA
ATOM     27  C   UNL     1     112.162 124.621 137.257  0.00  0.00    +0.000 C 
ATOM     28  C   UNL     1     111.809 125.219 137.703  0.00  0.00    +0.000 C 
ATOM     29  C   UNL     1     112.967 124.657 137.082  0.00  0.00    +0.000 C 
ATOM     30  C   UNL     1     112.263 125.854 137.974  0.00  0.00    +0.000 C 
ATOM     31  C   UNL     1     113.420 125.292 137.353  0.00  0.00    +0.000 C 
BRANCH  31  34
ATOM     32  O   UNL     1     114.768 124.915 137.642  0.00  0.00    +0.000 OA
ATOM     33  O   UNL     1     114.488 125.777 136.537  0.00  0.00    +0.000 OA
ATOM     34  C   UNL     1     114.225 125.328 137.177  0.00  0.00    +0.000 C 
ENDBRANCH  31  34
ENDBRANCH  22  30
ENDBRANCH   5  22
BRANCH  13  35
ATOM     35  O   UNL     1     112.921 130.037 137.617  0.00  0.00    +0.000 OA
BRANCH  35  36
ATOM     36  S   UNL     1     113.527 130.505 137.923  0.00  0.00    +0.000 S 
ATOM     37  O   UNL     1     114.133 130.973 138.229  0.00  0.00    +0.000 OA
ATOM     38  O   UNL     1     112.980 130.910 138.389  0.00  0.00    +0.000 OA
ATOM     39  O   UNL     1     114.076 130.100 137.458  0.00  0.00    +0.000 OA
ENDBRANCH  35  36
ENDBRANCH  13  35
TORSDOF 6
ENDMDL
MODEL 9
REMARK VINA RESULT:      -9.4      2.916      4.746
REMARK  Name = 44260020
REMARK  6 active torsions:
REMARK  status: ('A' for Active; 'I' for Inactive)
REMARK    1  A    between atoms: S_1  and  O_12
REMARK    2  A    between atoms: O_3  and  C_22
REMARK    3  A    between atoms: O_3  and  C_25
REMARK    4  A    between atoms: O_12  and  C_33
REMARK    5  A    between atoms: C_23  and  C_24
REMARK    6  A    between atoms: C_32  and  C_34
REMARK                            x       y       z     vdW  Elec       q    Type
REMARK                         _______ _______ _______ _____ _____    ______ ____
ROOT
ATOM      1  O   UNL     1     112.885 128.023 137.381  0.00  0.00    +0.000 OA
ATOM      2  O   UNL     1     112.223 126.114 139.478  0.00  0.00    +0.000 OA
ATOM      3  O   UNL     1     110.385 128.282 138.806  0.00  0.00    +0.000 OA
ATOM      4  O   UNL     1     110.746 129.209 137.761  0.00  0.00    +0.000 OA
ATOM      5  C   UNL     1     112.571 127.062 138.423  0.00  0.00    +0.000 A 
ATOM      6  C   UNL     1     112.362 127.755 137.959  0.00  0.00    +0.000 A 
ATOM      7  C   UNL     1     111.649 128.150 138.086  0.00  0.00    +0.000 A 
ATOM      8  C   UNL     1     112.030 126.778 139.027  0.00  0.00    +0.000 A 
ATOM      9  C   UNL     1     111.096 127.880 138.686  0.00  0.00    +0.000 A 
ATOM     10  C   UNL     1     111.288 127.190 139.160  0.00  0.00    +0.000 A 
ATOM     11  C   UNL     1     111.459 128.814 137.634  0.00  0.00    +0.000 A 
ATOM     12  C   UNL     1     112.695 128.687 136.928  0.00  0.00    +0.000 A 
ATOM     13  C   UNL     1     111.982 129.082 137.056  0.00  0.00    +0.000 A 
ENDROOT
BRANCH  12  16
ATOM     14  O   UNL     1     114.967 130.249 136.176  0.00  0.00    +0.000 OA
ATOM     15  O   UNL     1     114.787 129.757 134.612  0.00  0.00    +0.000 OA
ATOM     16  C   UNL     1     113.218 128.954 136.350  0.00  0.00    +0.000 A 
ATOM     17  C   UNL     1     113.831 129.468 136.552  0.00  0.00    +0.000 A 
ATOM     18  C   UNL     1     113.128 128.708 135.566  0.00  0.00    +0.000 A 
ATOM     19  C   UNL     1     114.354 129.735 135.974  0.00  0.00    +0.000 A 
ATOM     20  C   UNL     1     113.651 128.976 134.988  0.00  0.00    +0.000 A 
ATOM     21  C   UNL     1     114.264 129.489 135.191  0.00  0.00    +0.000 A 
ENDBRANCH  12  16
BRANCH   5  22
ATOM     22  O   UNL     1     113.286 126.673 138.289  0.00  0.00    +0.000 OA
BRANCH  22  30
ATOM     23  O   UNL     1     112.637 125.759 137.403  0.00  0.00    +0.000 OA
ATOM     24  O   UNL     1     114.677 124.357 137.356  0.00  0.00    +0.000 OA
ATOM     25  O   UNL     1     114.646 125.739 138.258  0.00  0.00    +0.000 OA
ATOM     26  O   UNL     1     113.349 123.911 136.486  0.00  0.00    +0.000 OA
ATOM     27  C   UNL     1     113.997 124.824 137.372  0.00  0.00    +0.000 C 
ATOM     28  C   UNL     1     113.982 125.515 137.823  0.00  0.00    +0.000 C 
ATOM     29  C   UNL     1     113.333 124.601 136.937  0.00  0.00    +0.000 C 
ATOM     30  C   UNL     1     113.301 125.983 137.839  0.00  0.00    +0.000 C 
ATOM     31  C   UNL     1     112.653 125.069 136.953  0.00  0.00    +0.000 C 
BRANCH  31  34
ATOM     32  O   UNL     1     111.478 124.268 136.811  0.00  0.00    +0.000 OA
ATOM     33  O   UNL     1     111.836 125.199 135.788  0.00  0.00    +0.000 OA
ATOM     34  C   UNL     1     111.989 124.845 136.518  0.00  0.00    +0.000 C 
ENDBRANCH  31  34
ENDBRANCH  22  30
ENDBRANCH   5  22
BRANCH  13  35
ATOM     35  O   UNL     1     111.793 129.746 136.603  0.00  0.00    +0.000 OA
BRANCH  35  36
ATOM     36  S   UNL     1     111.195 130.257 136.853  0.00  0.00    +0.000 S 
ATOM     37  O   UNL     1     110.597 130.768 137.102  0.00  0.00    +0.000 OA
ATOM     38  O   UNL     1     110.670 129.900 136.326  0.00  0.00    +0.000 OA
ATOM     39  O   UNL     1     111.720 130.614 137.380  0.00  0.00    +0.000 OA
ENDBRANCH  35  36
ENDBRANCH  13  35
TORSDOF 6
ENDMDL
MODEL 10
REMARK VINA RESULT:      -9.3      2.938      6.075
REMARK  Name = 44260020
REMARK  6 active torsions:
REMARK  status: ('A' for Active; 'I' for Inactive)
REMARK    1  A    between atoms: S_1  and  O_12
REMARK    2  A    between atoms: O_3  and  C_22
REMARK    3  A    between atoms: O_3  and  C_25
REMARK    4  A    between atoms: O_12  and  C_33
REMARK    5  A    between atoms: C_23  and  C_24
REMARK    6  A    between atoms: C_32  and  C_34
REMARK                            x       y       z     vdW  Elec       q    Type
REMARK                         _______ _______ _______ _____ _____    ______ ____
ROOT
ATOM      1  O   UNL     1     112.471 127.297 136.930  0.00  0.00    +0.000 OA
ATOM      2  O   UNL     1     111.219 129.730 135.933  0.00  0.00    +0.000 OA
ATOM      3  O   UNL     1     109.904 128.111 137.977  0.00  0.00    +0.000 OA
ATOM      4  O   UNL     1     110.553 126.912 138.447  0.00  0.00    +0.000 OA
ATOM      5  C   UNL     1     111.861 128.513 136.421  0.00  0.00    +0.000 A 
ATOM      6  C   UNL     1     111.840 127.828 136.941  0.00  0.00    +0.000 A 
ATOM      7  C   UNL     1     111.202 127.701 137.446  0.00  0.00    +0.000 A 
ATOM      8  C   UNL     1     111.207 129.070 136.429  0.00  0.00    +0.000 A 
ATOM      9  C   UNL     1     110.539 128.247 137.468  0.00  0.00    +0.000 A 
ATOM     10  C   UNL     1     110.542 128.936 136.955  0.00  0.00    +0.000 A 
ATOM     11  C   UNL     1     111.193 127.040 137.942  0.00  0.00    +0.000 A 
ATOM     12  C   UNL     1     112.462 126.636 137.425  0.00  0.00    +0.000 A 
ATOM     13  C   UNL     1     111.823 126.508 137.930  0.00  0.00    +0.000 A 
ENDROOT
BRANCH  12  16
ATOM     14  O   UNL     1     113.789 124.393 136.251  0.00  0.00    +0.000 OA
ATOM     15  O   UNL     1     114.986 124.510 137.380  0.00  0.00    +0.000 OA
ATOM     16  C   UNL     1     113.093 126.105 137.413  0.00  0.00    +0.000 A 
ATOM     17  C   UNL     1     113.126 125.514 136.838  0.00  0.00    +0.000 A 
ATOM     18  C   UNL     1     113.692 126.163 137.979  0.00  0.00    +0.000 A 
ATOM     19  C   UNL     1     113.756 124.984 136.827  0.00  0.00    +0.000 A 
ATOM     20  C   UNL     1     114.323 125.632 137.967  0.00  0.00    +0.000 A 
ATOM     21  C   UNL     1     114.355 125.042 137.391  0.00  0.00    +0.000 A 
ENDBRANCH  12  16
BRANCH   5  22
ATOM     22  O   UNL     1     112.504 128.633 135.919  0.00  0.00    +0.000 OA
BRANCH  22  30
ATOM     23  O   UNL     1     113.096 129.512 136.878  0.00  0.00    +0.000 OA
ATOM     24  O   UNL     1     114.875 130.085 135.255  0.00  0.00    +0.000 OA
ATOM     25  O   UNL     1     113.690 129.015 134.837  0.00  0.00    +0.000 OA
ATOM     26  O   UNL     1     114.873 130.772 136.754  0.00  0.00    +0.000 OA
ATOM     27  C   UNL     1     114.282 129.894 135.796  0.00  0.00    +0.000 C 
ATOM     28  C   UNL     1     113.690 129.359 135.586  0.00  0.00    +0.000 C 
ATOM     29  C   UNL     1     114.281 130.238 136.545  0.00  0.00    +0.000 C 
ATOM     30  C   UNL     1     113.096 129.168 136.128  0.00  0.00    +0.000 C 
ATOM     31  C   UNL     1     113.688 130.047 137.086  0.00  0.00    +0.000 C 
BRANCH  31  34
ATOM     32  O   UNL     1     114.013 129.986 138.476  0.00  0.00    +0.000 OA
ATOM     33  O   UNL     1     113.360 131.140 137.945  0.00  0.00    +0.000 OA
ATOM     34  C   UNL     1     113.687 130.391 137.836  0.00  0.00    +0.000 C 
ENDBRANCH  31  34
ENDBRANCH  22  30
ENDBRANCH   5  22
BRANCH  13  35
ATOM     35  O   UNL     1     111.815 125.847 138.425  0.00  0.00    +0.000 OA
BRANCH  35  36
ATOM     36  S   UNL     1     111.110 125.607 138.779  0.00  0.00    +0.000 S 
ATOM     37  O   UNL     1     110.405 125.367 139.134  0.00  0.00    +0.000 OA
ATOM     38  O   UNL     1     111.344 125.960 139.486  0.00  0.00    +0.000 OA
ATOM     39  O   UNL     1     110.874 125.253 138.072  0.00  0.00    +0.000 OA
ENDBRANCH  35  36
ENDBRANCH  13  35
TORSDOF 6
ENDMDL
