MODEL 1
REMARK VINA RESULT:     -10.0      0.000      0.000
REMARK  Name = 5317290
REMARK  5 active torsions:
REMARK  status: ('A' for Active; 'I' for Inactive)
REMARK    1  A    between atoms: O_2  and  C_17
REMARK    2  A    between atoms: O_2  and  C_19
REMARK    3  A    between atoms: O_9  and  C_27
REMARK    4  A    between atoms: O_10  and  C_28
REMARK    5  A    between atoms: C_20  and  C_24
REMARK                            x       y       z     vdW  Elec       q    Type
REMARK                         _______ _______ _______ _____ _____    ______ ____
ROOT
ATOM      1  O   UNL     1     103.732 125.706 147.492  0.00  0.00    +0.000 OA
ATOM      2  O   UNL     1     105.718 124.584 146.531  0.00  0.00    +0.000 OA
ATOM      3  O   UNL     1     104.901 123.505 146.030  0.00  0.00    +0.000 OA
ATOM      4  C   UNL     1     105.141 125.673 147.254  0.00  0.00    +0.000 A 
ATOM      5  C   UNL     1     104.479 126.047 147.574  0.00  0.00    +0.000 A 
ATOM      6  C   UNL     1     105.056 124.958 146.851  0.00  0.00    +0.000 A 
ATOM      7  C   UNL     1     104.309 124.617 146.769  0.00  0.00    +0.000 A 
ATOM      8  C   UNL     1     103.647 124.991 147.090  0.00  0.00    +0.000 A 
ATOM      9  C   UNL     1     104.233 123.872 146.347  0.00  0.00    +0.000 A 
ATOM     10  C   UNL     1     102.865 124.646 147.010  0.00  0.00    +0.000 A 
ATOM     11  C   UNL     1     103.459 123.512 146.258  0.00  0.00    +0.000 A 
ATOM     12  C   UNL     1     102.769 123.902 146.592  0.00  0.00    +0.000 A 
ENDROOT
BRANCH   5  15
ATOM     13  O   UNL     1     104.917 128.871 147.538  0.00  0.00    +0.000 OA
ATOM     14  O   UNL     1     104.820 128.907 149.185  0.00  0.00    +0.000 OA
ATOM     15  C   UNL     1     104.564 126.762 147.978  0.00  0.00    +0.000 A 
ATOM     16  C   UNL     1     104.698 127.459 147.556  0.00  0.00    +0.000 A 
ATOM     17  C   UNL     1     104.515 126.780 148.801  0.00  0.00    +0.000 A 
ATOM     18  C   UNL     1     104.783 128.174 147.960  0.00  0.00    +0.000 A 
ATOM     19  C   UNL     1     104.600 127.495 149.203  0.00  0.00    +0.000 A 
ATOM     20  C   UNL     1     104.734 128.192 148.783  0.00  0.00    +0.000 A 
ENDBRANCH   5  15
BRANCH  11  21
ATOM     21  O   UNL     1     103.376 122.797 145.855  0.00  0.00    +0.000 OA
ATOM     22  C   UNL     1     103.560 122.753 145.051  0.00  0.00    +0.000 C 
ENDBRANCH  11  21
BRANCH  12  23
ATOM     23  O   UNL     1     102.021 123.563 146.511  0.00  0.00    +0.000 OA
ATOM     24  C   UNL     1     101.348 123.995 146.714  0.00  0.00    +0.000 C 
ENDBRANCH  12  23
BRANCH   4  25
ATOM     25  O   UNL     1     105.888 126.014 147.336  0.00  0.00    +0.000 OA
BRANCH  25  34
ATOM     26  O   UNL     1     106.315 125.130 148.374  0.00  0.00    +0.000 OA
ATOM     27  O   UNL     1     108.646 125.300 147.560  0.00  0.00    +0.000 OA
ATOM     28  O   UNL     1     108.296 124.359 148.869  0.00  0.00    +0.000 OA
ATOM     29  O   UNL     1     107.442 126.128 146.793  0.00  0.00    +0.000 OA
ATOM     30  C   UNL     1     107.869 125.243 147.831  0.00  0.00    +0.000 C 
ATOM     31  C   UNL     1     107.694 124.773 148.486  0.00  0.00    +0.000 C 
ATOM     32  C   UNL     1     107.266 125.657 147.449  0.00  0.00    +0.000 C 
ATOM     33  C   UNL     1     106.917 124.716 148.757  0.00  0.00    +0.000 C 
ATOM     34  C   UNL     1     106.490 125.600 147.720  0.00  0.00    +0.000 C 
ATOM     35  C   UNL     1     106.743 124.245 149.412  0.00  0.00    +0.000 C 
ENDBRANCH  25  34
ENDBRANCH   4  25
TORSDOF 5
ENDMDL
MODEL 2
REMARK VINA RESULT:      -9.6     11.404     13.408
REMARK  Name = 5317290
REMARK  5 active torsions:
REMARK  status: ('A' for Active; 'I' for Inactive)
REMARK    1  A    between atoms: O_2  and  C_17
REMARK    2  A    between atoms: O_2  and  C_19
REMARK    3  A    between atoms: O_9  and  C_27
REMARK    4  A    between atoms: O_10  and  C_28
REMARK    5  A    between atoms: C_20  and  C_24
REMARK                            x       y       z     vdW  Elec       q    Type
REMARK                         _______ _______ _______ _____ _____    ______ ____
ROOT
ATOM      1  O   UNL     1     113.544 127.230 136.548  0.00  0.00    +0.000 OA
ATOM      2  O   UNL     1     112.213 128.246 138.371  0.00  0.00    +0.000 OA
ATOM      3  O   UNL     1     112.491 129.571 137.873  0.00  0.00    +0.000 OA
ATOM      4  C   UNL     1     112.733 127.087 137.716  0.00  0.00    +0.000 A 
ATOM      5  C   UNL     1     113.177 126.749 137.109  0.00  0.00    +0.000 A 
ATOM      6  C   UNL     1     112.656 127.908 137.763  0.00  0.00    +0.000 A 
ATOM      7  C   UNL     1     113.024 128.389 137.203  0.00  0.00    +0.000 A 
ATOM      8  C   UNL     1     113.467 128.049 136.595  0.00  0.00    +0.000 A 
ATOM      9  C   UNL     1     112.937 129.241 137.262  0.00  0.00    +0.000 A 
ATOM     10  C   UNL     1     113.854 128.540 136.006  0.00  0.00    +0.000 A 
ATOM     11  C   UNL     1     113.316 129.748 136.682  0.00  0.00    +0.000 A 
ATOM     12  C   UNL     1     113.779 129.395 136.049  0.00  0.00    +0.000 A 
ENDROOT
BRANCH   5  15
ATOM     13  O   UNL     1     114.749 124.386 137.448  0.00  0.00    +0.000 OA
ATOM     14  O   UNL     1     113.483 123.468 136.922  0.00  0.00    +0.000 OA
ATOM     15  C   UNL     1     113.253 125.928 137.062  0.00  0.00    +0.000 A 
ATOM     16  C   UNL     1     113.963 125.567 137.278  0.00  0.00    +0.000 A 
ATOM     17  C   UNL     1     112.620 125.469 136.799  0.00  0.00    +0.000 A 
ATOM     18  C   UNL     1     114.039 124.746 137.232  0.00  0.00    +0.000 A 
ATOM     19  C   UNL     1     112.697 124.649 136.753  0.00  0.00    +0.000 A 
ATOM     20  C   UNL     1     113.406 124.287 136.969  0.00  0.00    +0.000 A 
ENDBRANCH   5  15
BRANCH  11  21
ATOM     21  O   UNL     1     113.238 130.568 136.731  0.00  0.00    +0.000 OA
ATOM     22  C   UNL     1     113.714 130.997 137.250  0.00  0.00    +0.000 C 
ENDBRANCH  11  21
BRANCH  12  23
ATOM     23  O   UNL     1     114.147 129.874 135.487  0.00  0.00    +0.000 OA
ATOM     24  C   UNL     1     114.464 129.538 134.803  0.00  0.00    +0.000 C 
ENDBRANCH  12  23
BRANCH   4  25
ATOM     25  O   UNL     1     112.366 126.605 138.277  0.00  0.00    +0.000 OA
BRANCH  25  34
ATOM     26  O   UNL     1     113.320 126.905 139.298  0.00  0.00    +0.000 OA
ATOM     27  O   UNL     1     111.603 126.474 141.028  0.00  0.00    +0.000 OA
ATOM     28  O   UNL     1     113.129 126.917 141.472  0.00  0.00    +0.000 OA
ATOM     29  O   UNL     1     111.221 126.318 139.430  0.00  0.00    +0.000 OA
ATOM     30  C   UNL     1     112.175 126.618 140.451  0.00  0.00    +0.000 C 
ATOM     31  C   UNL     1     112.938 126.839 140.673  0.00  0.00    +0.000 C 
ATOM     32  C   UNL     1     111.985 126.540 139.653  0.00  0.00    +0.000 C 
ATOM     33  C   UNL     1     113.511 126.982 140.096  0.00  0.00    +0.000 C 
ATOM     34  C   UNL     1     112.557 126.683 139.076  0.00  0.00    +0.000 C 
ATOM     35  C   UNL     1     114.274 127.204 140.319  0.00  0.00    +0.000 C 
ENDBRANCH  25  34
ENDBRANCH   4  25
TORSDOF 5
ENDMDL
MODEL 3
REMARK VINA RESULT:      -9.4     12.276     13.818
REMARK  Name = 5317290
REMARK  5 active torsions:
REMARK  status: ('A' for Active; 'I' for Inactive)
REMARK    1  A    between atoms: O_2  and  C_17
REMARK    2  A    between atoms: O_2  and  C_19
REMARK    3  A    between atoms: O_9  and  C_27
REMARK    4  A    between atoms: O_10  and  C_28
REMARK    5  A    between atoms: C_20  and  C_24
REMARK                            x       y       z     vdW  Elec       q    Type
REMARK                         _______ _______ _______ _____ _____    ______ ____
ROOT
ATOM      1  O   UNL     1     113.555 127.329 136.614  0.00  0.00    +0.000 OA
ATOM      2  O   UNL     1     111.320 126.866 135.656  0.00  0.00    +0.000 OA
ATOM      3  O   UNL     1     111.463 125.457 135.930  0.00  0.00    +0.000 OA
ATOM      4  C   UNL     1     112.354 127.793 135.994  0.00  0.00    +0.000 A 
ATOM      5  C   UNL     1     113.098 127.947 136.313  0.00  0.00    +0.000 A 
ATOM      6  C   UNL     1     112.065 127.020 135.975  0.00  0.00    +0.000 A 
ATOM      7  C   UNL     1     112.521 126.402 136.276  0.00  0.00    +0.000 A 
ATOM      8  C   UNL     1     113.266 126.557 136.595  0.00  0.00    +0.000 A 
ATOM      9  C   UNL     1     112.209 125.602 136.251  0.00  0.00    +0.000 A 
ATOM     10  C   UNL     1     113.750 125.922 136.911  0.00  0.00    +0.000 A 
ATOM     11  C   UNL     1     112.679 124.954 136.562  0.00  0.00    +0.000 A 
ATOM     12  C   UNL     1     113.455 125.114 136.895  0.00  0.00    +0.000 A 
ENDROOT
BRANCH   5  15
ATOM     13  O   UNL     1     113.700 130.330 137.771  0.00  0.00    +0.000 OA
ATOM     14  O   UNL     1     114.253 131.038 136.387  0.00  0.00    +0.000 OA
ATOM     15  C   UNL     1     113.387 128.720 136.331  0.00  0.00    +0.000 A 
ATOM     16  C   UNL     1     113.399 129.139 137.042  0.00  0.00    +0.000 A 
ATOM     17  C   UNL     1     113.664 129.074 135.639  0.00  0.00    +0.000 A 
ATOM     18  C   UNL     1     113.688 129.912 137.061  0.00  0.00    +0.000 A 
ATOM     19  C   UNL     1     113.953 129.846 135.658  0.00  0.00    +0.000 A 
ATOM     20  C   UNL     1     113.965 130.266 136.369  0.00  0.00    +0.000 A 
ENDBRANCH   5  15
BRANCH  11  21
ATOM     21  O   UNL     1     112.388 124.182 136.543  0.00  0.00    +0.000 OA
ATOM     22  C   UNL     1     111.854 123.928 137.118  0.00  0.00    +0.000 C 
ENDBRANCH  11  21
BRANCH  12  23
ATOM     23  O   UNL     1     113.913 124.498 137.196  0.00  0.00    +0.000 OA
ATOM     24  C   UNL     1     114.705 124.628 137.388  0.00  0.00    +0.000 C 
ENDBRANCH  12  23
BRANCH   4  25
ATOM     25  O   UNL     1     111.898 128.412 135.693  0.00  0.00    +0.000 OA
BRANCH  25  34
ATOM     26  O   UNL     1     111.005 128.444 136.809  0.00  0.00    +0.000 OA
ATOM     27  O   UNL     1     109.187 129.243 135.332  0.00  0.00    +0.000 OA
ATOM     28  O   UNL     1     108.901 129.009 136.940  0.00  0.00    +0.000 OA
ATOM     29  O   UNL     1     110.685 128.944 134.708  0.00  0.00    +0.000 OA
ATOM     30  C   UNL     1     109.793 128.977 135.824  0.00  0.00    +0.000 C 
ATOM     31  C   UNL     1     109.651 128.860 136.628  0.00  0.00    +0.000 C 
ATOM     32  C   UNL     1     110.542 128.827 135.513  0.00  0.00    +0.000 C 
ATOM     33  C   UNL     1     110.257 128.593 137.120  0.00  0.00    +0.000 C 
ATOM     34  C   UNL     1     111.149 128.561 136.005  0.00  0.00    +0.000 C 
ATOM     35  C   UNL     1     110.113 128.476 137.924  0.00  0.00    +0.000 C 
ENDBRANCH  25  34
ENDBRANCH   4  25
TORSDOF 5
ENDMDL
MODEL 4
REMARK VINA RESULT:      -9.4     10.968     12.820
REMARK  Name = 5317290
REMARK  5 active torsions:
REMARK  status: ('A' for Active; 'I' for Inactive)
REMARK    1  A    between atoms: O_2  and  C_17
REMARK    2  A    between atoms: O_2  and  C_19
REMARK    3  A    between atoms: O_9  and  C_27
REMARK    4  A    between atoms: O_10  and  C_28
REMARK    5  A    between atoms: C_20  and  C_24
REMARK                            x       y       z     vdW  Elec       q    Type
REMARK                         _______ _______ _______ _____ _____    ______ ____
ROOT
ATOM      1  O   UNL     1     112.857 126.085 138.610  0.00  0.00    +0.000 OA
ATOM      2  O   UNL     1     110.556 125.675 137.797  0.00  0.00    +0.000 OA
ATOM      3  O   UNL     1     110.001 126.144 139.044  0.00  0.00    +0.000 OA
ATOM      4  C   UNL     1     111.968 125.645 137.581  0.00  0.00    +0.000 A 
ATOM      5  C   UNL     1     112.735 125.782 137.852  0.00  0.00    +0.000 A 
ATOM      6  C   UNL     1     111.323 125.811 138.068  0.00  0.00    +0.000 A 
ATOM      7  C   UNL     1     111.445 126.115 138.826  0.00  0.00    +0.000 A 
ATOM      8  C   UNL     1     112.212 126.251 139.096  0.00  0.00    +0.000 A 
ATOM      9  C   UNL     1     110.766 126.284 139.323  0.00  0.00    +0.000 A 
ATOM     10  C   UNL     1     112.353 126.566 139.883  0.00  0.00    +0.000 A 
ATOM     11  C   UNL     1     110.886 126.600 140.113  0.00  0.00    +0.000 A 
ATOM     12  C   UNL     1     111.685 126.742 140.395  0.00  0.00    +0.000 A 
ENDROOT
BRANCH   5  15
ATOM     13  O   UNL     1     114.821 126.676 136.116  0.00  0.00    +0.000 OA
ATOM     14  O   UNL     1     115.315 125.116 135.905  0.00  0.00    +0.000 OA
ATOM     15  C   UNL     1     113.380 125.615 137.365  0.00  0.00    +0.000 A 
ATOM     16  C   UNL     1     113.778 126.229 136.984  0.00  0.00    +0.000 A 
ATOM     17  C   UNL     1     113.627 124.835 137.260  0.00  0.00    +0.000 A 
ATOM     18  C   UNL     1     114.424 126.062 136.497  0.00  0.00    +0.000 A 
ATOM     19  C   UNL     1     114.272 124.669 136.773  0.00  0.00    +0.000 A 
ATOM     20  C   UNL     1     114.670 125.282 136.392  0.00  0.00    +0.000 A 
ENDBRANCH   5  15
BRANCH  11  21
ATOM     21  O   UNL     1     110.239 126.765 140.597  0.00  0.00    +0.000 OA
ATOM     22  C   UNL     1     109.861 126.155 141.004  0.00  0.00    +0.000 C 
ENDBRANCH  11  21
BRANCH  12  23
ATOM     23  O   UNL     1     111.810 127.045 141.152  0.00  0.00    +0.000 OA
ATOM     24  C   UNL     1     112.541 127.373 141.350  0.00  0.00    +0.000 C 
ENDBRANCH  12  23
BRANCH   4  25
ATOM     25  O   UNL     1     111.846 125.342 136.824  0.00  0.00    +0.000 OA
BRANCH  25  34
ATOM     26  O   UNL     1     111.438 126.596 136.273  0.00  0.00    +0.000 OA
ATOM     27  O   UNL     1     110.024 125.412 134.623  0.00  0.00    +0.000 OA
ATOM     28  O   UNL     1     110.087 127.061 134.623  0.00  0.00    +0.000 OA
ATOM     29  O   UNL     1     110.903 124.552 135.723  0.00  0.00    +0.000 OA
ATOM     30  C   UNL     1     110.495 125.807 135.173  0.00  0.00    +0.000 C 
ATOM     31  C   UNL     1     110.527 126.631 135.174  0.00  0.00    +0.000 C 
ATOM     32  C   UNL     1     110.935 125.377 135.723  0.00  0.00    +0.000 C 
ATOM     33  C   UNL     1     110.999 127.025 135.724  0.00  0.00    +0.000 C 
ATOM     34  C   UNL     1     111.406 125.772 136.274  0.00  0.00    +0.000 C 
ATOM     35  C   UNL     1     111.030 127.850 135.723  0.00  0.00    +0.000 C 
ENDBRANCH  25  34
ENDBRANCH   4  25
TORSDOF 5
ENDMDL
MODEL 5
REMARK VINA RESULT:      -9.3     12.143     13.560
REMARK  Name = 5317290
REMARK  5 active torsions:
REMARK  status: ('A' for Active; 'I' for Inactive)
REMARK    1  A    between atoms: O_2  and  C_17
REMARK    2  A    between atoms: O_2  and  C_19
REMARK    3  A    between atoms: O_9  and  C_27
REMARK    4  A    between atoms: O_10  and  C_28
REMARK    5  A    between atoms: C_20  and  C_24
REMARK                            x       y       z     vdW  Elec       q    Type
REMARK                         _______ _______ _______ _____ _____    ______ ____
ROOT
ATOM      1  O   UNL     1     111.362 126.380 136.221  0.00  0.00    +0.000 OA
ATOM      2  O   UNL     1     113.529 127.574 136.175  0.00  0.00    +0.000 OA
ATOM      3  O   UNL     1     114.238 126.357 136.492  0.00  0.00    +0.000 OA
ATOM      4  C   UNL     1     112.106 127.586 136.041  0.00  0.00    +0.000 A 
ATOM      5  C   UNL     1     111.384 127.188 136.056  0.00  0.00    +0.000 A 
ATOM      6  C   UNL     1     112.807 127.175 136.191  0.00  0.00    +0.000 A 
ATOM      7  C   UNL     1     112.784 126.367 136.355  0.00  0.00    +0.000 A 
ATOM      8  C   UNL     1     112.061 125.970 136.370  0.00  0.00    +0.000 A 
ATOM      9  C   UNL     1     113.519 125.951 136.509  0.00  0.00    +0.000 A 
ATOM     10  C   UNL     1     112.024 125.129 136.541  0.00  0.00    +0.000 A 
ATOM     11  C   UNL     1     113.502 125.110 136.682  0.00  0.00    +0.000 A 
ATOM     12  C   UNL     1     112.750 124.695 136.697  0.00  0.00    +0.000 A 
ENDROOT
BRANCH   5  15
ATOM     13  O   UNL     1     108.960 128.373 136.998  0.00  0.00    +0.000 OA
ATOM     14  O   UNL     1     108.585 128.830 135.458  0.00  0.00    +0.000 OA
ATOM     15  C   UNL     1     110.684 127.599 135.906  0.00  0.00    +0.000 A 
ATOM     16  C   UNL     1     110.172 127.780 136.527  0.00  0.00    +0.000 A 
ATOM     17  C   UNL     1     110.496 127.828 135.136  0.00  0.00    +0.000 A 
ATOM     18  C   UNL     1     109.472 128.191 136.377  0.00  0.00    +0.000 A 
ATOM     19  C   UNL     1     109.797 128.238 134.987  0.00  0.00    +0.000 A 
ATOM     20  C   UNL     1     109.284 128.420 135.607  0.00  0.00    +0.000 A 
ENDBRANCH   5  15
BRANCH  11  21
ATOM     21  O   UNL     1     114.204 124.702 136.831  0.00  0.00    +0.000 OA
ATOM     22  C   UNL     1     114.585 124.789 137.557  0.00  0.00    +0.000 C 
ENDBRANCH  11  21
BRANCH  12  23
ATOM     23  O   UNL     1     112.724 123.887 136.862  0.00  0.00    +0.000 OA
ATOM     24  C   UNL     1     112.002 123.489 136.862  0.00  0.00    +0.000 C 
ENDBRANCH  12  23
BRANCH   4  25
ATOM     25  O   UNL     1     112.129 128.394 135.876  0.00  0.00    +0.000 OA
BRANCH  25  34
ATOM     26  O   UNL     1     112.360 128.775 137.234  0.00  0.00    +0.000 OA
ATOM     27  O   UNL     1     113.592 130.778 136.463  0.00  0.00    +0.000 OA
ATOM     28  O   UNL     1     113.412 130.491 138.078  0.00  0.00    +0.000 OA
ATOM     29  O   UNL     1     112.951 129.730 135.362  0.00  0.00    +0.000 OA
ATOM     30  C   UNL     1     113.181 130.110 136.720  0.00  0.00    +0.000 C 
ATOM     31  C   UNL     1     113.091 129.967 137.527  0.00  0.00    +0.000 C 
ATOM     32  C   UNL     1     112.861 129.586 136.170  0.00  0.00    +0.000 C 
ATOM     33  C   UNL     1     112.680 129.299 137.784  0.00  0.00    +0.000 C 
ATOM     34  C   UNL     1     112.450 128.918 136.427  0.00  0.00    +0.000 C 
ATOM     35  C   UNL     1     112.590 129.156 138.592  0.00  0.00    +0.000 C 
ENDBRANCH  25  34
ENDBRANCH   4  25
TORSDOF 5
ENDMDL
MODEL 6
REMARK VINA RESULT:      -9.2      0.950      3.642
REMARK  Name = 5317290
REMARK  5 active torsions:
REMARK  status: ('A' for Active; 'I' for Inactive)
REMARK    1  A    between atoms: O_2  and  C_17
REMARK    2  A    between atoms: O_2  and  C_19
REMARK    3  A    between atoms: O_9  and  C_27
REMARK    4  A    between atoms: O_10  and  C_28
REMARK    5  A    between atoms: C_20  and  C_24
REMARK                            x       y       z     vdW  Elec       q    Type
REMARK                         _______ _______ _______ _____ _____    ______ ____
ROOT
ATOM      1  O   UNL     1     103.823 125.996 147.455  0.00  0.00    +0.000 OA
ATOM      2  O   UNL     1     106.090 126.893 147.881  0.00  0.00    +0.000 OA
ATOM      3  O   UNL     1     105.542 128.012 148.607  0.00  0.00    +0.000 OA
ATOM      4  C   UNL     1     105.241 125.895 147.311  0.00  0.00    +0.000 A 
ATOM      5  C   UNL     1     104.485 125.596 147.169  0.00  0.00    +0.000 A 
ATOM      6  C   UNL     1     105.334 126.594 147.739  0.00  0.00    +0.000 A 
ATOM      7  C   UNL     1     104.672 126.994 148.026  0.00  0.00    +0.000 A 
ATOM      8  C   UNL     1     103.916 126.695 147.883  0.00  0.00    +0.000 A 
ATOM      9  C   UNL     1     104.782 127.720 148.470  0.00  0.00    +0.000 A 
ATOM     10  C   UNL     1     103.219 127.102 148.176  0.00  0.00    +0.000 A 
ATOM     11  C   UNL     1     104.096 128.142 148.771  0.00  0.00    +0.000 A 
ATOM     12  C   UNL     1     103.309 127.831 148.623  0.00  0.00    +0.000 A 
ENDROOT
BRANCH   5  15
ATOM     13  O   UNL     1     104.606 124.177 144.691  0.00  0.00    +0.000 OA
ATOM     14  O   UNL     1     104.112 122.801 145.455  0.00  0.00    +0.000 OA
ATOM     15  C   UNL     1     104.392 124.897 146.740  0.00  0.00    +0.000 A 
ATOM     16  C   UNL     1     104.546 124.887 145.930  0.00  0.00    +0.000 A 
ATOM     17  C   UNL     1     104.145 124.208 147.122  0.00  0.00    +0.000 A 
ATOM     18  C   UNL     1     104.452 124.187 145.501  0.00  0.00    +0.000 A 
ATOM     19  C   UNL     1     104.052 123.510 146.694  0.00  0.00    +0.000 A 
ATOM     20  C   UNL     1     104.205 123.499 145.883  0.00  0.00    +0.000 A 
ENDBRANCH   5  15
BRANCH  11  21
ATOM     21  O   UNL     1     104.193 128.841 149.199  0.00  0.00    +0.000 OA
ATOM     22  C   UNL     1     104.336 129.550 148.804  0.00  0.00    +0.000 C 
ENDBRANCH  11  21
BRANCH  12  23
ATOM     23  O   UNL     1     102.645 128.229 148.909  0.00  0.00    +0.000 OA
ATOM     24  C   UNL     1     101.903 127.870 148.874  0.00  0.00    +0.000 C 
ENDBRANCH  12  23
BRANCH   4  25
ATOM     25  O   UNL     1     105.903 125.495 147.024  0.00  0.00    +0.000 OA
BRANCH  25  34
ATOM     26  O   UNL     1     106.281 124.945 148.288  0.00  0.00    +0.000 OA
ATOM     27  O   UNL     1     108.664 125.071 147.630  0.00  0.00    +0.000 OA
ATOM     28  O   UNL     1     108.248 124.480 149.113  0.00  0.00    +0.000 OA
ATOM     29  O   UNL     1     107.491 125.579 146.586  0.00  0.00    +0.000 OA
ATOM     30  C   UNL     1     107.870 125.029 147.849  0.00  0.00    +0.000 C 
ATOM     31  C   UNL     1     107.661 124.734 148.591  0.00  0.00    +0.000 C 
ATOM     32  C   UNL     1     107.283 125.283 147.328  0.00  0.00    +0.000 C 
ATOM     33  C   UNL     1     106.867 124.692 148.810  0.00  0.00    +0.000 C 
ATOM     34  C   UNL     1     106.489 125.241 147.547  0.00  0.00    +0.000 C 
ATOM     35  C   UNL     1     106.659 124.396 149.552  0.00  0.00    +0.000 C 
ENDBRANCH  25  34
ENDBRANCH   4  25
TORSDOF 5
ENDMDL
MODEL 7
REMARK VINA RESULT:      -9.1     11.350     13.108
REMARK  Name = 5317290
REMARK  5 active torsions:
REMARK  status: ('A' for Active; 'I' for Inactive)
REMARK    1  A    between atoms: O_2  and  C_17
REMARK    2  A    between atoms: O_2  and  C_19
REMARK    3  A    between atoms: O_9  and  C_27
REMARK    4  A    between atoms: O_10  and  C_28
REMARK    5  A    between atoms: C_20  and  C_24
REMARK                            x       y       z     vdW  Elec       q    Type
REMARK                         _______ _______ _______ _____ _____    ______ ____
ROOT
ATOM      1  O   UNL     1     112.627 128.362 138.352  0.00  0.00    +0.000 OA
ATOM      2  O   UNL     1     113.631 126.928 136.603  0.00  0.00    +0.000 OA
ATOM      3  O   UNL     1     113.778 128.060 135.720  0.00  0.00    +0.000 OA
ATOM      4  C   UNL     1     113.062 127.077 137.905  0.00  0.00    +0.000 A 
ATOM      5  C   UNL     1     112.727 127.555 138.488  0.00  0.00    +0.000 A 
ATOM      6  C   UNL     1     113.296 127.407 137.186  0.00  0.00    +0.000 A 
ATOM      7  C   UNL     1     113.196 128.214 137.050  0.00  0.00    +0.000 A 
ATOM      8  C   UNL     1     112.861 128.692 137.634  0.00  0.00    +0.000 A 
ATOM      9  C   UNL     1     113.444 128.546 136.298  0.00  0.00    +0.000 A 
ATOM     10  C   UNL     1     112.752 129.534 137.505  0.00  0.00    +0.000 A 
ATOM     11  C   UNL     1     113.343 129.386 136.150  0.00  0.00    +0.000 A 
ATOM     12  C   UNL     1     112.994 129.884 136.758  0.00  0.00    +0.000 A 
ENDROOT
BRANCH   5  15
ATOM     13  O   UNL     1     110.655 126.660 140.241  0.00  0.00    +0.000 OA
ATOM     14  O   UNL     1     111.788 126.235 141.363  0.00  0.00    +0.000 OA
ATOM     15  C   UNL     1     112.492 127.225 139.207  0.00  0.00    +0.000 A 
ATOM     16  C   UNL     1     111.691 127.107 139.365  0.00  0.00    +0.000 A 
ATOM     17  C   UNL     1     113.059 127.012 139.768  0.00  0.00    +0.000 A 
ATOM     18  C   UNL     1     111.456 126.777 140.084  0.00  0.00    +0.000 A 
ATOM     19  C   UNL     1     112.824 126.683 140.487  0.00  0.00    +0.000 A 
ATOM     20  C   UNL     1     112.023 126.565 140.645  0.00  0.00    +0.000 A 
ENDBRANCH   5  15
BRANCH  11  21
ATOM     21  O   UNL     1     113.578 129.713 135.430  0.00  0.00    +0.000 OA
ATOM     22  C   UNL     1     114.374 129.887 135.297  0.00  0.00    +0.000 C 
ENDBRANCH  11  21
BRANCH  12  23
ATOM     23  O   UNL     1     112.893 130.692 136.625  0.00  0.00    +0.000 OA
ATOM     24  C   UNL     1     112.431 131.140 137.141  0.00  0.00    +0.000 C 
ENDBRANCH  12  23
BRANCH   4  25
ATOM     25  O   UNL     1     113.162 126.269 138.041  0.00  0.00    +0.000 OA
BRANCH  25  34
ATOM     26  O   UNL     1     112.051 125.877 137.232  0.00  0.00    +0.000 OA
ATOM     27  O   UNL     1     113.200 123.754 136.683  0.00  0.00    +0.000 OA
ATOM     28  O   UNL     1     111.706 124.070 136.057  0.00  0.00    +0.000 OA
ATOM     29  O   UNL     1     113.927 124.854 137.675  0.00  0.00    +0.000 OA
ATOM     30  C   UNL     1     112.817 124.462 136.866  0.00  0.00    +0.000 C 
ATOM     31  C   UNL     1     112.070 124.620 136.553  0.00  0.00    +0.000 C 
ATOM     32  C   UNL     1     113.180 125.012 137.362  0.00  0.00    +0.000 C 
ATOM     33  C   UNL     1     111.687 125.328 136.736  0.00  0.00    +0.000 C 
ATOM     34  C   UNL     1     112.797 125.720 137.545  0.00  0.00    +0.000 C 
ATOM     35  C   UNL     1     110.940 125.485 136.423  0.00  0.00    +0.000 C 
ENDBRANCH  25  34
ENDBRANCH   4  25
TORSDOF 5
ENDMDL
MODEL 8
REMARK VINA RESULT:      -9.1     11.130     12.913
REMARK  Name = 5317290
REMARK  5 active torsions:
REMARK  status: ('A' for Active; 'I' for Inactive)
REMARK    1  A    between atoms: O_2  and  C_17
REMARK    2  A    between atoms: O_2  and  C_19
REMARK    3  A    between atoms: O_9  and  C_27
REMARK    4  A    between atoms: O_10  and  C_28
REMARK    5  A    between atoms: C_20  and  C_24
REMARK                            x       y       z     vdW  Elec       q    Type
REMARK                         _______ _______ _______ _____ _____    ______ ____
ROOT
ATOM      1  O   UNL     1     112.807 128.295 138.280  0.00  0.00    +0.000 OA
ATOM      2  O   UNL     1     111.702 126.091 138.498  0.00  0.00    +0.000 OA
ATOM      3  O   UNL     1     111.757 126.174 139.937  0.00  0.00    +0.000 OA
ATOM      4  C   UNL     1     112.221 127.140 137.677  0.00  0.00    +0.000 A 
ATOM      5  C   UNL     1     112.589 127.874 137.605  0.00  0.00    +0.000 A 
ATOM      6  C   UNL     1     112.070 126.826 138.426  0.00  0.00    +0.000 A 
ATOM      7  C   UNL     1     112.288 127.247 139.101  0.00  0.00    +0.000 A 
ATOM      8  C   UNL     1     112.657 127.981 139.027  0.00  0.00    +0.000 A 
ATOM      9  C   UNL     1     112.126 126.910 139.874  0.00  0.00    +0.000 A 
ATOM     10  C   UNL     1     112.888 128.429 139.723  0.00  0.00    +0.000 A 
ATOM     11  C   UNL     1     112.351 127.343 140.581  0.00  0.00    +0.000 A 
ATOM     12  C   UNL     1     112.734 128.108 140.505  0.00  0.00    +0.000 A 
ENDROOT
BRANCH   5  15
ATOM     13  O   UNL     1     114.429 128.511 135.513  0.00  0.00    +0.000 OA
ATOM     14  O   UNL     1     113.192 129.128 134.612  0.00  0.00    +0.000 OA
ATOM     15  C   UNL     1     112.740 128.188 136.856  0.00  0.00    +0.000 A 
ATOM     16  C   UNL     1     113.509 128.193 136.559  0.00  0.00    +0.000 A 
ATOM     17  C   UNL     1     112.121 128.496 136.406  0.00  0.00    +0.000 A 
ATOM     18  C   UNL     1     113.660 128.506 135.810  0.00  0.00    +0.000 A 
ATOM     19  C   UNL     1     112.272 128.809 135.658  0.00  0.00    +0.000 A 
ATOM     20  C   UNL     1     113.041 128.815 135.360  0.00  0.00    +0.000 A 
ENDBRANCH   5  15
BRANCH  11  21
ATOM     21  O   UNL     1     112.199 127.027 141.328  0.00  0.00    +0.000 OA
ATOM     22  C   UNL     1     111.457 127.127 141.675  0.00  0.00    +0.000 C 
ENDBRANCH  11  21
BRANCH  12  23
ATOM     23  O   UNL     1     112.953 128.531 141.179  0.00  0.00    +0.000 OA
ATOM     24  C   UNL     1     113.441 129.194 141.110  0.00  0.00    +0.000 C 
ENDBRANCH  12  23
BRANCH   4  25
ATOM     25  O   UNL     1     112.003 126.719 137.002  0.00  0.00    +0.000 OA
BRANCH  25  34
ATOM     26  O   UNL     1     113.078 125.781 137.088  0.00  0.00    +0.000 OA
ATOM     27  O   UNL     1     111.644 124.043 136.064  0.00  0.00    +0.000 OA
ATOM     28  O   UNL     1     113.197 123.684 136.492  0.00  0.00    +0.000 OA
ATOM     29  O   UNL     1     111.047 125.560 136.319  0.00  0.00    +0.000 OA
ATOM     30  C   UNL     1     112.122 124.622 136.406  0.00  0.00    +0.000 C 
ATOM     31  C   UNL     1     112.898 124.444 136.620  0.00  0.00    +0.000 C 
ATOM     32  C   UNL     1     111.824 125.381 136.533  0.00  0.00    +0.000 C 
ATOM     33  C   UNL     1     113.376 125.023 136.961  0.00  0.00    +0.000 C 
ATOM     34  C   UNL     1     112.302 125.960 136.874  0.00  0.00    +0.000 C 
ATOM     35  C   UNL     1     114.153 124.843 137.175  0.00  0.00    +0.000 C 
ENDBRANCH  25  34
ENDBRANCH   4  25
TORSDOF 5
ENDMDL
MODEL 9
REMARK VINA RESULT:      -9.0     11.304     13.327
REMARK  Name = 5317290
REMARK  5 active torsions:
REMARK  status: ('A' for Active; 'I' for Inactive)
REMARK    1  A    between atoms: O_2  and  C_17
REMARK    2  A    between atoms: O_2  and  C_19
REMARK    3  A    between atoms: O_9  and  C_27
REMARK    4  A    between atoms: O_10  and  C_28
REMARK    5  A    between atoms: C_20  and  C_24
REMARK                            x       y       z     vdW  Elec       q    Type
REMARK                         _______ _______ _______ _____ _____    ______ ____
ROOT
ATOM      1  O   UNL     1     113.075 126.274 138.774  0.00  0.00    +0.000 OA
ATOM      2  O   UNL     1     112.091 128.439 138.088  0.00  0.00    +0.000 OA
ATOM      3  O   UNL     1     112.704 129.105 139.212  0.00  0.00    +0.000 OA
ATOM      4  C   UNL     1     112.274 127.039 137.870  0.00  0.00    +0.000 A 
ATOM      5  C   UNL     1     112.602 126.317 138.099  0.00  0.00    +0.000 A 
ATOM      6  C   UNL     1     112.419 127.718 138.317  0.00  0.00    +0.000 A 
ATOM      7  C   UNL     1     112.892 127.674 138.992  0.00  0.00    +0.000 A 
ATOM      8  C   UNL     1     113.219 126.952 139.220  0.00  0.00    +0.000 A 
ATOM      9  C   UNL     1     113.036 128.387 139.448  0.00  0.00    +0.000 A 
ATOM     10  C   UNL     1     113.713 126.894 139.920  0.00  0.00    +0.000 A 
ATOM     11  C   UNL     1     113.527 128.349 140.152  0.00  0.00    +0.000 A 
ATOM     12  C   UNL     1     113.868 127.597 140.390  0.00  0.00    +0.000 A 
ENDROOT
BRANCH   5  15
ATOM     13  O   UNL     1     113.499 124.337 136.244  0.00  0.00    +0.000 OA
ATOM     14  O   UNL     1     112.023 123.604 136.312  0.00  0.00    +0.000 OA
ATOM     15  C   UNL     1     112.457 125.638 137.652  0.00  0.00    +0.000 A 
ATOM     16  C   UNL     1     113.051 125.327 137.171  0.00  0.00    +0.000 A 
ATOM     17  C   UNL     1     111.719 125.272 137.686  0.00  0.00    +0.000 A 
ATOM     18  C   UNL     1     112.906 124.648 136.724  0.00  0.00    +0.000 A 
ATOM     19  C   UNL     1     111.574 124.594 137.239  0.00  0.00    +0.000 A 
ATOM     20  C   UNL     1     112.167 124.282 136.758  0.00  0.00    +0.000 A 
ENDBRANCH   5  15
BRANCH  11  21
ATOM     21  O   UNL     1     113.670 129.029 140.597  0.00  0.00    +0.000 OA
ATOM     22  C   UNL     1     113.120 129.277 141.160  0.00  0.00    +0.000 C 
ENDBRANCH  11  21
BRANCH  12  23
ATOM     23  O   UNL     1     114.341 127.551 141.064  0.00  0.00    +0.000 OA
ATOM     24  C   UNL     1     114.859 126.916 141.162  0.00  0.00    +0.000 C 
ENDBRANCH  12  23
BRANCH   4  25
ATOM     25  O   UNL     1     111.802 127.082 137.195  0.00  0.00    +0.000 OA
BRANCH  25  34
ATOM     26  O   UNL     1     112.806 127.733 136.414  0.00  0.00    +0.000 OA
ATOM     27  O   UNL     1     111.046 128.813 135.050  0.00  0.00    +0.000 OA
ATOM     28  O   UNL     1     112.637 129.103 134.724  0.00  0.00    +0.000 OA
ATOM     29  O   UNL     1     110.628 127.803 136.286  0.00  0.00    +0.000 OA
ATOM     30  C   UNL     1     111.633 128.453 135.505  0.00  0.00    +0.000 C 
ATOM     31  C   UNL     1     112.428 128.598 135.342  0.00  0.00    +0.000 C 
ATOM     32  C   UNL     1     111.424 127.948 136.123  0.00  0.00    +0.000 C 
ATOM     33  C   UNL     1     113.015 128.238 135.797  0.00  0.00    +0.000 C 
ATOM     34  C   UNL     1     112.011 127.588 136.577  0.00  0.00    +0.000 C 
ATOM     35  C   UNL     1     113.810 128.383 135.633  0.00  0.00    +0.000 C 
ENDBRANCH  25  34
ENDBRANCH   4  25
TORSDOF 5
ENDMDL
