MODEL 1
REMARK VINA RESULT:      -9.5      0.000      0.000
REMARK  Name = 14727693
REMARK  4 active torsions:
REMARK  status: ('A' for Active; 'I' for Inactive)
REMARK    1  A    between atoms: O_2  and  C_14
REMARK    2  A    between atoms: O_2  and  C_16
REMARK    3  A    between atoms: C_13  and  C_15
REMARK    4  A    between atoms: C_17  and  C_25
REMARK                            x       y       z     vdW  Elec       q    Type
REMARK                         _______ _______ _______ _____ _____    ______ ____
ROOT
ATOM      1  O   UNL     1     112.521 126.292 136.329  0.00  0.00    +0.000 OA
ATOM      2  O   UNL     1     110.008 125.380 135.219  0.00  0.00    +0.000 OA
ATOM      3  O   UNL     1     110.947 124.405 135.719  0.00  0.00    +0.000 OA
ATOM      4  C   UNL     1     110.812 127.395 135.462  0.00  0.00    +0.000 A 
ATOM      5  C   UNL     1     112.754 125.481 136.490  0.00  0.00    +0.000 C 
ATOM      6  C   UNL     1     111.248 125.833 135.767  0.00  0.00    +0.000 A 
ATOM      7  C   UNL     1     110.301 126.778 135.265  0.00  0.00    +0.000 A 
ATOM      8  C   UNL     1     111.759 126.450 135.964  0.00  0.00    +0.000 A 
ATOM      9  C   UNL     1     112.222 124.838 136.284  0.00  0.00    +0.000 C 
ATOM     10  C   UNL     1     111.541 127.231 135.812  0.00  0.00    +0.000 A 
ATOM     11  C   UNL     1     110.519 125.997 135.417  0.00  0.00    +0.000 A 
ATOM     12  C   UNL     1     111.464 125.016 135.920  0.00  0.00    +0.000 C 
ATOM     13  C   UNL     1     109.572 126.942 134.915  0.00  0.00    +0.000 C 
ENDROOT
BRANCH   5  14
ATOM     14  C   UNL     1     113.483 125.320 136.840  0.00  0.00    +0.000 A 
ATOM     15  C   UNL     1     113.600 125.476 137.641  0.00  0.00    +0.000 A 
ATOM     16  C   UNL     1     114.097 125.003 136.388  0.00  0.00    +0.000 A 
ATOM     17  C   UNL     1     114.330 125.315 137.991  0.00  0.00    +0.000 A 
ATOM     18  C   UNL     1     114.826 124.842 136.737  0.00  0.00    +0.000 A 
ATOM     19  C   UNL     1     114.943 124.997 137.538  0.00  0.00    +0.000 A 
ENDBRANCH   5  14
BRANCH   4  20
ATOM     20  O   UNL     1     110.594 128.176 135.310  0.00  0.00    +0.000 OA
BRANCH  20  29
ATOM     21  O   UNL     1     110.305 128.636 136.632  0.00  0.00    +0.000 OA
ATOM     22  O   UNL     1     111.622 130.688 136.206  0.00  0.00    +0.000 OA
ATOM     23  O   UNL     1     110.895 130.463 137.669  0.00  0.00    +0.000 OA
ATOM     24  O   UNL     1     111.471 129.544 135.026  0.00  0.00    +0.000 OA
ATOM     25  C   UNL     1     111.183 130.004 136.348  0.00  0.00    +0.000 C 
ATOM     26  C   UNL     1     110.819 129.891 137.079  0.00  0.00    +0.000 C 
ATOM     27  C   UNL     1     111.108 129.431 135.757  0.00  0.00    +0.000 C 
ATOM     28  C   UNL     1     110.380 129.207 137.221  0.00  0.00    +0.000 C 
ATOM     29  C   UNL     1     110.669 128.747 135.899  0.00  0.00    +0.000 C 
BRANCH  28  31
ATOM     30  O   UNL     1     109.275 128.736 137.995  0.00  0.00    +0.000 OA
ATOM     31  C   UNL     1     110.017 129.095 137.953  0.00  0.00    +0.000 C 
ENDBRANCH  28  31
ENDBRANCH  20  29
ENDBRANCH   4  20
TORSDOF 4
ENDMDL
MODEL 2
REMARK VINA RESULT:      -9.2      1.172      2.089
REMARK  Name = 14727693
REMARK  4 active torsions:
REMARK  status: ('A' for Active; 'I' for Inactive)
REMARK    1  A    between atoms: O_2  and  C_14
REMARK    2  A    between atoms: O_2  and  C_16
REMARK    3  A    between atoms: C_13  and  C_15
REMARK    4  A    between atoms: C_17  and  C_25
REMARK                            x       y       z     vdW  Elec       q    Type
REMARK                         _______ _______ _______ _____ _____    ______ ____
ROOT
ATOM      1  O   UNL     1     111.057 125.929 136.792  0.00  0.00    +0.000 OA
ATOM      2  O   UNL     1     108.976 126.636 134.908  0.00  0.00    +0.000 OA
ATOM      3  O   UNL     1     109.836 125.515 134.612  0.00  0.00    +0.000 OA
ATOM      4  C   UNL     1     109.532 127.530 136.820  0.00  0.00    +0.000 A 
ATOM      5  C   UNL     1     111.306 125.281 136.286  0.00  0.00    +0.000 C 
ATOM      6  C   UNL     1     110.002 126.289 135.840  0.00  0.00    +0.000 A 
ATOM      7  C   UNL     1     109.137 127.393 136.109  0.00  0.00    +0.000 A 
ATOM      8  C   UNL     1     110.398 126.425 136.551  0.00  0.00    +0.000 A 
ATOM      9  C   UNL     1     110.894 125.138 135.546  0.00  0.00    +0.000 C 
ATOM     10  C   UNL     1     110.164 127.046 137.041  0.00  0.00    +0.000 A 
ATOM     11  C   UNL     1     109.372 126.772 135.619  0.00  0.00    +0.000 A 
ATOM     12  C   UNL     1     110.238 125.646 135.321  0.00  0.00    +0.000 C 
ATOM     13  C   UNL     1     108.506 127.877 135.888  0.00  0.00    +0.000 C 
ENDROOT
BRANCH   5  14
ATOM     14  C   UNL     1     111.937 124.798 136.509  0.00  0.00    +0.000 A 
ATOM     15  C   UNL     1     111.792 124.060 136.848  0.00  0.00    +0.000 A 
ATOM     16  C   UNL     1     112.713 125.055 136.395  0.00  0.00    +0.000 A 
ATOM     17  C   UNL     1     112.423 123.578 137.071  0.00  0.00    +0.000 A 
ATOM     18  C   UNL     1     113.344 124.573 136.618  0.00  0.00    +0.000 A 
ATOM     19  C   UNL     1     113.199 123.835 136.956  0.00  0.00    +0.000 A 
ENDBRANCH   5  14
BRANCH   4  20
ATOM     20  O   UNL     1     109.297 128.151 137.310  0.00  0.00    +0.000 OA
BRANCH  20  29
ATOM     21  O   UNL     1     110.387 129.051 137.098  0.00  0.00    +0.000 OA
ATOM     22  O   UNL     1     110.491 129.497 139.531  0.00  0.00    +0.000 OA
ATOM     23  O   UNL     1     111.545 130.248 138.509  0.00  0.00    +0.000 OA
ATOM     24  O   UNL     1     109.367 128.448 138.931  0.00  0.00    +0.000 OA
ATOM     25  C   UNL     1     110.456 129.348 138.720  0.00  0.00    +0.000 C 
ATOM     26  C   UNL     1     110.983 129.724 138.208  0.00  0.00    +0.000 C 
ATOM     27  C   UNL     1     109.894 128.824 138.420  0.00  0.00    +0.000 C 
ATOM     28  C   UNL     1     110.949 129.575 137.398  0.00  0.00    +0.000 C 
ATOM     29  C   UNL     1     109.859 128.675 137.609  0.00  0.00    +0.000 C 
BRANCH  28  31
ATOM     30  O   UNL     1     111.203 130.284 136.183  0.00  0.00    +0.000 OA
ATOM     31  C   UNL     1     111.476 129.951 136.887  0.00  0.00    +0.000 C 
ENDBRANCH  28  31
ENDBRANCH  20  29
ENDBRANCH   4  20
TORSDOF 4
ENDMDL
MODEL 3
REMARK VINA RESULT:      -9.1      1.920      3.942
REMARK  Name = 14727693
REMARK  4 active torsions:
REMARK  status: ('A' for Active; 'I' for Inactive)
REMARK    1  A    between atoms: O_2  and  C_14
REMARK    2  A    between atoms: O_2  and  C_16
REMARK    3  A    between atoms: C_13  and  C_15
REMARK    4  A    between atoms: C_17  and  C_25
REMARK                            x       y       z     vdW  Elec       q    Type
REMARK                         _______ _______ _______ _____ _____    ______ ____
ROOT
ATOM      1  O   UNL     1     112.452 128.151 135.553  0.00  0.00    +0.000 OA
ATOM      2  O   UNL     1     109.709 128.393 134.657  0.00  0.00    +0.000 OA
ATOM      3  O   UNL     1     110.562 129.557 134.622  0.00  0.00    +0.000 OA
ATOM      4  C   UNL     1     110.811 126.673 135.428  0.00  0.00    +0.000 A 
ATOM      5  C   UNL     1     112.588 128.982 135.384  0.00  0.00    +0.000 C 
ATOM      6  C   UNL     1     111.063 128.271 135.100  0.00  0.00    +0.000 A 
ATOM      7  C   UNL     1     110.198 127.134 135.124  0.00  0.00    +0.000 A 
ATOM      8  C   UNL     1     111.677 127.810 135.403  0.00  0.00    +0.000 A 
ATOM      9  C   UNL     1     111.950 129.462 135.068  0.00  0.00    +0.000 C 
ATOM     10  C   UNL     1     111.551 127.012 135.567  0.00  0.00    +0.000 A 
ATOM     11  C   UNL     1     110.324 127.933 134.960  0.00  0.00    +0.000 A 
ATOM     12  C   UNL     1     111.181 129.103 134.925  0.00  0.00    +0.000 C 
ATOM     13  C   UNL     1     109.457 126.796 134.985  0.00  0.00    +0.000 C 
ENDROOT
BRANCH   5  14
ATOM     14  C   UNL     1     113.329 129.317 135.525  0.00  0.00    +0.000 A 
ATOM     15  C   UNL     1     113.478 129.705 136.237  0.00  0.00    +0.000 A 
ATOM     16  C   UNL     1     113.921 129.265 134.952  0.00  0.00    +0.000 A 
ATOM     17  C   UNL     1     114.218 130.041 136.378  0.00  0.00    +0.000 A 
ATOM     18  C   UNL     1     114.661 129.600 135.092  0.00  0.00    +0.000 A 
ATOM     19  C   UNL     1     114.810 129.988 135.805  0.00  0.00    +0.000 A 
ENDBRANCH   5  14
BRANCH   4  20
ATOM     20  O   UNL     1     110.685 125.875 135.592  0.00  0.00    +0.000 OA
BRANCH  20  29
ATOM     21  O   UNL     1     110.595 125.946 137.016  0.00  0.00    +0.000 OA
ATOM     22  O   UNL     1     111.994 123.914 137.206  0.00  0.00    +0.000 OA
ATOM     23  O   UNL     1     111.438 124.662 138.566  0.00  0.00    +0.000 OA
ATOM     24  O   UNL     1     111.618 124.520 135.718  0.00  0.00    +0.000 OA
ATOM     25  C   UNL     1     111.528 124.591 137.143  0.00  0.00    +0.000 C 
ATOM     26  C   UNL     1     111.249 124.966 137.823  0.00  0.00    +0.000 C 
ATOM     27  C   UNL     1     111.339 124.894 136.398  0.00  0.00    +0.000 C 
ATOM     28  C   UNL     1     110.783 125.643 137.759  0.00  0.00    +0.000 C 
ATOM     29  C   UNL     1     110.873 125.572 136.335  0.00  0.00    +0.000 C 
BRANCH  28  31
ATOM     30  O   UNL     1     109.715 126.253 138.488  0.00  0.00    +0.000 OA
ATOM     31  C   UNL     1     110.505 126.017 138.439  0.00  0.00    +0.000 C 
ENDBRANCH  28  31
ENDBRANCH  20  29
ENDBRANCH   4  20
TORSDOF 4
ENDMDL
MODEL 4
REMARK VINA RESULT:      -9.0      3.046      4.006
REMARK  Name = 14727693
REMARK  4 active torsions:
REMARK  status: ('A' for Active; 'I' for Inactive)
REMARK    1  A    between atoms: O_2  and  C_14
REMARK    2  A    between atoms: O_2  and  C_16
REMARK    3  A    between atoms: C_13  and  C_15
REMARK    4  A    between atoms: C_17  and  C_25
REMARK                            x       y       z     vdW  Elec       q    Type
REMARK                         _______ _______ _______ _____ _____    ______ ____
ROOT
ATOM      1  O   UNL     1     113.581 126.573 138.512  0.00  0.00    +0.000 OA
ATOM      2  O   UNL     1     111.004 126.471 139.827  0.00  0.00    +0.000 OA
ATOM      3  O   UNL     1     111.299 125.510 138.792  0.00  0.00    +0.000 OA
ATOM      4  C   UNL     1     112.702 127.812 140.119  0.00  0.00    +0.000 A 
ATOM      5  C   UNL     1     113.365 125.903 138.020  0.00  0.00    +0.000 C 
ATOM      6  C   UNL     1     112.277 126.524 139.180  0.00  0.00    +0.000 A 
ATOM      7  C   UNL     1     111.960 127.463 140.208  0.00  0.00    +0.000 A 
ATOM      8  C   UNL     1     113.020 126.872 139.090  0.00  0.00    +0.000 A 
ATOM      9  C   UNL     1     112.592 125.540 138.112  0.00  0.00    +0.000 C 
ATOM     10  C   UNL     1     113.232 127.516 139.560  0.00  0.00    +0.000 A 
ATOM     11  C   UNL     1     111.747 126.819 139.738  0.00  0.00    +0.000 A 
ATOM     12  C   UNL     1     112.044 125.853 138.696  0.00  0.00    +0.000 C 
ATOM     13  C   UNL     1     111.429 127.759 140.767  0.00  0.00    +0.000 C 
ENDROOT
BRANCH   5  14
ATOM     14  C   UNL     1     113.897 125.609 137.462  0.00  0.00    +0.000 A 
ATOM     15  C   UNL     1     113.944 125.955 136.714  0.00  0.00    +0.000 A 
ATOM     16  C   UNL     1     114.382 124.969 137.651  0.00  0.00    +0.000 A 
ATOM     17  C   UNL     1     114.476 125.662 136.156  0.00  0.00    +0.000 A 
ATOM     18  C   UNL     1     114.914 124.675 137.094  0.00  0.00    +0.000 A 
ATOM     19  C   UNL     1     114.961 125.021 136.347  0.00  0.00    +0.000 A 
ENDBRANCH   5  14
BRANCH   4  20
ATOM     20  O   UNL     1     112.915 128.456 140.589  0.00  0.00    +0.000 OA
BRANCH  20  29
ATOM     21  O   UNL     1     112.924 129.510 139.625  0.00  0.00    +0.000 OA
ATOM     22  O   UNL     1     115.119 130.271 140.479  0.00  0.00    +0.000 OA
ATOM     23  O   UNL     1     114.397 131.071 139.231  0.00  0.00    +0.000 OA
ATOM     24  O   UNL     1     114.378 128.963 141.159  0.00  0.00    +0.000 OA
ATOM     25  C   UNL     1     114.387 130.018 140.194  0.00  0.00    +0.000 C 
ATOM     26  C   UNL     1     114.026 130.417 139.570  0.00  0.00    +0.000 C 
ATOM     27  C   UNL     1     114.016 129.363 140.534  0.00  0.00    +0.000 C 
ATOM     28  C   UNL     1     113.294 130.164 139.285  0.00  0.00    +0.000 C 
ATOM     29  C   UNL     1     113.285 129.109 140.250  0.00  0.00    +0.000 C 
BRANCH  28  31
ATOM     30  O   UNL     1     112.160 130.840 138.739  0.00  0.00    +0.000 OA
ATOM     31  C   UNL     1     112.933 130.564 138.661  0.00  0.00    +0.000 C 
ENDBRANCH  28  31
ENDBRANCH  20  29
ENDBRANCH   4  20
TORSDOF 4
ENDMDL
MODEL 5
REMARK VINA RESULT:      -8.9      2.213      3.623
REMARK  Name = 14727693
REMARK  4 active torsions:
REMARK  status: ('A' for Active; 'I' for Inactive)
REMARK    1  A    between atoms: O_2  and  C_14
REMARK    2  A    between atoms: O_2  and  C_16
REMARK    3  A    between atoms: C_13  and  C_15
REMARK    4  A    between atoms: C_17  and  C_25
REMARK                            x       y       z     vdW  Elec       q    Type
REMARK                         _______ _______ _______ _____ _____    ______ ____
ROOT
ATOM      1  O   UNL     1     112.998 127.468 136.222  0.00  0.00    +0.000 OA
ATOM      2  O   UNL     1     113.865 124.725 136.540  0.00  0.00    +0.000 OA
ATOM      3  O   UNL     1     114.858 125.755 136.348  0.00  0.00    +0.000 OA
ATOM      4  C   UNL     1     111.864 125.595 136.534  0.00  0.00    +0.000 A 
ATOM      5  C   UNL     1     113.813 127.725 136.142  0.00  0.00    +0.000 C 
ATOM      6  C   UNL     1     113.434 126.078 136.383  0.00  0.00    +0.000 A 
ATOM      7  C   UNL     1     112.472 125.040 136.575  0.00  0.00    +0.000 A 
ATOM      8  C   UNL     1     112.826 126.635 136.342  0.00  0.00    +0.000 A 
ATOM      9  C   UNL     1     114.447 127.146 136.185  0.00  0.00    +0.000 C 
ATOM     10  C   UNL     1     112.041 126.393 136.418  0.00  0.00    +0.000 A 
ATOM     11  C   UNL     1     113.257 125.281 136.500  0.00  0.00    +0.000 A 
ATOM     12  C   UNL     1     114.256 126.317 136.306  0.00  0.00    +0.000 C 
ATOM     13  C   UNL     1     112.295 124.242 136.691  0.00  0.00    +0.000 C 
ENDROOT
BRANCH   5  14
ATOM     14  C   UNL     1     113.988 128.523 136.026  0.00  0.00    +0.000 A 
ATOM     15  C   UNL     1     114.309 128.775 135.309  0.00  0.00    +0.000 A 
ATOM     16  C   UNL     1     113.841 129.069 136.627  0.00  0.00    +0.000 A 
ATOM     17  C   UNL     1     114.483 129.573 135.193  0.00  0.00    +0.000 A 
ATOM     18  C   UNL     1     114.014 129.867 136.511  0.00  0.00    +0.000 A 
ATOM     19  C   UNL     1     114.336 130.119 135.794  0.00  0.00    +0.000 A 
ENDBRANCH   5  14
BRANCH   4  20
ATOM     20  O   UNL     1     111.078 125.354 136.610  0.00  0.00    +0.000 OA
BRANCH  20  29
ATOM     21  O   UNL     1     110.757 125.772 137.938  0.00  0.00    +0.000 OA
ATOM     22  O   UNL     1     108.702 126.864 137.098  0.00  0.00    +0.000 OA
ATOM     23  O   UNL     1     109.066 126.918 138.706  0.00  0.00    +0.000 OA
ATOM     24  O   UNL     1     109.708 126.082 136.050  0.00  0.00    +0.000 OA
ATOM     25  C   UNL     1     109.387 126.500 137.378  0.00  0.00    +0.000 C 
ATOM     26  C   UNL     1     109.570 126.527 138.182  0.00  0.00    +0.000 C 
ATOM     27  C   UNL     1     109.891 126.109 136.854  0.00  0.00    +0.000 C 
ATOM     28  C   UNL     1     110.255 126.162 138.462  0.00  0.00    +0.000 C 
ATOM     29  C   UNL     1     110.576 125.745 137.134  0.00  0.00    +0.000 C 
BRANCH  28  31
ATOM     30  O   UNL     1     110.721 125.515 139.648  0.00  0.00    +0.000 OA
ATOM     31  C   UNL     1     110.437 126.189 139.266  0.00  0.00    +0.000 C 
ENDBRANCH  28  31
ENDBRANCH  20  29
ENDBRANCH   4  20
TORSDOF 4
ENDMDL
MODEL 6
REMARK VINA RESULT:      -8.9      1.101      1.548
REMARK  Name = 14727693
REMARK  4 active torsions:
REMARK  status: ('A' for Active; 'I' for Inactive)
REMARK    1  A    between atoms: O_2  and  C_14
REMARK    2  A    between atoms: O_2  and  C_16
REMARK    3  A    between atoms: C_13  and  C_15
REMARK    4  A    between atoms: C_17  and  C_25
REMARK                            x       y       z     vdW  Elec       q    Type
REMARK                         _______ _______ _______ _____ _____    ______ ____
ROOT
ATOM      1  O   UNL     1     111.891 126.212 136.022  0.00  0.00    +0.000 OA
ATOM      2  O   UNL     1     109.494 127.020 134.614  0.00  0.00    +0.000 OA
ATOM      3  O   UNL     1     109.670 125.629 134.953  0.00  0.00    +0.000 OA
ATOM      4  C   UNL     1     111.203 128.189 135.309  0.00  0.00    +0.000 A 
ATOM      5  C   UNL     1     111.623 125.395 136.025  0.00  0.00    +0.000 C 
ATOM      6  C   UNL     1     110.678 126.624 135.309  0.00  0.00    +0.000 A 
ATOM      7  C   UNL     1     110.480 127.995 134.962  0.00  0.00    +0.000 A 
ATOM      8  C   UNL     1     111.402 126.816 135.657  0.00  0.00    +0.000 A 
ATOM      9  C   UNL     1     110.870 125.194 135.663  0.00  0.00    +0.000 C 
ATOM     10  C   UNL     1     111.664 127.599 135.657  0.00  0.00    +0.000 A 
ATOM     11  C   UNL     1     110.218 127.213 134.962  0.00  0.00    +0.000 A 
ATOM     12  C   UNL     1     110.395 125.813 135.303  0.00  0.00    +0.000 C 
ATOM     13  C   UNL     1     110.018 128.585 134.614  0.00  0.00    +0.000 C 
ENDROOT
BRANCH   5  14
ATOM     14  C   UNL     1     112.087 124.808 136.373  0.00  0.00    +0.000 A 
ATOM     15  C   UNL     1     111.729 124.198 136.798  0.00  0.00    +0.000 A 
ATOM     16  C   UNL     1     112.908 124.831 136.297  0.00  0.00    +0.000 A 
ATOM     17  C   UNL     1     112.192 123.610 137.146  0.00  0.00    +0.000 A 
ATOM     18  C   UNL     1     113.371 124.244 136.644  0.00  0.00    +0.000 A 
ATOM     19  C   UNL     1     113.013 123.634 137.069  0.00  0.00    +0.000 A 
ENDBRANCH   5  14
BRANCH   4  20
ATOM     20  O   UNL     1     111.465 128.971 135.309  0.00  0.00    +0.000 OA
BRANCH  20  29
ATOM     21  O   UNL     1     111.272 129.302 136.685  0.00  0.00    +0.000 OA
ATOM     22  O   UNL     1     113.508 130.362 136.742  0.00  0.00    +0.000 OA
ATOM     23  O   UNL     1     112.571 130.340 138.099  0.00  0.00    +0.000 OA
ATOM     24  O   UNL     1     112.955 129.677 135.347  0.00  0.00    +0.000 OA
ATOM     25  C   UNL     1     112.763 130.009 136.723  0.00  0.00    +0.000 C 
ATOM     26  C   UNL     1     112.294 129.998 137.402  0.00  0.00    +0.000 C 
ATOM     27  C   UNL     1     112.486 129.666 136.025  0.00  0.00    +0.000 C 
ATOM     28  C   UNL     1     111.549 129.644 137.383  0.00  0.00    +0.000 C 
ATOM     29  C   UNL     1     111.741 129.313 136.006  0.00  0.00    +0.000 C 
BRANCH  28  31
ATOM     30  O   UNL     1     110.277 129.817 138.012  0.00  0.00    +0.000 OA
ATOM     31  C   UNL     1     111.080 129.634 138.061  0.00  0.00    +0.000 C 
ENDBRANCH  28  31
ENDBRANCH  20  29
ENDBRANCH   4  20
TORSDOF 4
ENDMDL
MODEL 7
REMARK VINA RESULT:      -8.9     10.220     12.240
REMARK  Name = 14727693
REMARK  4 active torsions:
REMARK  status: ('A' for Active; 'I' for Inactive)
REMARK    1  A    between atoms: O_2  and  C_14
REMARK    2  A    between atoms: O_2  and  C_16
REMARK    3  A    between atoms: C_13  and  C_15
REMARK    4  A    between atoms: C_17  and  C_25
REMARK                            x       y       z     vdW  Elec       q    Type
REMARK                         _______ _______ _______ _____ _____    ______ ____
ROOT
ATOM      1  O   UNL     1     103.981 124.469 145.994  0.00  0.00    +0.000 OA
ATOM      2  O   UNL     1     106.087 124.990 147.911  0.00  0.00    +0.000 OA
ATOM      3  O   UNL     1     104.835 124.444 148.378  0.00  0.00    +0.000 OA
ATOM      4  C   UNL     1     106.022 125.284 145.749  0.00  0.00    +0.000 A 
ATOM      5  C   UNL     1     103.470 124.182 146.621  0.00  0.00    +0.000 C 
ATOM      6  C   UNL     1     105.049 124.734 146.962  0.00  0.00    +0.000 A 
ATOM      7  C   UNL     1     106.297 125.274 146.526  0.00  0.00    +0.000 A 
ATOM      8  C   UNL     1     104.773 124.743 146.185  0.00  0.00    +0.000 A 
ATOM      9  C   UNL     1     103.757 124.172 147.432  0.00  0.00    +0.000 C 
ATOM     10  C   UNL     1     105.259 125.018 145.578  0.00  0.00    +0.000 A 
ATOM     11  C   UNL     1     105.811 124.999 147.133  0.00  0.00    +0.000 A 
ATOM     12  C   UNL     1     104.552 124.450 147.603  0.00  0.00    +0.000 C 
ATOM     13  C   UNL     1     107.060 125.540 146.697  0.00  0.00    +0.000 C 
ENDROOT
BRANCH   5  14
ATOM     14  C   UNL     1     102.708 123.917 146.448  0.00  0.00    +0.000 A 
ATOM     15  C   UNL     1     102.601 123.203 146.047  0.00  0.00    +0.000 A 
ATOM     16  C   UNL     1     102.054 124.365 146.675  0.00  0.00    +0.000 A 
ATOM     17  C   UNL     1     101.839 122.938 145.874  0.00  0.00    +0.000 A 
ATOM     18  C   UNL     1     101.292 124.100 146.502  0.00  0.00    +0.000 A 
ATOM     19  C   UNL     1     101.185 123.387 146.101  0.00  0.00    +0.000 A 
ENDBRANCH   5  14
BRANCH   4  20
ATOM     20  O   UNL     1     106.509 125.559 145.142  0.00  0.00    +0.000 OA
BRANCH  20  29
ATOM     21  O   UNL     1     105.904 126.826 144.871  0.00  0.00    +0.000 OA
ATOM     22  O   UNL     1     105.995 126.350 142.444  0.00  0.00    +0.000 OA
ATOM     23  O   UNL     1     105.361 127.774 142.983  0.00  0.00    +0.000 OA
ATOM     24  O   UNL     1     106.569 125.242 143.524  0.00  0.00    +0.000 OA
ATOM     25  C   UNL     1     105.965 126.508 143.253  0.00  0.00    +0.000 C 
ATOM     26  C   UNL     1     105.648 127.220 143.523  0.00  0.00    +0.000 C 
ATOM     27  C   UNL     1     106.252 125.954 143.794  0.00  0.00    +0.000 C 
ATOM     28  C   UNL     1     105.617 127.379 144.332  0.00  0.00    +0.000 C 
ATOM     29  C   UNL     1     106.222 126.113 144.603  0.00  0.00    +0.000 C 
BRANCH  28  31
ATOM     30  O   UNL     1     105.669 128.503 145.213  0.00  0.00    +0.000 OA
ATOM     31  C   UNL     1     105.300 128.091 144.601  0.00  0.00    +0.000 C 
ENDBRANCH  28  31
ENDBRANCH  20  29
ENDBRANCH   4  20
TORSDOF 4
ENDMDL
MODEL 8
REMARK VINA RESULT:      -8.9      2.159      2.920
REMARK  Name = 14727693
REMARK  4 active torsions:
REMARK  status: ('A' for Active; 'I' for Inactive)
REMARK    1  A    between atoms: O_2  and  C_14
REMARK    2  A    between atoms: O_2  and  C_16
REMARK    3  A    between atoms: C_13  and  C_15
REMARK    4  A    between atoms: C_17  and  C_25
REMARK                            x       y       z     vdW  Elec       q    Type
REMARK                         _______ _______ _______ _____ _____    ______ ____
ROOT
ATOM      1  O   UNL     1     113.460 127.349 137.042  0.00  0.00    +0.000 OA
ATOM      2  O   UNL     1     111.126 128.495 135.768  0.00  0.00    +0.000 OA
ATOM      3  O   UNL     1     111.405 127.090 135.585  0.00  0.00    +0.000 OA
ATOM      4  C   UNL     1     112.649 129.407 137.039  0.00  0.00    +0.000 A 
ATOM      5  C   UNL     1     113.272 126.579 136.711  0.00  0.00    +0.000 C 
ATOM      6  C   UNL     1     112.279 127.932 136.398  0.00  0.00    +0.000 A 
ATOM      7  C   UNL     1     111.980 129.319 136.564  0.00  0.00    +0.000 A 
ATOM      8  C   UNL     1     112.948 128.019 136.874  0.00  0.00    +0.000 A 
ATOM      9  C   UNL     1     112.576 126.488 136.216  0.00  0.00    +0.000 C 
ATOM     10  C   UNL     1     113.133 128.756 137.194  0.00  0.00    +0.000 A 
ATOM     11  C   UNL     1     111.795 128.581 136.244  0.00  0.00    +0.000 A 
ATOM     12  C   UNL     1     112.076 127.169 136.059  0.00  0.00    +0.000 C 
ATOM     13  C   UNL     1     111.496 129.970 136.409  0.00  0.00    +0.000 C 
ENDROOT
BRANCH   5  14
ATOM     14  C   UNL     1     113.758 125.931 136.868  0.00  0.00    +0.000 A 
ATOM     15  C   UNL     1     114.422 125.790 136.399  0.00  0.00    +0.000 A 
ATOM     16  C   UNL     1     113.579 125.423 137.493  0.00  0.00    +0.000 A 
ATOM     17  C   UNL     1     114.908 125.142 136.555  0.00  0.00    +0.000 A 
ATOM     18  C   UNL     1     114.064 124.774 137.650  0.00  0.00    +0.000 A 
ATOM     19  C   UNL     1     114.728 124.634 137.181  0.00  0.00    +0.000 A 
ENDBRANCH   5  14
BRANCH   4  20
ATOM     20  O   UNL     1     112.834 130.144 137.360  0.00  0.00    +0.000 OA
BRANCH  20  29
ATOM     21  O   UNL     1     112.458 129.938 138.723  0.00  0.00    +0.000 OA
ATOM     22  O   UNL     1     114.579 130.977 139.464  0.00  0.00    +0.000 OA
ATOM     23  O   UNL     1     113.496 130.424 140.579  0.00  0.00    +0.000 OA
ATOM     24  O   UNL     1     114.248 130.836 137.854  0.00  0.00    +0.000 OA
ATOM     25  C   UNL     1     113.872 130.630 139.217  0.00  0.00    +0.000 C 
ATOM     26  C   UNL     1     113.330 130.354 139.775  0.00  0.00    +0.000 C 
ATOM     27  C   UNL     1     113.706 130.560 138.411  0.00  0.00    +0.000 C 
ATOM     28  C   UNL     1     112.623 130.008 139.527  0.00  0.00    +0.000 C 
ATOM     29  C   UNL     1     112.999 130.214 138.164  0.00  0.00    +0.000 C 
BRANCH  28  31
ATOM     30  O   UNL     1     111.278 129.892 139.995  0.00  0.00    +0.000 OA
ATOM     31  C   UNL     1     112.082 129.732 140.085  0.00  0.00    +0.000 C 
ENDBRANCH  28  31
ENDBRANCH  20  29
ENDBRANCH   4  20
TORSDOF 4
ENDMDL
MODEL 9
REMARK VINA RESULT:      -8.9      1.866      4.197
REMARK  Name = 14727693
REMARK  4 active torsions:
REMARK  status: ('A' for Active; 'I' for Inactive)
REMARK    1  A    between atoms: O_2  and  C_14
REMARK    2  A    between atoms: O_2  and  C_16
REMARK    3  A    between atoms: C_13  and  C_15
REMARK    4  A    between atoms: C_17  and  C_25
REMARK                            x       y       z     vdW  Elec       q    Type
REMARK                         _______ _______ _______ _____ _____    ______ ____
ROOT
ATOM      1  O   UNL     1     110.869 127.452 136.018  0.00  0.00    +0.000 OA
ATOM      2  O   UNL     1     110.776 124.631 135.376  0.00  0.00    +0.000 OA
ATOM      3  O   UNL     1     109.912 125.540 134.662  0.00  0.00    +0.000 OA
ATOM      4  C   UNL     1     111.982 125.723 136.831  0.00  0.00    +0.000 A 
ATOM      5  C   UNL     1     110.266 127.614 135.428  0.00  0.00    +0.000 C 
ATOM      6  C   UNL     1     110.824 126.023 135.695  0.00  0.00    +0.000 A 
ATOM      7  C   UNL     1     111.668 125.102 136.388  0.00  0.00    +0.000 A 
ATOM      8  C   UNL     1     111.137 126.645 136.138  0.00  0.00    +0.000 A 
ATOM      9  C   UNL     1     109.939 126.968 134.966  0.00  0.00    +0.000 C 
ATOM     10  C   UNL     1     111.716 126.495 136.706  0.00  0.00    +0.000 A 
ATOM     11  C   UNL     1     111.089 125.253 135.820  0.00  0.00    +0.000 A 
ATOM     12  C   UNL     1     110.220 126.167 135.101  0.00  0.00    +0.000 C 
ATOM     13  C   UNL     1     111.934 124.331 136.512  0.00  0.00    +0.000 C 
ENDROOT
BRANCH   5  14
ATOM     14  C   UNL     1     110.002 128.387 135.305  0.00  0.00    +0.000 A 
ATOM     15  C   UNL     1     109.353 128.673 135.727  0.00  0.00    +0.000 A 
ATOM     16  C   UNL     1     110.388 128.873 134.761  0.00  0.00    +0.000 A 
ATOM     17  C   UNL     1     109.090 129.445 135.604  0.00  0.00    +0.000 A 
ATOM     18  C   UNL     1     110.125 129.644 134.638  0.00  0.00    +0.000 A 
ATOM     19  C   UNL     1     109.476 129.930 135.059  0.00  0.00    +0.000 A 
ENDBRANCH   5  14
BRANCH   4  20
ATOM     20  O   UNL     1     112.562 125.573 137.399  0.00  0.00    +0.000 OA
BRANCH  20  29
ATOM     21  O   UNL     1     111.765 125.869 138.548  0.00  0.00    +0.000 OA
ATOM     22  O   UNL     1     113.728 126.910 139.640  0.00  0.00    +0.000 OA
ATOM     23  O   UNL     1     112.278 126.859 140.424  0.00  0.00    +0.000 OA
ATOM     24  O   UNL     1     113.870 126.267 138.127  0.00  0.00    +0.000 OA
ATOM     25  C   UNL     1     113.074 126.563 139.276  0.00  0.00    +0.000 C 
ATOM     26  C   UNL     1     112.348 126.537 139.668  0.00  0.00    +0.000 C 
ATOM     27  C   UNL     1     113.144 126.241 138.519  0.00  0.00    +0.000 C 
ATOM     28  C   UNL     1     111.694 126.191 139.304  0.00  0.00    +0.000 C 
ATOM     29  C   UNL     1     112.490 125.894 138.155  0.00  0.00    +0.000 C 
BRANCH  28  31
ATOM     30  O   UNL     1     110.506 125.483 139.665  0.00  0.00    +0.000 OA
ATOM     31  C   UNL     1     110.970 126.165 139.696  0.00  0.00    +0.000 C 
ENDBRANCH  28  31
ENDBRANCH  20  29
ENDBRANCH   4  20
TORSDOF 4
ENDMDL
MODEL 10
REMARK VINA RESULT:      -8.8      2.069      3.821
REMARK  Name = 14727693
REMARK  4 active torsions:
REMARK  status: ('A' for Active; 'I' for Inactive)
REMARK    1  A    between atoms: O_2  and  C_14
REMARK    2  A    between atoms: O_2  and  C_16
REMARK    3  A    between atoms: C_13  and  C_15
REMARK    4  A    between atoms: C_17  and  C_25
REMARK                            x       y       z     vdW  Elec       q    Type
REMARK                         _______ _______ _______ _____ _____    ______ ____
ROOT
ATOM      1  O   UNL     1     111.684 126.686 137.112  0.00  0.00    +0.000 OA
ATOM      2  O   UNL     1     114.100 125.690 138.357  0.00  0.00    +0.000 OA
ATOM      3  O   UNL     1     113.670 125.116 137.104  0.00  0.00    +0.000 OA
ATOM      4  C   UNL     1     112.708 127.248 138.990  0.00  0.00    +0.000 A 
ATOM      5  C   UNL     1     111.782 126.134 136.461  0.00  0.00    +0.000 C 
ATOM      6  C   UNL     1     112.907 126.184 137.744  0.00  0.00    +0.000 A 
ATOM      7  C   UNL     1     113.354 126.735 138.984  0.00  0.00    +0.000 A 
ATOM      8  C   UNL     1     112.260 126.696 137.749  0.00  0.00    +0.000 A 
ATOM      9  C   UNL     1     112.455 125.600 136.455  0.00  0.00    +0.000 C 
ATOM     10  C   UNL     1     112.161 127.228 138.372  0.00  0.00    +0.000 A 
ATOM     11  C   UNL     1     113.453 126.203 138.361  0.00  0.00    +0.000 A 
ATOM     12  C   UNL     1     113.021 125.625 137.102  0.00  0.00    +0.000 C 
ATOM     13  C   UNL     1     113.901 126.754 139.602  0.00  0.00    +0.000 C 
ENDROOT
BRANCH   5  14
ATOM     14  C   UNL     1     111.234 126.117 135.845  0.00  0.00    +0.000 A 
ATOM     15  C   UNL     1     110.726 125.472 135.762  0.00  0.00    +0.000 A 
ATOM     16  C   UNL     1     111.193 126.745 135.311  0.00  0.00    +0.000 A 
ATOM     17  C   UNL     1     110.177 125.455 135.146  0.00  0.00    +0.000 A 
ATOM     18  C   UNL     1     110.645 126.729 134.695  0.00  0.00    +0.000 A 
ATOM     19  C   UNL     1     110.137 126.084 134.612  0.00  0.00    +0.000 A 
ENDBRANCH   5  14
BRANCH   4  20
ATOM     20  O   UNL     1     112.609 127.780 139.612  0.00  0.00    +0.000 OA
BRANCH  20  29
ATOM     21  O   UNL     1     112.962 128.999 138.956  0.00  0.00    +0.000 OA
ATOM     22  O   UNL     1     111.007 130.117 139.981  0.00  0.00    +0.000 OA
ATOM     23  O   UNL     1     112.011 130.963 138.983  0.00  0.00    +0.000 OA
ATOM     24  O   UNL     1     111.305 128.525 140.296  0.00  0.00    +0.000 OA
ATOM     25  C   UNL     1     111.658 129.744 139.639  0.00  0.00    +0.000 C 
ATOM     26  C   UNL     1     112.161 130.167 139.140  0.00  0.00    +0.000 C 
ATOM     27  C   UNL     1     111.808 128.948 139.797  0.00  0.00    +0.000 C 
ATOM     28  C   UNL     1     112.813 129.794 138.798  0.00  0.00    +0.000 C 
ATOM     29  C   UNL     1     112.460 128.575 139.455  0.00  0.00    +0.000 C 
BRANCH  28  31
ATOM     30  O   UNL     1     114.131 130.191 138.416  0.00  0.00    +0.000 OA
ATOM     31  C   UNL     1     113.315 130.217 138.300  0.00  0.00    +0.000 C 
ENDBRANCH  28  31
ENDBRANCH  20  29
ENDBRANCH   4  20
TORSDOF 4
ENDMDL
