MODEL 1
REMARK VINA RESULT:      -9.4      0.000      0.000
REMARK  Name = 74208821
REMARK  5 active torsions:
REMARK  status: ('A' for Active; 'I' for Inactive)
REMARK    1  A    between atoms: O_2  and  C_18
REMARK    2  A    between atoms: O_2  and  C_20
REMARK    3  A    between atoms: O_12  and  C_32
REMARK    4  A    between atoms: C_17  and  C_19
REMARK    5  A    between atoms: C_27  and  C_29
REMARK                            x       y       z     vdW  Elec       q    Type
REMARK                         _______ _______ _______ _____ _____    ______ ____
ROOT
ATOM      1  O   UNL     1     105.432 126.165 144.305  0.00  0.00    +0.000 OA
ATOM      2  O   UNL     1     106.481 124.705 147.140  0.00  0.00    +0.000 OA
ATOM      3  O   UNL     1     107.237 126.100 146.559  0.00  0.00    +0.000 OA
ATOM      4  O   UNL     1     106.812 127.850 144.167  0.00  0.00    +0.000 OA
ATOM      5  O   UNL     1     107.331 127.136 145.561  0.00  0.00    +0.000 OA
ATOM      6  C   UNL     1     105.560 124.722 146.007  0.00  0.00    +0.000 A 
ATOM      7  C   UNL     1     105.294 125.099 145.281  0.00  0.00    +0.000 A 
ATOM      8  C   UNL     1     106.219 125.060 146.443  0.00  0.00    +0.000 A 
ATOM      9  C   UNL     1     105.691 125.808 145.002  0.00  0.00    +0.000 A 
ATOM     10  C   UNL     1     106.324 126.131 145.421  0.00  0.00    +0.000 A 
ATOM     11  C   UNL     1     106.604 125.769 146.148  0.00  0.00    +0.000 A 
ATOM     12  C   UNL     1     106.698 126.812 145.143  0.00  0.00    +0.000 A 
ATOM     13  C   UNL     1     105.806 126.846 144.027  0.00  0.00    +0.000 A 
ATOM     14  C   UNL     1     106.439 127.169 144.445  0.00  0.00    +0.000 A 
ENDROOT
BRANCH  13  16
ATOM     15  O   UNL     1     104.770 128.275 141.239  0.00  0.00    +0.000 OA
ATOM     16  C   UNL     1     105.547 127.203 143.330  0.00  0.00    +0.000 A 
ATOM     17  C   UNL     1     105.705 126.849 142.601  0.00  0.00    +0.000 A 
ATOM     18  C   UNL     1     105.130 127.915 143.361  0.00  0.00    +0.000 A 
ATOM     19  C   UNL     1     105.446 127.206 141.904  0.00  0.00    +0.000 A 
ATOM     20  C   UNL     1     104.871 128.271 142.664  0.00  0.00    +0.000 A 
ATOM     21  C   UNL     1     105.029 127.917 141.936  0.00  0.00    +0.000 A 
BRANCH  19  22
ATOM     22  O   UNL     1     105.604 126.852 141.176  0.00  0.00    +0.000 OA
ATOM     23  C   UNL     1     105.686 126.033 141.124  0.00  0.00    +0.000 C 
ENDBRANCH  19  22
ENDBRANCH  13  16
BRANCH   6  24
ATOM     24  O   UNL     1     105.184 124.041 146.283  0.00  0.00    +0.000 OA
BRANCH  24  33
ATOM     25  O   UNL     1     104.016 124.620 146.867  0.00  0.00    +0.000 OA
ATOM     26  O   UNL     1     102.620 122.870 145.811  0.00  0.00    +0.000 OA
ATOM     27  O   UNL     1     101.918 124.032 146.747  0.00  0.00    +0.000 OA
ATOM     28  O   UNL     1     104.254 122.874 145.579  0.00  0.00    +0.000 OA
ATOM     29  C   UNL     1     103.085 123.453 146.163  0.00  0.00    +0.000 C 
ATOM     30  C   UNL     1     102.734 124.035 146.631  0.00  0.00    +0.000 C 
ATOM     31  C   UNL     1     103.903 123.456 146.047  0.00  0.00    +0.000 C 
ATOM     32  C   UNL     1     103.199 124.618 146.983  0.00  0.00    +0.000 C 
ATOM     33  C   UNL     1     104.368 124.039 146.399  0.00  0.00    +0.000 C 
BRANCH  32  35
ATOM     34  O   UNL     1     103.210 125.440 148.152  0.00  0.00    +0.000 OA
ATOM     35  C   UNL     1     102.848 125.199 147.451  0.00  0.00    +0.000 C 
ENDBRANCH  32  35
ENDBRANCH  24  33
ENDBRANCH   6  24
TORSDOF 5
ENDMDL
MODEL 2
REMARK VINA RESULT:      -9.1      0.854      5.087
REMARK  Name = 74208821
REMARK  5 active torsions:
REMARK  status: ('A' for Active; 'I' for Inactive)
REMARK    1  A    between atoms: O_2  and  C_18
REMARK    2  A    between atoms: O_2  and  C_20
REMARK    3  A    between atoms: O_12  and  C_32
REMARK    4  A    between atoms: C_17  and  C_19
REMARK    5  A    between atoms: C_27  and  C_29
REMARK                            x       y       z     vdW  Elec       q    Type
REMARK                         _______ _______ _______ _____ _____    ______ ____
ROOT
ATOM      1  O   UNL     1     104.635 125.282 145.718  0.00  0.00    +0.000 OA
ATOM      2  O   UNL     1     107.353 127.236 145.462  0.00  0.00    +0.000 OA
ATOM      3  O   UNL     1     107.319 125.948 146.556  0.00  0.00    +0.000 OA
ATOM      4  O   UNL     1     105.273 123.879 147.264  0.00  0.00    +0.000 OA
ATOM      5  O   UNL     1     106.611 124.837 147.142  0.00  0.00    +0.000 OA
ATOM      6  C   UNL     1     105.997 126.914 145.026  0.00  0.00    +0.000 A 
ATOM      7  C   UNL     1     105.303 126.411 145.095  0.00  0.00    +0.000 A 
ATOM      8  C   UNL     1     106.682 126.759 145.521  0.00  0.00    +0.000 A 
ATOM      9  C   UNL     1     105.304 125.761 145.656  0.00  0.00    +0.000 A 
ATOM     10  C   UNL     1     105.963 125.613 146.131  0.00  0.00    +0.000 A 
ATOM     11  C   UNL     1     106.665 126.104 146.077  0.00  0.00    +0.000 A 
ATOM     12  C   UNL     1     105.952 124.986 146.667  0.00  0.00    +0.000 A 
ATOM     13  C   UNL     1     104.625 124.655 146.254  0.00  0.00    +0.000 A 
ATOM     14  C   UNL     1     105.283 124.506 146.728  0.00  0.00    +0.000 A 
ENDROOT
BRANCH  13  16
ATOM     15  O   UNL     1     101.949 122.739 146.499  0.00  0.00    +0.000 OA
ATOM     16  C   UNL     1     103.956 124.176 146.315  0.00  0.00    +0.000 A 
ATOM     17  C   UNL     1     103.355 124.373 146.845  0.00  0.00    +0.000 A 
ATOM     18  C   UNL     1     103.888 123.500 145.847  0.00  0.00    +0.000 A 
ATOM     19  C   UNL     1     102.686 123.894 146.906  0.00  0.00    +0.000 A 
ATOM     20  C   UNL     1     103.219 123.021 145.909  0.00  0.00    +0.000 A 
ATOM     21  C   UNL     1     102.618 123.218 146.438  0.00  0.00    +0.000 A 
BRANCH  19  22
ATOM     22  O   UNL     1     102.085 124.091 147.436  0.00  0.00    +0.000 OA
ATOM     23  C   UNL     1     101.873 124.881 147.545  0.00  0.00    +0.000 C 
ENDBRANCH  19  22
ENDBRANCH  13  16
BRANCH   6  24
ATOM     24  O   UNL     1     106.005 127.540 144.490  0.00  0.00    +0.000 OA
BRANCH  24  33
ATOM     25  O   UNL     1     106.234 126.812 143.282  0.00  0.00    +0.000 OA
ATOM     26  O   UNL     1     104.522 128.181 142.132  0.00  0.00    +0.000 OA
ATOM     27  O   UNL     1     105.321 126.996 141.308  0.00  0.00    +0.000 OA
ATOM     28  O   UNL     1     104.864 128.453 143.723  0.00  0.00    +0.000 OA
ATOM     29  C   UNL     1     105.093 127.724 142.515  0.00  0.00    +0.000 C 
ATOM     30  C   UNL     1     105.493 127.132 142.104  0.00  0.00    +0.000 C 
ATOM     31  C   UNL     1     105.264 127.860 143.311  0.00  0.00    +0.000 C 
ATOM     32  C   UNL     1     106.063 126.676 142.487  0.00  0.00    +0.000 C 
ATOM     33  C   UNL     1     105.834 127.404 143.695  0.00  0.00    +0.000 C 
BRANCH  32  35
ATOM     34  O   UNL     1     107.272 125.973 142.190  0.00  0.00    +0.000 OA
ATOM     35  C   UNL     1     106.462 126.084 142.075  0.00  0.00    +0.000 C 
ENDBRANCH  32  35
ENDBRANCH  24  33
ENDBRANCH   6  24
TORSDOF 5
ENDMDL
MODEL 3
REMARK VINA RESULT:      -9.1      1.809      3.583
REMARK  Name = 74208821
REMARK  5 active torsions:
REMARK  status: ('A' for Active; 'I' for Inactive)
REMARK    1  A    between atoms: O_2  and  C_18
REMARK    2  A    between atoms: O_2  and  C_20
REMARK    3  A    between atoms: O_12  and  C_32
REMARK    4  A    between atoms: C_17  and  C_19
REMARK    5  A    between atoms: C_27  and  C_29
REMARK                            x       y       z     vdW  Elec       q    Type
REMARK                         _______ _______ _______ _____ _____    ______ ____
ROOT
ATOM      1  O   UNL     1     105.054 127.942 142.410  0.00  0.00    +0.000 OA
ATOM      2  O   UNL     1     107.843 126.075 142.354  0.00  0.00    +0.000 OA
ATOM      3  O   UNL     1     107.867 127.675 141.811  0.00  0.00    +0.000 OA
ATOM      4  O   UNL     1     105.795 129.826 141.596  0.00  0.00    +0.000 OA
ATOM      5  O   UNL     1     107.169 128.913 141.566  0.00  0.00    +0.000 OA
ATOM      6  C   UNL     1     106.421 126.192 142.663  0.00  0.00    +0.000 A 
ATOM      7  C   UNL     1     105.709 126.673 142.675  0.00  0.00    +0.000 A 
ATOM      8  C   UNL     1     107.155 126.529 142.370  0.00  0.00    +0.000 A 
ATOM      9  C   UNL     1     105.740 127.485 142.395  0.00  0.00    +0.000 A 
ATOM     10  C   UNL     1     106.445 127.808 142.114  0.00  0.00    +0.000 A 
ATOM     11  C   UNL     1     107.167 127.343 142.094  0.00  0.00    +0.000 A 
ATOM     12  C   UNL     1     106.464 128.589 141.848  0.00  0.00    +0.000 A 
ATOM     13  C   UNL     1     105.072 128.723 142.143  0.00  0.00    +0.000 A 
ATOM     14  C   UNL     1     105.777 129.046 141.862  0.00  0.00    +0.000 A 
ENDROOT
BRANCH  13  16
ATOM     15  O   UNL     1     102.326 130.551 142.201  0.00  0.00    +0.000 OA
ATOM     16  C   UNL     1     104.386 129.180 142.158  0.00  0.00    +0.000 A 
ATOM     17  C   UNL     1     103.924 129.252 141.477  0.00  0.00    +0.000 A 
ATOM     18  C   UNL     1     104.160 129.564 142.853  0.00  0.00    +0.000 A 
ATOM     19  C   UNL     1     103.238 129.710 141.492  0.00  0.00    +0.000 A 
ATOM     20  C   UNL     1     103.474 130.021 142.866  0.00  0.00    +0.000 A 
ATOM     21  C   UNL     1     103.013 130.094 142.186  0.00  0.00    +0.000 A 
BRANCH  19  22
ATOM     22  O   UNL     1     102.776 129.783 140.812  0.00  0.00    +0.000 OA
ATOM     23  C   UNL     1     102.646 129.126 140.330  0.00  0.00    +0.000 C 
ENDBRANCH  19  22
ENDBRANCH  13  16
BRANCH   6  24
ATOM     24  O   UNL     1     106.400 125.411 142.930  0.00  0.00    +0.000 OA
BRANCH  24  33
ATOM     25  O   UNL     1     106.400 125.683 144.333  0.00  0.00    +0.000 OA
ATOM     26  O   UNL     1     104.767 123.858 144.688  0.00  0.00    +0.000 OA
ATOM     27  O   UNL     1     105.313 124.738 145.971  0.00  0.00    +0.000 OA
ATOM     28  O   UNL     1     105.311 124.194 143.166  0.00  0.00    +0.000 OA
ATOM     29  C   UNL     1     105.312 124.466 144.569  0.00  0.00    +0.000 C 
ATOM     30  C   UNL     1     105.585 124.907 145.211  0.00  0.00    +0.000 C 
ATOM     31  C   UNL     1     105.584 124.635 143.808  0.00  0.00    +0.000 C 
ATOM     32  C   UNL     1     106.129 125.515 145.093  0.00  0.00    +0.000 C 
ATOM     33  C   UNL     1     106.128 125.243 143.690  0.00  0.00    +0.000 C 
BRANCH  32  35
ATOM     34  O   UNL     1     107.211 126.076 145.839  0.00  0.00    +0.000 OA
ATOM     35  C   UNL     1     106.401 125.955 145.735  0.00  0.00    +0.000 C 
ENDBRANCH  32  35
ENDBRANCH  24  33
ENDBRANCH   6  24
TORSDOF 5
ENDMDL
MODEL 4
REMARK VINA RESULT:      -9.0      1.208      4.896
REMARK  Name = 74208821
REMARK  5 active torsions:
REMARK  status: ('A' for Active; 'I' for Inactive)
REMARK    1  A    between atoms: O_2  and  C_18
REMARK    2  A    between atoms: O_2  and  C_20
REMARK    3  A    between atoms: O_12  and  C_32
REMARK    4  A    between atoms: C_17  and  C_19
REMARK    5  A    between atoms: C_27  and  C_29
REMARK                            x       y       z     vdW  Elec       q    Type
REMARK                         _______ _______ _______ _____ _____    ______ ____
ROOT
ATOM      1  O   UNL     1     104.299 124.827 146.678  0.00  0.00    +0.000 OA
ATOM      2  O   UNL     1     107.596 125.429 146.487  0.00  0.00    +0.000 OA
ATOM      3  O   UNL     1     106.874 125.054 147.968  0.00  0.00    +0.000 OA
ATOM      4  O   UNL     1     104.070 124.426 148.811  0.00  0.00    +0.000 OA
ATOM      5  O   UNL     1     105.690 124.722 148.723  0.00  0.00    +0.000 OA
ATOM      6  C   UNL     1     106.303 125.318 145.818  0.00  0.00    +0.000 A 
ATOM      7  C   UNL     1     105.458 125.163 145.871  0.00  0.00    +0.000 A 
ATOM      8  C   UNL     1     106.785 125.282 146.528  0.00  0.00    +0.000 A 
ATOM      9  C   UNL     1     105.109 124.974 146.633  0.00  0.00    +0.000 A 
ATOM     10  C   UNL     1     105.573 124.939 147.314  0.00  0.00    +0.000 A 
ATOM     11  C   UNL     1     106.418 125.091 147.281  0.00  0.00    +0.000 A 
ATOM     12  C   UNL     1     105.227 124.757 148.040  0.00  0.00    +0.000 A 
ATOM     13  C   UNL     1     103.952 124.644 147.404  0.00  0.00    +0.000 A 
ATOM     14  C   UNL     1     104.416 124.609 148.085  0.00  0.00    +0.000 A 
ENDROOT
BRANCH  13  16
ATOM     15  O   UNL     1     100.711 124.052 147.583  0.00  0.00    +0.000 OA
ATOM     16  C   UNL     1     103.142 124.496 147.449  0.00  0.00    +0.000 A 
ATOM     17  C   UNL     1     102.835 123.791 147.150  0.00  0.00    +0.000 A 
ATOM     18  C   UNL     1     102.639 125.053 147.792  0.00  0.00    +0.000 A 
ATOM     19  C   UNL     1     102.024 123.643 147.195  0.00  0.00    +0.000 A 
ATOM     20  C   UNL     1     101.829 124.905 147.836  0.00  0.00    +0.000 A 
ATOM     21  C   UNL     1     101.521 124.200 147.538  0.00  0.00    +0.000 A 
BRANCH  19  22
ATOM     22  O   UNL     1     101.716 122.938 146.897  0.00  0.00    +0.000 OA
ATOM     23  C   UNL     1     101.814 122.750 146.100  0.00  0.00    +0.000 C 
ENDBRANCH  19  22
ENDBRANCH  13  16
BRANCH   6  24
ATOM     24  O   UNL     1     106.646 125.501 145.091  0.00  0.00    +0.000 OA
BRANCH  24  33
ATOM     25  O   UNL     1     106.083 126.791 144.847  0.00  0.00    +0.000 OA
ATOM     26  O   UNL     1     105.552 126.121 142.524  0.00  0.00    +0.000 OA
ATOM     27  O   UNL     1     105.166 127.634 143.055  0.00  0.00    +0.000 OA
ATOM     28  O   UNL     1     106.293 125.054 143.542  0.00  0.00    +0.000 OA
ATOM     29  C   UNL     1     105.729 126.344 143.298  0.00  0.00    +0.000 C 
ATOM     30  C   UNL     1     105.536 127.101 143.564  0.00  0.00    +0.000 C 
ATOM     31  C   UNL     1     106.100 125.810 143.808  0.00  0.00    +0.000 C 
ATOM     32  C   UNL     1     105.713 127.324 144.338  0.00  0.00    +0.000 C 
ATOM     33  C   UNL     1     106.277 126.034 144.582  0.00  0.00    +0.000 C 
BRANCH  32  35
ATOM     34  O   UNL     1     106.050 128.501 145.075  0.00  0.00    +0.000 OA
ATOM     35  C   UNL     1     105.520 128.080 144.603  0.00  0.00    +0.000 C 
ENDBRANCH  32  35
ENDBRANCH  24  33
ENDBRANCH   6  24
TORSDOF 5
ENDMDL
MODEL 5
REMARK VINA RESULT:      -9.0      8.092     11.111
REMARK  Name = 74208821
REMARK  5 active torsions:
REMARK  status: ('A' for Active; 'I' for Inactive)
REMARK    1  A    between atoms: O_2  and  C_18
REMARK    2  A    between atoms: O_2  and  C_20
REMARK    3  A    between atoms: O_12  and  C_32
REMARK    4  A    between atoms: C_17  and  C_19
REMARK    5  A    between atoms: C_27  and  C_29
REMARK                            x       y       z     vdW  Elec       q    Type
REMARK                         _______ _______ _______ _____ _____    ______ ____
ROOT
ATOM      1  O   UNL     1     111.360 126.547 137.718  0.00  0.00    +0.000 OA
ATOM      2  O   UNL     1     109.892 125.454 134.903  0.00  0.00    +0.000 OA
ATOM      3  O   UNL     1     111.175 124.597 135.594  0.00  0.00    +0.000 OA
ATOM      4  O   UNL     1     112.878 125.009 138.023  0.00  0.00    +0.000 OA
ATOM      5  O   UNL     1     112.160 124.467 136.640  0.00  0.00    +0.000 OA
ATOM      6  C   UNL     1     109.972 126.449 135.969  0.00  0.00    +0.000 A 
ATOM      7  C   UNL     1     110.350 126.726 136.690  0.00  0.00    +0.000 A 
ATOM      8  C   UNL     1     110.250 125.727 135.595  0.00  0.00    +0.000 A 
ATOM      9  C   UNL     1     111.001 126.277 137.026  0.00  0.00    +0.000 A 
ATOM     10  C   UNL     1     111.267 125.584 136.667  0.00  0.00    +0.000 A 
ATOM     11  C   UNL     1     110.902 125.292 135.946  0.00  0.00    +0.000 A 
ATOM     12  C   UNL     1     111.893 125.161 136.999  0.00  0.00    +0.000 A 
ATOM     13  C   UNL     1     111.986 126.124 138.050  0.00  0.00    +0.000 A 
ATOM     14  C   UNL     1     112.252 125.431 137.691  0.00  0.00    +0.000 A 
ENDROOT
BRANCH  13  16
ATOM     15  O   UNL     1     113.422 127.205 140.817  0.00  0.00    +0.000 OA
ATOM     16  C   UNL     1     112.345 126.395 138.742  0.00  0.00    +0.000 A 
ATOM     17  C   UNL     1     111.980 126.270 139.472  0.00  0.00    +0.000 A 
ATOM     18  C   UNL     1     113.069 126.789 138.704  0.00  0.00    +0.000 A 
ATOM     19  C   UNL     1     112.339 126.540 140.164  0.00  0.00    +0.000 A 
ATOM     20  C   UNL     1     113.427 127.059 139.396  0.00  0.00    +0.000 A 
ATOM     21  C   UNL     1     113.063 126.935 140.126  0.00  0.00    +0.000 A 
BRANCH  19  22
ATOM     22  O   UNL     1     111.975 126.416 140.893  0.00  0.00    +0.000 OA
ATOM     23  C   UNL     1     111.176 126.595 140.991  0.00  0.00    +0.000 C 
ENDBRANCH  19  22
ENDBRANCH  13  16
BRANCH   6  24
ATOM     24  O   UNL     1     109.346 126.874 135.639  0.00  0.00    +0.000 OA
BRANCH  24  33
ATOM     25  O   UNL     1     110.095 127.977 135.125  0.00  0.00    +0.000 OA
ATOM     26  O   UNL     1     108.312 129.529 135.858  0.00  0.00    +0.000 OA
ATOM     27  O   UNL     1     109.655 130.114 135.101  0.00  0.00    +0.000 OA
ATOM     28  O   UNL     1     108.157 127.909 136.128  0.00  0.00    +0.000 OA
ATOM     29  C   UNL     1     108.906 129.012 135.614  0.00  0.00    +0.000 C 
ATOM     30  C   UNL     1     109.578 129.304 135.235  0.00  0.00    +0.000 C 
ATOM     31  C   UNL     1     108.829 128.201 135.749  0.00  0.00    +0.000 C 
ATOM     32  C   UNL     1     110.172 128.787 134.991  0.00  0.00    +0.000 C 
ATOM     33  C   UNL     1     109.423 127.683 135.504  0.00  0.00    +0.000 C 
BRANCH  32  35
ATOM     34  O   UNL     1     111.593 128.929 134.923  0.00  0.00    +0.000 OA
ATOM     35  C   UNL     1     110.843 129.080 134.612  0.00  0.00    +0.000 C 
ENDBRANCH  32  35
ENDBRANCH  24  33
ENDBRANCH   6  24
TORSDOF 5
ENDMDL
MODEL 6
REMARK VINA RESULT:      -9.0      8.968     11.133
REMARK  Name = 74208821
REMARK  5 active torsions:
REMARK  status: ('A' for Active; 'I' for Inactive)
REMARK    1  A    between atoms: O_2  and  C_18
REMARK    2  A    between atoms: O_2  and  C_20
REMARK    3  A    between atoms: O_12  and  C_32
REMARK    4  A    between atoms: C_17  and  C_19
REMARK    5  A    between atoms: C_27  and  C_29
REMARK                            x       y       z     vdW  Elec       q    Type
REMARK                         _______ _______ _______ _____ _____    ______ ____
ROOT
ATOM      1  O   UNL     1     110.921 126.199 136.836  0.00  0.00    +0.000 OA
ATOM      2  O   UNL     1     108.264 128.075 136.008  0.00  0.00    +0.000 OA
ATOM      3  O   UNL     1     108.732 126.771 135.040  0.00  0.00    +0.000 OA
ATOM      4  O   UNL     1     110.938 124.753 135.201  0.00  0.00    +0.000 OA
ATOM      5  O   UNL     1     109.632 125.672 134.790  0.00  0.00    +0.000 OA
ATOM      6  C   UNL     1     109.365 127.801 136.927  0.00  0.00    +0.000 A 
ATOM      7  C   UNL     1     110.045 127.317 137.135  0.00  0.00    +0.000 A 
ATOM      8  C   UNL     1     108.918 127.617 136.216  0.00  0.00    +0.000 A 
ATOM      9  C   UNL     1     110.268 126.659 136.631  0.00  0.00    +0.000 A 
ATOM     10  C   UNL     1     109.838 126.484 135.949  0.00  0.00    +0.000 A 
ATOM     11  C   UNL     1     109.156 126.955 135.724  0.00  0.00    +0.000 A 
ATOM     12  C   UNL     1     110.061 125.848 135.472  0.00  0.00    +0.000 A 
ATOM     13  C   UNL     1     111.145 125.564 136.360  0.00  0.00    +0.000 A 
ATOM     14  C   UNL     1     110.715 125.388 135.678  0.00  0.00    +0.000 A 
ENDROOT
BRANCH  13  16
ATOM     15  O   UNL     1     113.759 123.724 137.180  0.00  0.00    +0.000 OA
ATOM     16  C   UNL     1     111.798 125.104 136.565  0.00  0.00    +0.000 A 
ATOM     17  C   UNL     1     112.561 125.374 136.400  0.00  0.00    +0.000 A 
ATOM     18  C   UNL     1     111.690 124.374 136.935  0.00  0.00    +0.000 A 
ATOM     19  C   UNL     1     113.214 124.914 136.605  0.00  0.00    +0.000 A 
ATOM     20  C   UNL     1     112.343 123.915 137.140  0.00  0.00    +0.000 A 
ATOM     21  C   UNL     1     113.105 124.184 136.975  0.00  0.00    +0.000 A 
BRANCH  19  22
ATOM     22  O   UNL     1     113.976 125.183 136.440  0.00  0.00    +0.000 OA
ATOM     23  C   UNL     1     114.174 125.972 136.578  0.00  0.00    +0.000 C 
ENDBRANCH  19  22
ENDBRANCH  13  16
BRANCH   6  24
ATOM     24  O   UNL     1     109.144 128.435 137.405  0.00  0.00    +0.000 OA
BRANCH  24  33
ATOM     25  O   UNL     1     110.164 129.365 137.034  0.00  0.00    +0.000 OA
ATOM     26  O   UNL     1     110.442 130.008 139.407  0.00  0.00    +0.000 OA
ATOM     27  O   UNL     1     111.368 130.722 138.245  0.00  0.00    +0.000 OA
ATOM     28  O   UNL     1     109.329 128.864 138.988  0.00  0.00    +0.000 OA
ATOM     29  C   UNL     1     110.349 129.793 138.616  0.00  0.00    +0.000 C 
ATOM     30  C   UNL     1     110.812 130.150 138.035  0.00  0.00    +0.000 C 
ATOM     31  C   UNL     1     109.792 129.221 138.406  0.00  0.00    +0.000 C 
ATOM     32  C   UNL     1     110.720 129.936 137.243  0.00  0.00    +0.000 C 
ATOM     33  C   UNL     1     109.700 129.007 137.615  0.00  0.00    +0.000 C 
BRANCH  32  35
ATOM     34  O   UNL     1     110.841 130.532 135.950  0.00  0.00    +0.000 OA
ATOM     35  C   UNL     1     111.183 130.293 136.663  0.00  0.00    +0.000 C 
ENDBRANCH  32  35
ENDBRANCH  24  33
ENDBRANCH   6  24
TORSDOF 5
ENDMDL
MODEL 7
REMARK VINA RESULT:      -9.0      9.641     11.471
REMARK  Name = 74208821
REMARK  5 active torsions:
REMARK  status: ('A' for Active; 'I' for Inactive)
REMARK    1  A    between atoms: O_2  and  C_18
REMARK    2  A    between atoms: O_2  and  C_20
REMARK    3  A    between atoms: O_12  and  C_32
REMARK    4  A    between atoms: C_17  and  C_19
REMARK    5  A    between atoms: C_27  and  C_29
REMARK                            x       y       z     vdW  Elec       q    Type
REMARK                         _______ _______ _______ _____ _____    ______ ____
ROOT
ATOM      1  O   UNL     1     110.475 128.049 136.095  0.00  0.00    +0.000 OA
ATOM      2  O   UNL     1     109.275 131.181 136.247  0.00  0.00    +0.000 OA
ATOM      3  O   UNL     1     108.244 129.878 135.935  0.00  0.00    +0.000 OA
ATOM      4  O   UNL     1     108.653 126.923 135.674  0.00  0.00    +0.000 OA
ATOM      5  O   UNL     1     108.058 128.460 135.748  0.00  0.00    +0.000 OA
ATOM      6  C   UNL     1     110.414 130.271 136.331  0.00  0.00    +0.000 A 
ATOM      7  C   UNL     1     110.717 129.468 136.291  0.00  0.00    +0.000 A 
ATOM      8  C   UNL     1     109.575 130.413 136.211  0.00  0.00    +0.000 A 
ATOM      9  C   UNL     1     110.178 128.818 136.132  0.00  0.00    +0.000 A 
ATOM     10  C   UNL     1     109.372 128.955 136.016  0.00  0.00    +0.000 A 
ATOM     11  C   UNL     1     109.051 129.751 136.052  0.00  0.00    +0.000 A 
ATOM     12  C   UNL     1     108.864 128.324 135.864  0.00  0.00    +0.000 A 
ATOM     13  C   UNL     1     109.966 127.418 135.942  0.00  0.00    +0.000 A 
ATOM     14  C   UNL     1     109.161 127.555 135.826  0.00  0.00    +0.000 A 
ENDROOT
BRANCH  13  16
ATOM     15  O   UNL     1     111.154 124.342 135.795  0.00  0.00    +0.000 OA
ATOM     16  C   UNL     1     110.263 126.649 135.905  0.00  0.00    +0.000 A 
ATOM     17  C   UNL     1     110.437 126.240 136.601  0.00  0.00    +0.000 A 
ATOM     18  C   UNL     1     110.387 126.289 135.173  0.00  0.00    +0.000 A 
ATOM     19  C   UNL     1     110.734 125.471 136.564  0.00  0.00    +0.000 A 
ATOM     20  C   UNL     1     110.684 125.521 135.137  0.00  0.00    +0.000 A 
ATOM     21  C   UNL     1     110.857 125.111 135.832  0.00  0.00    +0.000 A 
BRANCH  19  22
ATOM     22  O   UNL     1     110.907 125.062 137.259  0.00  0.00    +0.000 OA
ATOM     23  C   UNL     1     111.111 125.477 137.942  0.00  0.00    +0.000 C 
ENDBRANCH  19  22
ENDBRANCH  13  16
BRANCH   6  24
ATOM     24  O   UNL     1     110.924 130.901 136.484  0.00  0.00    +0.000 OA
BRANCH  24  33
ATOM     25  O   UNL     1     111.130 130.755 137.890  0.00  0.00    +0.000 OA
ATOM     26  O   UNL     1     113.569 131.013 137.561  0.00  0.00    +0.000 OA
ATOM     27  O   UNL     1     112.961 130.781 139.076  0.00  0.00    +0.000 OA
ATOM     28  O   UNL     1     112.550 131.073 136.264  0.00  0.00    +0.000 OA
ATOM     29  C   UNL     1     112.756 130.927 137.671  0.00  0.00    +0.000 C 
ATOM     30  C   UNL     1     112.451 130.811 138.429  0.00  0.00    +0.000 C 
ATOM     31  C   UNL     1     112.246 130.957 137.022  0.00  0.00    +0.000 C 
ATOM     32  C   UNL     1     111.638 130.725 138.538  0.00  0.00    +0.000 C 
ATOM     33  C   UNL     1     111.433 130.871 137.132  0.00  0.00    +0.000 C 
BRANCH  32  35
ATOM     34  O   UNL     1     110.761 131.122 139.594  0.00  0.00    +0.000 OA
ATOM     35  C   UNL     1     111.335 130.609 139.296  0.00  0.00    +0.000 C 
ENDBRANCH  32  35
ENDBRANCH  24  33
ENDBRANCH   6  24
TORSDOF 5
ENDMDL
MODEL 8
REMARK VINA RESULT:      -9.0      9.259     11.193
REMARK  Name = 74208821
REMARK  5 active torsions:
REMARK  status: ('A' for Active; 'I' for Inactive)
REMARK    1  A    between atoms: O_2  and  C_18
REMARK    2  A    between atoms: O_2  and  C_20
REMARK    3  A    between atoms: O_12  and  C_32
REMARK    4  A    between atoms: C_17  and  C_19
REMARK    5  A    between atoms: C_27  and  C_29
REMARK                            x       y       z     vdW  Elec       q    Type
REMARK                         _______ _______ _______ _____ _____    ______ ____
ROOT
ATOM      1  O   UNL     1     112.231 128.738 137.069  0.00  0.00    +0.000 OA
ATOM      2  O   UNL     1     109.167 127.586 137.815  0.00  0.00    +0.000 OA
ATOM      3  O   UNL     1     109.384 129.178 137.290  0.00  0.00    +0.000 OA
ATOM      4  O   UNL     1     111.775 130.791 136.484  0.00  0.00    +0.000 OA
ATOM      5  O   UNL     1     110.267 130.230 136.850  0.00  0.00    +0.000 OA
ATOM      6  C   UNL     1     110.604 127.346 137.709  0.00  0.00    +0.000 A 
ATOM      7  C   UNL     1     111.387 127.645 137.517  0.00  0.00    +0.000 A 
ATOM      8  C   UNL     1     109.923 127.864 137.633  0.00  0.00    +0.000 A 
ATOM      9  C   UNL     1     111.477 128.457 137.252  0.00  0.00    +0.000 A 
ATOM     10  C   UNL     1     110.822 128.954 137.179  0.00  0.00    +0.000 A 
ATOM     11  C   UNL     1     110.033 128.673 137.366  0.00  0.00    +0.000 A 
ATOM     12  C   UNL     1     110.922 129.732 136.923  0.00  0.00    +0.000 A 
ATOM     13  C   UNL     1     112.330 129.516 136.813  0.00  0.00    +0.000 A 
ATOM     14  C   UNL     1     111.675 130.013 136.740  0.00  0.00    +0.000 A 
ENDROOT
BRANCH  13  16
ATOM     15  O   UNL     1     115.345 130.641 136.080  0.00  0.00    +0.000 OA
ATOM     16  C   UNL     1     113.084 129.798 136.630  0.00  0.00    +0.000 A 
ATOM     17  C   UNL     1     113.398 129.675 135.876  0.00  0.00    +0.000 A 
ATOM     18  C   UNL     1     113.523 130.201 137.200  0.00  0.00    +0.000 A 
ATOM     19  C   UNL     1     114.152 129.956 135.693  0.00  0.00    +0.000 A 
ATOM     20  C   UNL     1     114.276 130.482 137.016  0.00  0.00    +0.000 A 
ATOM     21  C   UNL     1     114.591 130.360 136.263  0.00  0.00    +0.000 A 
BRANCH  19  22
ATOM     22  O   UNL     1     114.466 129.834 134.941  0.00  0.00    +0.000 OA
ATOM     23  C   UNL     1     114.468 129.076 134.612  0.00  0.00    +0.000 C 
ENDBRANCH  19  22
ENDBRANCH  13  16
BRANCH   6  24
ATOM     24  O   UNL     1     110.507 126.568 137.965  0.00  0.00    +0.000 OA
BRANCH  24  33
ATOM     25  O   UNL     1     110.640 125.921 136.697  0.00  0.00    +0.000 OA
ATOM     26  O   UNL     1     111.974 124.124 137.755  0.00  0.00    +0.000 OA
ATOM     27  O   UNL     1     111.663 124.076 136.136  0.00  0.00    +0.000 OA
ATOM     28  O   UNL     1     111.397 125.370 138.670  0.00  0.00    +0.000 OA
ATOM     29  C   UNL     1     111.530 124.723 137.402  0.00  0.00    +0.000 C 
ATOM     30  C   UNL     1     111.374 124.699 136.593  0.00  0.00    +0.000 C 
ATOM     31  C   UNL     1     111.241 125.346 137.860  0.00  0.00    +0.000 C 
ATOM     32  C   UNL     1     110.929 125.298 136.240  0.00  0.00    +0.000 C 
ATOM     33  C   UNL     1     110.796 125.945 137.508  0.00  0.00    +0.000 C 
BRANCH  32  35
ATOM     34  O   UNL     1     110.012 125.425 135.152  0.00  0.00    +0.000 OA
ATOM     35  C   UNL     1     110.773 125.274 135.431  0.00  0.00    +0.000 C 
ENDBRANCH  32  35
ENDBRANCH  24  33
ENDBRANCH   6  24
TORSDOF 5
ENDMDL
MODEL 9
REMARK VINA RESULT:      -8.9     10.549     12.151
REMARK  Name = 74208821
REMARK  5 active torsions:
REMARK  status: ('A' for Active; 'I' for Inactive)
REMARK    1  A    between atoms: O_2  and  C_18
REMARK    2  A    between atoms: O_2  and  C_20
REMARK    3  A    between atoms: O_12  and  C_32
REMARK    4  A    between atoms: C_17  and  C_19
REMARK    5  A    between atoms: C_27  and  C_29
REMARK                            x       y       z     vdW  Elec       q    Type
REMARK                         _______ _______ _______ _____ _____    ______ ____
ROOT
ATOM      1  O   UNL     1     111.734 127.130 136.757  0.00  0.00    +0.000 OA
ATOM      2  O   UNL     1     110.618 130.181 135.910  0.00  0.00    +0.000 OA
ATOM      3  O   UNL     1     110.371 128.859 134.886  0.00  0.00    +0.000 OA
ATOM      4  O   UNL     1     111.088 125.955 135.035  0.00  0.00    +0.000 OA
ATOM      5  O   UNL     1     110.538 127.452 134.614  0.00  0.00    +0.000 OA
ATOM      6  C   UNL     1     111.310 129.322 136.867  0.00  0.00    +0.000 A 
ATOM      7  C   UNL     1     111.594 128.539 137.080  0.00  0.00    +0.000 A 
ATOM      8  C   UNL     1     110.895 129.433 136.123  0.00  0.00    +0.000 A 
ATOM      9  C   UNL     1     111.459 127.879 136.547  0.00  0.00    +0.000 A 
ATOM     10  C   UNL     1     111.060 127.987 135.833  0.00  0.00    +0.000 A 
ATOM     11  C   UNL     1     110.769 128.761 135.602  0.00  0.00    +0.000 A 
ATOM     12  C   UNL     1     110.937 127.345 135.329  0.00  0.00    +0.000 A 
ATOM     13  C   UNL     1     111.610 126.489 136.253  0.00  0.00    +0.000 A 
ATOM     14  C   UNL     1     111.211 126.596 135.539  0.00  0.00    +0.000 A 
ENDROOT
BRANCH  13  16
ATOM     15  O   UNL     1     112.711 123.493 137.093  0.00  0.00    +0.000 OA
ATOM     16  C   UNL     1     111.885 125.740 136.463  0.00  0.00    +0.000 A 
ATOM     17  C   UNL     1     112.673 125.536 136.324  0.00  0.00    +0.000 A 
ATOM     18  C   UNL     1     111.373 125.195 136.811  0.00  0.00    +0.000 A 
ATOM     19  C   UNL     1     112.948 124.787 136.534  0.00  0.00    +0.000 A 
ATOM     20  C   UNL     1     111.648 124.446 137.021  0.00  0.00    +0.000 A 
ATOM     21  C   UNL     1     112.436 124.242 136.883  0.00  0.00    +0.000 A 
BRANCH  19  22
ATOM     22  O   UNL     1     113.735 124.583 136.396  0.00  0.00    +0.000 OA
ATOM     23  C   UNL     1     114.338 125.115 136.581  0.00  0.00    +0.000 C 
ENDBRANCH  19  22
ENDBRANCH  13  16
BRANCH   6  24
ATOM     24  O   UNL     1     111.435 129.961 137.373  0.00  0.00    +0.000 OA
BRANCH  24  33
ATOM     25  O   UNL     1     112.810 130.207 137.070  0.00  0.00    +0.000 OA
ATOM     26  O   UNL     1     113.272 130.585 139.472  0.00  0.00    +0.000 OA
ATOM     27  O   UNL     1     114.492 130.704 138.368  0.00  0.00    +0.000 OA
ATOM     28  O   UNL     1     111.743 130.213 138.974  0.00  0.00    +0.000 OA
ATOM     29  C   UNL     1     113.118 130.459 138.671  0.00  0.00    +0.000 C 
ATOM     30  C   UNL     1     113.728 130.518 138.119  0.00  0.00    +0.000 C 
ATOM     31  C   UNL     1     112.353 130.273 138.422  0.00  0.00    +0.000 C 
ATOM     32  C   UNL     1     113.574 130.392 137.318  0.00  0.00    +0.000 C 
ATOM     33  C   UNL     1     112.199 130.147 137.621  0.00  0.00    +0.000 C 
BRANCH  32  35
ATOM     34  O   UNL     1     114.069 130.876 136.068  0.00  0.00    +0.000 OA
ATOM     35  C   UNL     1     114.183 130.452 136.767  0.00  0.00    +0.000 C 
ENDBRANCH  32  35
ENDBRANCH  24  33
ENDBRANCH   6  24
TORSDOF 5
ENDMDL
MODEL 10
REMARK VINA RESULT:      -8.8      9.099     11.719
REMARK  Name = 74208821
REMARK  5 active torsions:
REMARK  status: ('A' for Active; 'I' for Inactive)
REMARK    1  A    between atoms: O_2  and  C_18
REMARK    2  A    between atoms: O_2  and  C_20
REMARK    3  A    between atoms: O_12  and  C_32
REMARK    4  A    between atoms: C_17  and  C_19
REMARK    5  A    between atoms: C_27  and  C_29
REMARK                            x       y       z     vdW  Elec       q    Type
REMARK                         _______ _______ _______ _____ _____    ______ ____
ROOT
ATOM      1  O   UNL     1     111.832 127.014 136.229  0.00  0.00    +0.000 OA
ATOM      2  O   UNL     1     112.652 130.126 135.274  0.00  0.00    +0.000 OA
ATOM      3  O   UNL     1     113.842 129.040 135.784  0.00  0.00    +0.000 OA
ATOM      4  O   UNL     1     113.792 126.202 136.739  0.00  0.00    +0.000 OA
ATOM      5  O   UNL     1     114.201 127.730 136.271  0.00  0.00    +0.000 OA
ATOM      6  C   UNL     1     111.622 129.114 135.493  0.00  0.00    +0.000 A 
ATOM      7  C   UNL     1     111.416 128.316 135.738  0.00  0.00    +0.000 A 
ATOM      8  C   UNL     1     112.445 129.362 135.508  0.00  0.00    +0.000 A 
ATOM      9  C   UNL     1     112.035 127.778 135.995  0.00  0.00    +0.000 A 
ATOM     10  C   UNL     1     112.825 128.017 136.008  0.00  0.00    +0.000 A 
ATOM     11  C   UNL     1     113.050 128.810 135.767  0.00  0.00    +0.000 A 
ATOM     12  C   UNL     1     113.410 127.492 136.257  0.00  0.00    +0.000 A 
ATOM     13  C   UNL     1     112.417 126.488 136.477  0.00  0.00    +0.000 A 
ATOM     14  C   UNL     1     113.207 126.727 136.491  0.00  0.00    +0.000 A 
ENDROOT
BRANCH  13  16
ATOM     15  O   UNL     1     111.602 123.431 137.415  0.00  0.00    +0.000 OA
ATOM     16  C   UNL     1     112.214 125.724 136.711  0.00  0.00    +0.000 A 
ATOM     17  C   UNL     1     111.834 125.602 137.434  0.00  0.00    +0.000 A 
ATOM     18  C   UNL     1     112.389 125.082 136.224  0.00  0.00    +0.000 A 
ATOM     19  C   UNL     1     111.630 124.837 137.668  0.00  0.00    +0.000 A 
ATOM     20  C   UNL     1     112.186 124.318 136.459  0.00  0.00    +0.000 A 
ATOM     21  C   UNL     1     111.806 124.196 137.181  0.00  0.00    +0.000 A 
BRANCH  19  22
ATOM     22  O   UNL     1     111.250 124.715 138.390  0.00  0.00    +0.000 OA
ATOM     23  C   UNL     1     110.877 125.344 138.772  0.00  0.00    +0.000 C 
ENDBRANCH  19  22
ENDBRANCH  13  16
BRANCH   6  24
ATOM     24  O   UNL     1     111.035 129.637 135.245  0.00  0.00    +0.000 OA
BRANCH  24  33
ATOM     25  O   UNL     1     110.483 129.984 136.517  0.00  0.00    +0.000 OA
ATOM     26  O   UNL     1     108.200 129.784 135.581  0.00  0.00    +0.000 OA
ATOM     27  O   UNL     1     108.410 130.198 137.164  0.00  0.00    +0.000 OA
ATOM     28  O   UNL     1     109.513 129.504 134.621  0.00  0.00    +0.000 OA
ATOM     29  C   UNL     1     108.961 129.851 135.893  0.00  0.00    +0.000 C 
ATOM     30  C   UNL     1     109.066 130.058 136.685  0.00  0.00    +0.000 C 
ATOM     31  C   UNL     1     109.618 129.711 135.413  0.00  0.00    +0.000 C 
ATOM     32  C   UNL     1     109.827 130.124 136.997  0.00  0.00    +0.000 C 
ATOM     33  C   UNL     1     110.379 129.777 135.725  0.00  0.00    +0.000 C 
BRANCH  32  35
ATOM     34  O   UNL     1     110.517 130.873 138.000  0.00  0.00    +0.000 OA
ATOM     35  C   UNL     1     109.932 130.331 137.788  0.00  0.00    +0.000 C 
ENDBRANCH  32  35
ENDBRANCH  24  33
ENDBRANCH   6  24
TORSDOF 5
ENDMDL
