MODEL 1
REMARK VINA RESULT:     -10.3      0.000      0.000
REMARK  Name = 5748393
REMARK  11 active torsions:
REMARK  status: ('A' for Active; 'I' for Inactive)
REMARK    1  A    between atoms: O_1  and  C_20
REMARK    2  A    between atoms: O_1  and  C_25
REMARK    3  A    between atoms: O_4  and  C_23
REMARK    4  A    between atoms: O_4  and  C_36
REMARK    5  A    between atoms: O_10  and  C_35
REMARK    6  A    between atoms: O_10  and  C_38
REMARK    7  A    between atoms: O_19  and  C_54
REMARK    8  A    between atoms: C_34  and  C_37
REMARK    9  A    between atoms: C_40  and  C_47
REMARK   10  A    between atoms: C_43  and  C_46
REMARK   11  A    between atoms: C_46  and  C_48
REMARK                            x       y       z     vdW  Elec       q    Type
REMARK                         _______ _______ _______ _____ _____    ______ ____
ROOT
ATOM      1  O   UNL     1     111.511 129.468 137.244  0.00  0.00    +0.000 OA
ATOM      2  O   UNL     1     110.909 127.203 138.041  0.00  0.00    +0.000 OA
ATOM      3  O   UNL     1     109.894 127.747 138.910  0.00  0.00    +0.000 OA
ATOM      4  C   UNL     1     111.709 128.054 137.217  0.00  0.00    +0.000 A 
ATOM      5  C   UNL     1     109.878 129.975 138.682  0.00  0.00    +0.000 A 
ATOM      6  C   UNL     1     111.110 127.958 137.775  0.00  0.00    +0.000 A 
ATOM      7  C   UNL     1     111.910 128.808 136.951  0.00  0.00    +0.000 A 
ATOM      8  C   UNL     1     110.711 128.618 138.068  0.00  0.00    +0.000 A 
ATOM      9  C   UNL     1     110.911 129.373 137.803  0.00  0.00    +0.000 A 
ATOM     10  C   UNL     1     110.503 130.068 138.100  0.00  0.00    +0.000 A 
ATOM     11  C   UNL     1     110.088 128.505 138.650  0.00  0.00    +0.000 A 
ATOM     12  C   UNL     1     109.668 129.189 138.960  0.00  0.00    +0.000 A 
ENDROOT
BRANCH   7  13
ATOM     13  C   UNL     1     112.509 128.904 136.392  0.00  0.00    +0.000 A 
ATOM     14  C   UNL     1     112.319 128.985 135.594  0.00  0.00    +0.000 A 
ATOM     15  C   UNL     1     113.299 128.918 136.631  0.00  0.00    +0.000 A 
ATOM     16  C   UNL     1     112.919 129.081 135.034  0.00  0.00    +0.000 A 
ATOM     17  C   UNL     1     113.897 129.014 136.073  0.00  0.00    +0.000 A 
ATOM     18  C   UNL     1     113.707 129.095 135.274  0.00  0.00    +0.000 A 
BRANCH  18  19
ATOM     19  O   UNL     1     114.307 129.190 134.715  0.00  0.00    +0.000 OA
ATOM     20  C   UNL     1     114.783 129.864 134.733  0.00  0.00    +0.000 C 
ENDBRANCH  18  19
ENDBRANCH   7  13
BRANCH   4  21
ATOM     21  O   UNL     1     112.108 127.394 136.923  0.00  0.00    +0.000 OA
BRANCH  21  28
ATOM     22  O   UNL     1     111.090 126.968 136.016  0.00  0.00    +0.000 OA
ATOM     23  O   UNL     1     111.623 124.606 136.526  0.00  0.00    +0.000 OA
ATOM     24  O   UNL     1     110.426 124.967 135.449  0.00  0.00    +0.000 OA
ATOM     25  C   UNL     1     111.866 125.999 136.725  0.00  0.00    +0.000 C 
ATOM     26  C   UNL     1     111.445 125.393 136.356  0.00  0.00    +0.000 C 
ATOM     27  C   UNL     1     110.847 125.574 135.818  0.00  0.00    +0.000 C 
ATOM     28  C   UNL     1     111.688 126.787 136.555  0.00  0.00    +0.000 C 
ATOM     29  C   UNL     1     110.670 126.361 135.648  0.00  0.00    +0.000 C 
ATOM     30  C   UNL     1     110.071 126.542 135.109  0.00  0.00    +0.000 C 
BRANCH  25  31
ATOM     31  O   UNL     1     112.464 125.819 137.263  0.00  0.00    +0.000 OA
BRANCH  31  36
ATOM     32  O   UNL     1     113.366 125.577 136.181  0.00  0.00    +0.000 OA
ATOM     33  O   UNL     1     113.651 125.427 138.340  0.00  0.00    +0.000 OA
ATOM     34  O   UNL     1     115.146 124.990 137.796  0.00  0.00    +0.000 OA
ATOM     35  O   UNL     1     115.454 124.944 136.175  0.00  0.00    +0.000 OA
ATOM     36  C   UNL     1     113.211 125.600 136.991  0.00  0.00    +0.000 C 
ATOM     37  C   UNL     1     113.806 125.404 137.530  0.00  0.00    +0.000 C 
ATOM     38  C   UNL     1     114.553 125.186 137.258  0.00  0.00    +0.000 C 
ATOM     39  C   UNL     1     114.706 125.163 136.447  0.00  0.00    +0.000 C 
ATOM     40  C   UNL     1     114.113 125.359 135.909  0.00  0.00    +0.000 C 
ENDBRANCH  31  36
ENDBRANCH  25  31
ENDBRANCH  21  28
ENDBRANCH   4  21
BRANCH   5  41
ATOM     41  O   UNL     1     109.480 130.637 138.974  0.00  0.00    +0.000 OA
BRANCH  41  50
ATOM     42  O   UNL     1     110.014 130.731 140.297  0.00  0.00    +0.000 OA
ATOM     43  O   UNL     1     107.723 130.980 141.202  0.00  0.00    +0.000 OA
ATOM     44  O   UNL     1     109.019 130.991 142.223  0.00  0.00    +0.000 OA
ATOM     45  O   UNL     1     107.954 130.803 139.578  0.00  0.00    +0.000 OA
ATOM     46  C   UNL     1     108.487 130.897 140.900  0.00  0.00    +0.000 C 
ATOM     47  C   UNL     1     109.135 130.902 141.411  0.00  0.00    +0.000 C 
ATOM     48  C   UNL     1     108.602 130.808 140.088  0.00  0.00    +0.000 C 
ATOM     49  C   UNL     1     109.898 130.819 141.109  0.00  0.00    +0.000 C 
ATOM     50  C   UNL     1     109.366 130.725 139.787  0.00  0.00    +0.000 C 
BRANCH  49  52
ATOM     51  O   UNL     1     111.231 131.238 141.413  0.00  0.00    +0.000 OA
ATOM     52  C   UNL     1     110.546 130.824 141.620  0.00  0.00    +0.000 C 
ENDBRANCH  49  52
ENDBRANCH  41  50
ENDBRANCH   5  41
BRANCH  10  53
ATOM     53  C   UNL     1     110.710 130.819 137.829  0.00  0.00    +0.000 C 
BRANCH  53  54
ATOM     54  C   UNL     1     110.266 131.179 137.234  0.00  0.00    +0.000 C 
ATOM     55  C   UNL     1     110.493 131.916 136.940  0.00  0.00    +0.000 C 
ATOM     56  C   UNL     1     110.049 132.276 136.344  0.00  0.00    +0.000 C 
ATOM     57  C   UNL     1     111.161 132.293 137.241  0.00  0.00    +0.000 C 
ENDBRANCH  53  54
ENDBRANCH  10  53
TORSDOF 11
ENDMDL
MODEL 2
REMARK VINA RESULT:     -10.1      2.046      4.356
REMARK  Name = 5748393
REMARK  11 active torsions:
REMARK  status: ('A' for Active; 'I' for Inactive)
REMARK    1  A    between atoms: O_1  and  C_20
REMARK    2  A    between atoms: O_1  and  C_25
REMARK    3  A    between atoms: O_4  and  C_23
REMARK    4  A    between atoms: O_4  and  C_36
REMARK    5  A    between atoms: O_10  and  C_35
REMARK    6  A    between atoms: O_10  and  C_38
REMARK    7  A    between atoms: O_19  and  C_54
REMARK    8  A    between atoms: C_34  and  C_37
REMARK    9  A    between atoms: C_40  and  C_47
REMARK   10  A    between atoms: C_43  and  C_46
REMARK   11  A    between atoms: C_46  and  C_48
REMARK                            x       y       z     vdW  Elec       q    Type
REMARK                         _______ _______ _______ _____ _____    ______ ____
ROOT
ATOM      1  O   UNL     1     112.562 127.702 139.255  0.00  0.00    +0.000 OA
ATOM      2  O   UNL     1     111.500 129.458 137.870  0.00  0.00    +0.000 OA
ATOM      3  O   UNL     1     111.755 130.452 138.885  0.00  0.00    +0.000 OA
ATOM      4  C   UNL     1     111.899 128.098 138.053  0.00  0.00    +0.000 A 
ATOM      5  C   UNL     1     112.800 129.467 140.604  0.00  0.00    +0.000 A 
ATOM      6  C   UNL     1     111.854 128.872 138.332  0.00  0.00    +0.000 A 
ATOM      7  C   UNL     1     112.253 127.512 138.514  0.00  0.00    +0.000 A 
ATOM      8  C   UNL     1     112.163 129.062 139.072  0.00  0.00    +0.000 A 
ATOM      9  C   UNL     1     112.517 128.478 139.534  0.00  0.00    +0.000 A 
ATOM     10  C   UNL     1     112.843 128.662 140.308  0.00  0.00    +0.000 A 
ATOM     11  C   UNL     1     112.111 129.873 139.352  0.00  0.00    +0.000 A 
ATOM     12  C   UNL     1     112.431 130.078 140.124  0.00  0.00    +0.000 A 
ENDROOT
BRANCH   7  13
ATOM     13  C   UNL     1     112.297 126.738 138.235  0.00  0.00    +0.000 A 
ATOM     14  C   UNL     1     112.971 126.482 137.834  0.00  0.00    +0.000 A 
ATOM     15  C   UNL     1     111.668 126.218 138.356  0.00  0.00    +0.000 A 
ATOM     16  C   UNL     1     113.017 125.707 137.554  0.00  0.00    +0.000 A 
ATOM     17  C   UNL     1     111.713 125.443 138.077  0.00  0.00    +0.000 A 
ATOM     18  C   UNL     1     112.387 125.188 137.676  0.00  0.00    +0.000 A 
BRANCH  18  19
ATOM     19  O   UNL     1     112.432 124.412 137.396  0.00  0.00    +0.000 OA
ATOM     20  C   UNL     1     111.766 124.054 137.066  0.00  0.00    +0.000 C 
ENDBRANCH  18  19
ENDBRANCH   7  13
BRANCH   4  21
ATOM     21  O   UNL     1     111.589 127.908 137.312  0.00  0.00    +0.000 OA
BRANCH  21  28
ATOM     22  O   UNL     1     112.662 128.484 136.564  0.00  0.00    +0.000 OA
ATOM     23  O   UNL     1     111.077 129.104 134.767  0.00  0.00    +0.000 OA
ATOM     24  O   UNL     1     112.679 129.473 134.618  0.00  0.00    +0.000 OA
ATOM     25  C   UNL     1     111.333 128.506 136.039  0.00  0.00    +0.000 C 
ATOM     26  C   UNL     1     111.606 128.897 135.366  0.00  0.00    +0.000 C 
ATOM     27  C   UNL     1     112.406 129.082 135.291  0.00  0.00    +0.000 C 
ATOM     28  C   UNL     1     111.861 128.299 136.638  0.00  0.00    +0.000 C 
ATOM     29  C   UNL     1     112.934 128.875 135.890  0.00  0.00    +0.000 C 
ATOM     30  C   UNL     1     113.735 129.059 135.816  0.00  0.00    +0.000 C 
BRANCH  25  31
ATOM     31  O   UNL     1     110.533 128.322 136.114  0.00  0.00    +0.000 OA
BRANCH  31  36
ATOM     32  O   UNL     1     110.706 127.204 135.240  0.00  0.00    +0.000 OA
ATOM     33  O   UNL     1     108.962 127.882 136.363  0.00  0.00    +0.000 OA
ATOM     34  O   UNL     1     108.350 126.545 135.614  0.00  0.00    +0.000 OA
ATOM     35  O   UNL     1     109.310 125.648 134.615  0.00  0.00    +0.000 OA
ATOM     36  C   UNL     1     110.227 127.653 135.739  0.00  0.00    +0.000 C 
ATOM     37  C   UNL     1     109.441 127.433 135.864  0.00  0.00    +0.000 C 
ATOM     38  C   UNL     1     109.135 126.765 135.489  0.00  0.00    +0.000 C 
ATOM     39  C   UNL     1     109.616 126.316 134.990  0.00  0.00    +0.000 C 
ATOM     40  C   UNL     1     110.400 126.536 134.866  0.00  0.00    +0.000 C 
ENDBRANCH  31  36
ENDBRANCH  25  31
ENDBRANCH  21  28
ENDBRANCH   4  21
BRANCH   5  41
ATOM     41  O   UNL     1     113.110 129.654 141.345  0.00  0.00    +0.000 OA
BRANCH  41  50
ATOM     42  O   UNL     1     111.942 129.868 142.142  0.00  0.00    +0.000 OA
ATOM     43  O   UNL     1     112.851 132.047 142.887  0.00  0.00    +0.000 OA
ATOM     44  O   UNL     1     111.381 131.535 143.435  0.00  0.00    +0.000 OA
ATOM     45  O   UNL     1     113.715 131.106 141.842  0.00  0.00    +0.000 OA
ATOM     46  C   UNL     1     112.548 131.321 142.638  0.00  0.00    +0.000 C 
ATOM     47  C   UNL     1     111.813 131.065 142.912  0.00  0.00    +0.000 C 
ATOM     48  C   UNL     1     112.980 130.850 142.116  0.00  0.00    +0.000 C 
ATOM     49  C   UNL     1     111.510 130.339 142.664  0.00  0.00    +0.000 C 
ATOM     50  C   UNL     1     112.677 130.124 141.868  0.00  0.00    +0.000 C 
BRANCH  49  52
ATOM     51  O   UNL     1     110.664 129.291 143.143  0.00  0.00    +0.000 OA
ATOM     52  C   UNL     1     110.775 130.083 142.938  0.00  0.00    +0.000 C 
ENDBRANCH  49  52
ENDBRANCH  41  50
ENDBRANCH   5  41
BRANCH  10  53
ATOM     53  C   UNL     1     113.195 128.070 140.762  0.00  0.00    +0.000 C 
BRANCH  53  54
ATOM     54  C   UNL     1     113.997 127.902 140.669  0.00  0.00    +0.000 C 
ATOM     55  C   UNL     1     114.330 127.255 141.059  0.00  0.00    +0.000 C 
ATOM     56  C   UNL     1     115.133 127.087 140.966  0.00  0.00    +0.000 C 
ATOM     57  C   UNL     1     113.862 126.778 141.542  0.00  0.00    +0.000 C 
ENDBRANCH  53  54
ENDBRANCH  10  53
TORSDOF 11
ENDMDL
MODEL 3
REMARK VINA RESULT:      -9.8      1.564      6.676
REMARK  Name = 5748393
REMARK  11 active torsions:
REMARK  status: ('A' for Active; 'I' for Inactive)
REMARK    1  A    between atoms: O_1  and  C_20
REMARK    2  A    between atoms: O_1  and  C_25
REMARK    3  A    between atoms: O_4  and  C_23
REMARK    4  A    between atoms: O_4  and  C_36
REMARK    5  A    between atoms: O_10  and  C_35
REMARK    6  A    between atoms: O_10  and  C_38
REMARK    7  A    between atoms: O_19  and  C_54
REMARK    8  A    between atoms: C_34  and  C_37
REMARK    9  A    between atoms: C_40  and  C_47
REMARK   10  A    between atoms: C_43  and  C_46
REMARK   11  A    between atoms: C_46  and  C_48
REMARK                            x       y       z     vdW  Elec       q    Type
REMARK                         _______ _______ _______ _____ _____    ______ ____
ROOT
ATOM      1  O   UNL     1     111.433 128.784 138.559  0.00  0.00    +0.000 OA
ATOM      2  O   UNL     1     110.907 127.475 140.592  0.00  0.00    +0.000 OA
ATOM      3  O   UNL     1     111.732 126.382 140.137  0.00  0.00    +0.000 OA
ATOM      4  C   UNL     1     110.759 128.663 139.813  0.00  0.00    +0.000 A 
ATOM      5  C   UNL     1     112.616 126.932 138.154  0.00  0.00    +0.000 A 
ATOM      6  C   UNL     1     111.082 127.912 139.915  0.00  0.00    +0.000 A 
ATOM      7  C   UNL     1     110.934 129.100 139.135  0.00  0.00    +0.000 A 
ATOM      8  C   UNL     1     111.582 127.596 139.339  0.00  0.00    +0.000 A 
ATOM      9  C   UNL     1     111.757 128.032 138.661  0.00  0.00    +0.000 A 
ATOM     10  C   UNL     1     112.276 127.715 138.053  0.00  0.00    +0.000 A 
ATOM     11  C   UNL     1     111.912 126.812 139.457  0.00  0.00    +0.000 A 
ATOM     12  C   UNL     1     112.433 126.477 138.860  0.00  0.00    +0.000 A 
ENDROOT
BRANCH   7  13
ATOM     13  C   UNL     1     110.611 129.851 139.033  0.00  0.00    +0.000 A 
ATOM     14  C   UNL     1     111.034 130.518 139.270  0.00  0.00    +0.000 A 
ATOM     15  C   UNL     1     109.864 129.937 138.693  0.00  0.00    +0.000 A 
ATOM     16  C   UNL     1     110.711 131.271 139.168  0.00  0.00    +0.000 A 
ATOM     17  C   UNL     1     109.540 130.689 138.591  0.00  0.00    +0.000 A 
ATOM     18  C   UNL     1     109.964 131.356 138.829  0.00  0.00    +0.000 A 
BRANCH  18  19
ATOM     19  O   UNL     1     109.640 132.108 138.727  0.00  0.00    +0.000 OA
ATOM     20  C   UNL     1     109.672 132.474 137.988  0.00  0.00    +0.000 C 
ENDBRANCH  18  19
ENDBRANCH   7  13
BRANCH   4  21
ATOM     21  O   UNL     1     110.260 128.979 140.389  0.00  0.00    +0.000 OA
BRANCH  21  28
ATOM     22  O   UNL     1     111.306 129.223 141.331  0.00  0.00    +0.000 OA
ATOM     23  O   UNL     1     109.715 128.854 143.191  0.00  0.00    +0.000 OA
ATOM     24  O   UNL     1     111.291 129.222 143.514  0.00  0.00    +0.000 OA
ATOM     25  C   UNL     1     109.987 128.916 141.790  0.00  0.00    +0.000 C 
ATOM     26  C   UNL     1     110.246 128.977 142.571  0.00  0.00    +0.000 C 
ATOM     27  C   UNL     1     111.033 129.161 142.733  0.00  0.00    +0.000 C 
ATOM     28  C   UNL     1     110.517 129.039 141.170  0.00  0.00    +0.000 C 
ATOM     29  C   UNL     1     111.563 129.284 142.113  0.00  0.00    +0.000 C 
ATOM     30  C   UNL     1     112.352 129.468 142.274  0.00  0.00    +0.000 C 
BRANCH  25  31
ATOM     31  O   UNL     1     109.200 128.733 141.629  0.00  0.00    +0.000 OA
BRANCH  31  36
ATOM     32  O   UNL     1     108.822 130.077 141.933  0.00  0.00    +0.000 OA
ATOM     33  O   UNL     1     107.643 128.393 141.201  0.00  0.00    +0.000 OA
ATOM     34  O   UNL     1     106.487 129.567 141.291  0.00  0.00    +0.000 OA
ATOM     35  O   UNL     1     106.889 131.082 141.809  0.00  0.00    +0.000 OA
ATOM     36  C   UNL     1     108.622 129.320 141.674  0.00  0.00    +0.000 C 
ATOM     37  C   UNL     1     107.843 129.150 141.460  0.00  0.00    +0.000 C 
ATOM     38  C   UNL     1     107.265 129.737 141.505  0.00  0.00    +0.000 C 
ATOM     39  C   UNL     1     107.466 130.495 141.764  0.00  0.00    +0.000 C 
ATOM     40  C   UNL     1     108.244 130.665 141.978  0.00  0.00    +0.000 C 
ENDBRANCH  31  36
ENDBRANCH  25  31
ENDBRANCH  21  28
ENDBRANCH   4  21
BRANCH   5  41
ATOM     41  O   UNL     1     113.115 126.619 137.576  0.00  0.00    +0.000 OA
BRANCH  41  50
ATOM     42  O   UNL     1     112.317 125.555 137.050  0.00  0.00    +0.000 OA
ATOM     43  O   UNL     1     114.244 124.014 137.250  0.00  0.00    +0.000 OA
ATOM     44  O   UNL     1     112.806 123.464 136.658  0.00  0.00    +0.000 OA
ATOM     45  O   UNL     1     114.398 125.591 137.709  0.00  0.00    +0.000 OA
ATOM     46  C   UNL     1     113.602 124.527 137.184  0.00  0.00    +0.000 C 
ATOM     47  C   UNL     1     112.883 124.252 136.887  0.00  0.00    +0.000 C 
ATOM     48  C   UNL     1     113.679 125.316 137.413  0.00  0.00    +0.000 C 
ATOM     49  C   UNL     1     112.240 124.766 136.821  0.00  0.00    +0.000 C 
ATOM     50  C   UNL     1     113.037 125.830 137.347  0.00  0.00    +0.000 C 
BRANCH  49  52
ATOM     51  O   UNL     1     111.082 124.960 136.006  0.00  0.00    +0.000 OA
ATOM     52  C   UNL     1     111.521 124.491 136.525  0.00  0.00    +0.000 C 
ENDBRANCH  49  52
ENDBRANCH  41  50
ENDBRANCH   5  41
BRANCH  10  53
ATOM     53  C   UNL     1     112.446 128.158 137.379  0.00  0.00    +0.000 C 
BRANCH  53  54
ATOM     54  C   UNL     1     113.125 128.625 137.354  0.00  0.00    +0.000 C 
ATOM     55  C   UNL     1     113.284 129.085 136.686  0.00  0.00    +0.000 C 
ATOM     56  C   UNL     1     113.963 129.552 136.661  0.00  0.00    +0.000 C 
ATOM     57  C   UNL     1     112.765 129.077 136.046  0.00  0.00    +0.000 C 
ENDBRANCH  53  54
ENDBRANCH  10  53
TORSDOF 11
ENDMDL
MODEL 4
REMARK VINA RESULT:      -9.7      2.121      6.103
REMARK  Name = 5748393
REMARK  11 active torsions:
REMARK  status: ('A' for Active; 'I' for Inactive)
REMARK    1  A    between atoms: O_1  and  C_20
REMARK    2  A    between atoms: O_1  and  C_25
REMARK    3  A    between atoms: O_4  and  C_23
REMARK    4  A    between atoms: O_4  and  C_36
REMARK    5  A    between atoms: O_10  and  C_35
REMARK    6  A    between atoms: O_10  and  C_38
REMARK    7  A    between atoms: O_19  and  C_54
REMARK    8  A    between atoms: C_34  and  C_37
REMARK    9  A    between atoms: C_40  and  C_47
REMARK   10  A    between atoms: C_43  and  C_46
REMARK   11  A    between atoms: C_46  and  C_48
REMARK                            x       y       z     vdW  Elec       q    Type
REMARK                         _______ _______ _______ _____ _____    ______ ____
ROOT
ATOM      1  O   UNL     1     112.723 128.911 138.386  0.00  0.00    +0.000 OA
ATOM      2  O   UNL     1     110.566 128.827 139.598  0.00  0.00    +0.000 OA
ATOM      3  O   UNL     1     109.920 128.212 138.464  0.00  0.00    +0.000 OA
ATOM      4  C   UNL     1     111.952 129.174 139.560  0.00  0.00    +0.000 A 
ATOM      5  C   UNL     1     111.431 127.961 136.830  0.00  0.00    +0.000 A 
ATOM      6  C   UNL     1     111.286 128.856 139.194  0.00  0.00    +0.000 A 
ATOM      7  C   UNL     1     112.671 129.202 139.157  0.00  0.00    +0.000 A 
ATOM      8  C   UNL     1     111.337 128.565 138.424  0.00  0.00    +0.000 A 
ATOM      9  C   UNL     1     112.056 128.593 138.019  0.00  0.00    +0.000 A 
ATOM     10  C   UNL     1     112.123 128.294 137.217  0.00  0.00    +0.000 A 
ATOM     11  C   UNL     1     110.635 128.236 138.053  0.00  0.00    +0.000 A 
ATOM     12  C   UNL     1     110.682 127.932 137.250  0.00  0.00    +0.000 A 
ENDROOT
BRANCH   7  13
ATOM     13  C   UNL     1     113.338 129.520 139.523  0.00  0.00    +0.000 A 
ATOM     14  C   UNL     1     113.495 130.328 139.464  0.00  0.00    +0.000 A 
ATOM     15  C   UNL     1     113.849 129.031 139.948  0.00  0.00    +0.000 A 
ATOM     16  C   UNL     1     114.163 130.646 139.830  0.00  0.00    +0.000 A 
ATOM     17  C   UNL     1     114.515 129.349 140.314  0.00  0.00    +0.000 A 
ATOM     18  C   UNL     1     114.673 130.157 140.255  0.00  0.00    +0.000 A 
BRANCH  18  19
ATOM     19  O   UNL     1     115.340 130.476 140.622  0.00  0.00    +0.000 OA
ATOM     20  C   UNL     1     115.291 131.204 141.006  0.00  0.00    +0.000 C 
ENDBRANCH  18  19
ENDBRANCH   7  13
BRANCH   4  21
ATOM     21  O   UNL     1     111.901 129.464 140.331  0.00  0.00    +0.000 OA
BRANCH  21  28
ATOM     22  O   UNL     1     111.784 128.172 140.930  0.00  0.00    +0.000 OA
ATOM     23  O   UNL     1     110.435 129.144 142.763  0.00  0.00    +0.000 OA
ATOM     24  O   UNL     1     110.768 127.528 142.752  0.00  0.00    +0.000 OA
ATOM     25  C   UNL     1     111.167 129.305 141.547  0.00  0.00    +0.000 C 
ATOM     26  C   UNL     1     110.885 128.820 142.152  0.00  0.00    +0.000 C 
ATOM     27  C   UNL     1     111.051 128.013 142.147  0.00  0.00    +0.000 C 
ATOM     28  C   UNL     1     111.617 128.981 140.936  0.00  0.00    +0.000 C 
ATOM     29  C   UNL     1     111.501 127.689 141.536  0.00  0.00    +0.000 C 
ATOM     30  C   UNL     1     111.668 126.880 141.530  0.00  0.00    +0.000 C 
BRANCH  25  31
ATOM     31  O   UNL     1     111.001 130.112 141.553  0.00  0.00    +0.000 OA
BRANCH  31  36
ATOM     32  O   UNL     1     111.955 130.302 142.600  0.00  0.00    +0.000 OA
ATOM     33  O   UNL     1     110.723 131.738 141.511  0.00  0.00    +0.000 OA
ATOM     34  O   UNL     1     111.538 132.741 142.538  0.00  0.00    +0.000 OA
ATOM     35  O   UNL     1     112.630 132.117 143.606  0.00  0.00    +0.000 OA
ATOM     36  C   UNL     1     111.408 130.613 142.066  0.00  0.00    +0.000 C 
ATOM     37  C   UNL     1     111.269 131.427 142.045  0.00  0.00    +0.000 C 
ATOM     38  C   UNL     1     111.677 131.928 142.559  0.00  0.00    +0.000 C 
ATOM     39  C   UNL     1     112.223 131.616 143.093  0.00  0.00    +0.000 C 
ATOM     40  C   UNL     1     112.362 130.804 143.113  0.00  0.00    +0.000 C 
ENDBRANCH  31  36
ENDBRANCH  25  31
ENDBRANCH  21  28
ENDBRANCH   4  21
BRANCH   5  41
ATOM     41  O   UNL     1     111.486 127.672 136.059  0.00  0.00    +0.000 OA
BRANCH  41  50
ATOM     42  O   UNL     1     111.599 126.262 136.271  0.00  0.00    +0.000 OA
ATOM     43  O   UNL     1     109.804 125.870 134.613  0.00  0.00    +0.000 OA
ATOM     44  O   UNL     1     110.514 124.592 135.377  0.00  0.00    +0.000 OA
ATOM     45  O   UNL     1     110.290 127.410 134.954  0.00  0.00    +0.000 OA
ATOM     46  C   UNL     1     110.402 126.001 135.166  0.00  0.00    +0.000 C 
ATOM     47  C   UNL     1     110.757 125.362 135.548  0.00  0.00    +0.000 C 
ATOM     48  C   UNL     1     110.645 126.771 135.336  0.00  0.00    +0.000 C 
ATOM     49  C   UNL     1     111.355 125.493 136.101  0.00  0.00    +0.000 C 
ATOM     50  C   UNL     1     111.243 126.901 135.889  0.00  0.00    +0.000 C 
BRANCH  49  52
ATOM     51  O   UNL     1     111.612 124.753 137.297  0.00  0.00    +0.000 OA
ATOM     52  C   UNL     1     111.711 124.854 136.483  0.00  0.00    +0.000 C 
ENDBRANCH  49  52
ENDBRANCH  41  50
ENDBRANCH   5  41
BRANCH  10  53
ATOM     53  C   UNL     1     112.845 128.326 136.821  0.00  0.00    +0.000 C 
BRANCH  53  54
ATOM     54  C   UNL     1     113.017 128.965 136.328  0.00  0.00    +0.000 C 
ATOM     55  C   UNL     1     113.739 128.995 135.929  0.00  0.00    +0.000 C 
ATOM     56  C   UNL     1     113.911 129.634 135.436  0.00  0.00    +0.000 C 
ATOM     57  C   UNL     1     114.288 128.388 136.022  0.00  0.00    +0.000 C 
ENDBRANCH  53  54
ENDBRANCH  10  53
TORSDOF 11
ENDMDL
MODEL 5
REMARK VINA RESULT:      -9.7      1.709      6.378
REMARK  Name = 5748393
REMARK  11 active torsions:
REMARK  status: ('A' for Active; 'I' for Inactive)
REMARK    1  A    between atoms: O_1  and  C_20
REMARK    2  A    between atoms: O_1  and  C_25
REMARK    3  A    between atoms: O_4  and  C_23
REMARK    4  A    between atoms: O_4  and  C_36
REMARK    5  A    between atoms: O_10  and  C_35
REMARK    6  A    between atoms: O_10  and  C_38
REMARK    7  A    between atoms: O_19  and  C_54
REMARK    8  A    between atoms: C_34  and  C_37
REMARK    9  A    between atoms: C_40  and  C_47
REMARK   10  A    between atoms: C_43  and  C_46
REMARK   11  A    between atoms: C_46  and  C_48
REMARK                            x       y       z     vdW  Elec       q    Type
REMARK                         _______ _______ _______ _____ _____    ______ ____
ROOT
ATOM      1  O   UNL     1     111.849 128.923 138.191  0.00  0.00    +0.000 OA
ATOM      2  O   UNL     1     112.457 127.907 140.365  0.00  0.00    +0.000 OA
ATOM      3  O   UNL     1     113.169 126.843 139.701  0.00  0.00    +0.000 OA
ATOM      4  C   UNL     1     111.804 128.936 139.619  0.00  0.00    +0.000 A 
ATOM      5  C   UNL     1     113.022 127.155 137.488  0.00  0.00    +0.000 A 
ATOM      6  C   UNL     1     112.254 128.246 139.640  0.00  0.00    +0.000 A 
ATOM      7  C   UNL     1     111.601 129.275 138.894  0.00  0.00    +0.000 A 
ATOM      8  C   UNL     1     112.502 127.894 138.937  0.00  0.00    +0.000 A 
ATOM      9  C   UNL     1     112.300 128.231 138.212  0.00  0.00    +0.000 A 
ATOM     10  C   UNL     1     112.552 127.874 137.472  0.00  0.00    +0.000 A 
ATOM     11  C   UNL     1     112.971 127.174 138.972  0.00  0.00    +0.000 A 
ATOM     12  C   UNL     1     113.233 126.802 138.243  0.00  0.00    +0.000 A 
ENDROOT
BRANCH   7  13
ATOM     13  C   UNL     1     111.150 129.965 138.873  0.00  0.00    +0.000 A 
ATOM     14  C   UNL     1     111.515 130.699 138.969  0.00  0.00    +0.000 A 
ATOM     15  C   UNL     1     110.335 129.923 138.755  0.00  0.00    +0.000 A 
ATOM     16  C   UNL     1     111.064 131.390 138.947  0.00  0.00    +0.000 A 
ATOM     17  C   UNL     1     109.884 130.613 138.733  0.00  0.00    +0.000 A 
ATOM     18  C   UNL     1     110.249 131.347 138.829  0.00  0.00    +0.000 A 
BRANCH  18  19
ATOM     19  O   UNL     1     109.798 132.038 138.808  0.00  0.00    +0.000 OA
ATOM     20  C   UNL     1     109.748 132.476 138.110  0.00  0.00    +0.000 C 
ENDBRANCH  18  19
ENDBRANCH   7  13
BRANCH   4  21
ATOM     21  O   UNL     1     111.555 129.289 140.322  0.00  0.00    +0.000 OA
BRANCH  21  28
ATOM     22  O   UNL     1     110.514 128.351 140.603  0.00  0.00    +0.000 OA
ATOM     23  O   UNL     1     110.974 128.566 143.025  0.00  0.00    +0.000 OA
ATOM     24  O   UNL     1     109.780 127.557 142.499  0.00  0.00    +0.000 OA
ATOM     25  C   UNL     1     111.265 128.928 141.674  0.00  0.00    +0.000 C 
ATOM     26  C   UNL     1     110.821 128.495 142.218  0.00  0.00    +0.000 C 
ATOM     27  C   UNL     1     110.224 127.990 141.955  0.00  0.00    +0.000 C 
ATOM     28  C   UNL     1     111.112 128.856 140.867  0.00  0.00    +0.000 C 
ATOM     29  C   UNL     1     110.071 127.919 141.148  0.00  0.00    +0.000 C 
ATOM     30  C   UNL     1     109.473 127.414 140.884  0.00  0.00    +0.000 C 
BRANCH  25  31
ATOM     31  O   UNL     1     111.862 129.432 141.937  0.00  0.00    +0.000 OA
BRANCH  31  36
ATOM     32  O   UNL     1     110.882 130.396 142.328  0.00  0.00    +0.000 OA
ATOM     33  O   UNL     1     113.062 130.500 142.316  0.00  0.00    +0.000 OA
ATOM     34  O   UNL     1     112.681 131.997 142.897  0.00  0.00    +0.000 OA
ATOM     35  O   UNL     1     111.100 132.426 143.098  0.00  0.00    +0.000 OA
ATOM     36  C   UNL     1     111.672 130.181 142.227  0.00  0.00    +0.000 C 
ATOM     37  C   UNL     1     112.272 130.715 142.417  0.00  0.00    +0.000 C 
ATOM     38  C   UNL     1     112.081 131.463 142.707  0.00  0.00    +0.000 C 
ATOM     39  C   UNL     1     111.291 131.677 142.807  0.00  0.00    +0.000 C 
ATOM     40  C   UNL     1     110.691 131.144 142.618  0.00  0.00    +0.000 C 
ENDBRANCH  31  36
ENDBRANCH  25  31
ENDBRANCH  21  28
ENDBRANCH   4  21
BRANCH   5  41
ATOM     41  O   UNL     1     113.269 126.805 136.783  0.00  0.00    +0.000 OA
BRANCH  41  50
ATOM     42  O   UNL     1     112.462 125.625 136.751  0.00  0.00    +0.000 OA
ATOM     43  O   UNL     1     114.468 124.269 136.233  0.00  0.00    +0.000 OA
ATOM     44  O   UNL     1     112.993 123.542 136.373  0.00  0.00    +0.000 OA
ATOM     45  O   UNL     1     114.605 125.901 136.438  0.00  0.00    +0.000 OA
ATOM     46  C   UNL     1     113.799 124.721 136.405  0.00  0.00    +0.000 C 
ATOM     47  C   UNL     1     113.062 124.357 136.475  0.00  0.00    +0.000 C 
ATOM     48  C   UNL     1     113.868 125.537 136.508  0.00  0.00    +0.000 C 
ATOM     49  C   UNL     1     112.393 124.809 136.648  0.00  0.00    +0.000 C 
ATOM     50  C   UNL     1     113.199 125.989 136.681  0.00  0.00    +0.000 C 
BRANCH  49  52
ATOM     51  O   UNL     1     110.987 124.804 136.394  0.00  0.00    +0.000 OA
ATOM     52  C   UNL     1     111.656 124.445 136.718  0.00  0.00    +0.000 C 
ENDBRANCH  49  52
ENDBRANCH  41  50
ENDBRANCH   5  41
BRANCH  10  53
ATOM     53  C   UNL     1     112.345 128.220 136.752  0.00  0.00    +0.000 C 
BRANCH  53  54
ATOM     54  C   UNL     1     112.878 128.717 136.365  0.00  0.00    +0.000 C 
ATOM     55  C   UNL     1     112.662 129.079 135.655  0.00  0.00    +0.000 C 
ATOM     56  C   UNL     1     113.195 129.576 135.269  0.00  0.00    +0.000 C 
ATOM     57  C   UNL     1     111.916 128.943 135.333  0.00  0.00    +0.000 C 
ENDBRANCH  53  54
ENDBRANCH  10  53
TORSDOF 11
ENDMDL
MODEL 6
REMARK VINA RESULT:      -9.6      3.207      6.462
REMARK  Name = 5748393
REMARK  11 active torsions:
REMARK  status: ('A' for Active; 'I' for Inactive)
REMARK    1  A    between atoms: O_1  and  C_20
REMARK    2  A    between atoms: O_1  and  C_25
REMARK    3  A    between atoms: O_4  and  C_23
REMARK    4  A    between atoms: O_4  and  C_36
REMARK    5  A    between atoms: O_10  and  C_35
REMARK    6  A    between atoms: O_10  and  C_38
REMARK    7  A    between atoms: O_19  and  C_54
REMARK    8  A    between atoms: C_34  and  C_37
REMARK    9  A    between atoms: C_40  and  C_47
REMARK   10  A    between atoms: C_43  and  C_46
REMARK   11  A    between atoms: C_46  and  C_48
REMARK                            x       y       z     vdW  Elec       q    Type
REMARK                         _______ _______ _______ _____ _____    ______ ____
ROOT
ATOM      1  O   UNL     1     111.393 129.682 143.275  0.00  0.00    +0.000 OA
ATOM      2  O   UNL     1     111.547 131.635 141.762  0.00  0.00    +0.000 OA
ATOM      3  O   UNL     1     111.575 132.540 142.886  0.00  0.00    +0.000 OA
ATOM      4  C   UNL     1     111.457 130.222 141.954  0.00  0.00    +0.000 A 
ATOM      5  C   UNL     1     111.457 131.339 144.773  0.00  0.00    +0.000 A 
ATOM      6  C   UNL     1     111.496 130.984 142.266  0.00  0.00    +0.000 A 
ATOM      7  C   UNL     1     111.406 129.571 142.458  0.00  0.00    +0.000 A 
ATOM      8  C   UNL     1     111.483 131.095 143.084  0.00  0.00    +0.000 A 
ATOM      9  C   UNL     1     111.431 130.445 143.589  0.00  0.00    +0.000 A 
ATOM     10  C   UNL     1     111.417 130.548 144.442  0.00  0.00    +0.000 A 
ATOM     11  C   UNL     1     111.524 131.895 143.397  0.00  0.00    +0.000 A 
ATOM     12  C   UNL     1     111.511 132.018 144.248  0.00  0.00    +0.000 A 
ENDROOT
BRANCH   7  13
ATOM     13  C   UNL     1     111.367 128.809 142.146  0.00  0.00    +0.000 A 
ATOM     14  C   UNL     1     112.057 128.426 141.906  0.00  0.00    +0.000 A 
ATOM     15  C   UNL     1     110.638 128.428 142.072  0.00  0.00    +0.000 A 
ATOM     16  C   UNL     1     112.019 127.663 141.593  0.00  0.00    +0.000 A 
ATOM     17  C   UNL     1     110.600 127.667 141.760  0.00  0.00    +0.000 A 
ATOM     18  C   UNL     1     111.290 127.284 141.520  0.00  0.00    +0.000 A 
BRANCH  18  19
ATOM     19  O   UNL     1     111.252 126.521 141.207  0.00  0.00    +0.000 OA
ATOM     20  C   UNL     1     110.953 126.402 140.448  0.00  0.00    +0.000 C 
ENDBRANCH  18  19
ENDBRANCH   7  13
BRANCH   4  21
ATOM     21  O   UNL     1     111.470 130.110 141.137  0.00  0.00    +0.000 OA
BRANCH  21  28
ATOM     22  O   UNL     1     110.110 130.488 140.913  0.00  0.00    +0.000 OA
ATOM     23  O   UNL     1     110.744 131.485 138.739  0.00  0.00    +0.000 OA
ATOM     24  O   UNL     1     109.173 131.531 139.240  0.00  0.00    +0.000 OA
ATOM     25  C   UNL     1     111.108 130.798 139.937  0.00  0.00    +0.000 C 
ATOM     26  C   UNL     1     110.533 131.153 139.464  0.00  0.00    +0.000 C 
ATOM     27  C   UNL     1     109.748 131.176 139.714  0.00  0.00    +0.000 C 
ATOM     28  C   UNL     1     110.896 130.466 140.662  0.00  0.00    +0.000 C 
ATOM     29  C   UNL     1     109.537 130.844 140.439  0.00  0.00    +0.000 C 
ATOM     30  C   UNL     1     108.750 130.867 140.690  0.00  0.00    +0.000 C 
BRANCH  25  31
ATOM     31  O   UNL     1     111.893 130.775 139.687  0.00  0.00    +0.000 OA
BRANCH  31  36
ATOM     32  O   UNL     1     111.589 129.673 138.829  0.00  0.00    +0.000 OA
ATOM     33  O   UNL     1     113.439 130.796 139.111  0.00  0.00    +0.000 OA
ATOM     34  O   UNL     1     113.907 129.705 137.965  0.00  0.00    +0.000 OA
ATOM     35  O   UNL     1     112.830 128.593 137.395  0.00  0.00    +0.000 OA
ATOM     36  C   UNL     1     112.127 130.229 139.114  0.00  0.00    +0.000 C 
ATOM     37  C   UNL     1     112.901 130.240 138.826  0.00  0.00    +0.000 C 
ATOM     38  C   UNL     1     113.135 129.694 138.253  0.00  0.00    +0.000 C 
ATOM     39  C   UNL     1     112.595 129.138 137.968  0.00  0.00    +0.000 C 
ATOM     40  C   UNL     1     111.823 129.128 138.256  0.00  0.00    +0.000 C 
ENDBRANCH  31  36
ENDBRANCH  25  31
ENDBRANCH  21  28
ENDBRANCH   4  21
BRANCH   5  41
ATOM     41  O   UNL     1     111.444 131.448 145.591  0.00  0.00    +0.000 OA
BRANCH  41  50
ATOM     42  O   UNL     1     110.166 132.065 145.765  0.00  0.00    +0.000 OA
ATOM     43  O   UNL     1     111.194 133.778 147.227  0.00  0.00    +0.000 OA
ATOM     44  O   UNL     1     109.575 133.825 146.914  0.00  0.00    +0.000 OA
ATOM     45  O   UNL     1     112.128 132.590 146.565  0.00  0.00    +0.000 OA
ATOM     46  C   UNL     1     110.852 133.207 146.740  0.00  0.00    +0.000 C 
ATOM     47  C   UNL     1     110.042 133.230 146.583  0.00  0.00    +0.000 C 
ATOM     48  C   UNL     1     111.319 132.613 146.409  0.00  0.00    +0.000 C 
ATOM     49  C   UNL     1     109.699 132.660 146.096  0.00  0.00    +0.000 C 
ATOM     50  C   UNL     1     110.976 132.042 145.921  0.00  0.00    +0.000 C 
BRANCH  49  52
ATOM     51  O   UNL     1     108.454 131.982 145.913  0.00  0.00    +0.000 OA
ATOM     52  C   UNL     1     108.890 132.683 145.939  0.00  0.00    +0.000 C 
ENDBRANCH  49  52
ENDBRANCH  41  50
ENDBRANCH   5  41
BRANCH  10  53
ATOM     53  C   UNL     1     111.365 129.891 144.938  0.00  0.00    +0.000 C 
BRANCH  53  54
ATOM     54  C   UNL     1     112.043 129.601 145.309  0.00  0.00    +0.000 C 
ATOM     55  C   UNL     1     112.006 128.899 145.743  0.00  0.00    +0.000 C 
ATOM     56  C   UNL     1     112.684 128.609 146.114  0.00  0.00    +0.000 C 
ATOM     57  C   UNL     1     111.294 128.490 145.806  0.00  0.00    +0.000 C 
ENDBRANCH  53  54
ENDBRANCH  10  53
TORSDOF 11
ENDMDL
MODEL 7
REMARK VINA RESULT:      -9.5      2.177      4.301
REMARK  Name = 5748393
REMARK  11 active torsions:
REMARK  status: ('A' for Active; 'I' for Inactive)
REMARK    1  A    between atoms: O_1  and  C_20
REMARK    2  A    between atoms: O_1  and  C_25
REMARK    3  A    between atoms: O_4  and  C_23
REMARK    4  A    between atoms: O_4  and  C_36
REMARK    5  A    between atoms: O_10  and  C_35
REMARK    6  A    between atoms: O_10  and  C_38
REMARK    7  A    between atoms: O_19  and  C_54
REMARK    8  A    between atoms: C_34  and  C_37
REMARK    9  A    between atoms: C_40  and  C_47
REMARK   10  A    between atoms: C_43  and  C_46
REMARK   11  A    between atoms: C_46  and  C_48
REMARK                            x       y       z     vdW  Elec       q    Type
REMARK                         _______ _______ _______ _____ _____    ______ ____
ROOT
ATOM      1  O   UNL     1     112.556 129.670 139.311  0.00  0.00    +0.000 OA
ATOM      2  O   UNL     1     110.158 130.238 139.079  0.00  0.00    +0.000 OA
ATOM      3  O   UNL     1     110.133 130.801 140.408  0.00  0.00    +0.000 OA
ATOM      4  C   UNL     1     111.356 129.679 138.536  0.00  0.00    +0.000 A 
ATOM      5  C   UNL     1     112.178 130.609 141.303  0.00  0.00    +0.000 A 
ATOM      6  C   UNL     1     110.958 130.049 139.156  0.00  0.00    +0.000 A 
ATOM      7  C   UNL     1     112.155 129.489 138.613  0.00  0.00    +0.000 A 
ATOM      8  C   UNL     1     111.359 130.230 139.854  0.00  0.00    +0.000 A 
ATOM      9  C   UNL     1     112.158 130.041 139.932  0.00  0.00    +0.000 A 
ATOM     10  C   UNL     1     112.587 130.224 140.653  0.00  0.00    +0.000 A 
ATOM     11  C   UNL     1     110.932 130.615 140.493  0.00  0.00    +0.000 A 
ATOM     12  C   UNL     1     111.345 130.807 141.223  0.00  0.00    +0.000 A 
ENDROOT
BRANCH   7  13
ATOM     13  C   UNL     1     112.553 129.120 137.993  0.00  0.00    +0.000 A 
ATOM     14  C   UNL     1     112.981 129.571 137.450  0.00  0.00    +0.000 A 
ATOM     15  C   UNL     1     112.525 128.299 137.915  0.00  0.00    +0.000 A 
ATOM     16  C   UNL     1     113.379 129.201 136.829  0.00  0.00    +0.000 A 
ATOM     17  C   UNL     1     112.923 127.929 137.295  0.00  0.00    +0.000 A 
ATOM     18  C   UNL     1     113.350 128.380 136.752  0.00  0.00    +0.000 A 
BRANCH  18  19
ATOM     19  O   UNL     1     113.749 128.010 136.131  0.00  0.00    +0.000 OA
ATOM     20  C   UNL     1     113.890 128.420 135.429  0.00  0.00    +0.000 C 
ENDBRANCH  18  19
ENDBRANCH   7  13
BRANCH   4  21
ATOM     21  O   UNL     1     110.955 129.498 137.838  0.00  0.00    +0.000 OA
BRANCH  21  28
ATOM     22  O   UNL     1     110.908 130.844 137.362  0.00  0.00    +0.000 OA
ATOM     23  O   UNL     1     108.741 130.381 136.262  0.00  0.00    +0.000 OA
ATOM     24  O   UNL     1     109.417 131.882 136.153  0.00  0.00    +0.000 OA
ATOM     25  C   UNL     1     109.847 129.939 137.050  0.00  0.00    +0.000 C 
ATOM     26  C   UNL     1     109.463 130.535 136.629  0.00  0.00    +0.000 C 
ATOM     27  C   UNL     1     109.801 131.285 136.574  0.00  0.00    +0.000 C 
ATOM     28  C   UNL     1     110.570 130.093 137.417  0.00  0.00    +0.000 C 
ATOM     29  C   UNL     1     110.523 131.440 136.941  0.00  0.00    +0.000 C 
ATOM     30  C   UNL     1     110.862 132.191 136.886  0.00  0.00    +0.000 C 
BRANCH  25  31
ATOM     31  O   UNL     1     109.510 129.189 137.105  0.00  0.00    +0.000 OA
BRANCH  31  36
ATOM     32  O   UNL     1     109.946 128.892 135.777  0.00  0.00    +0.000 OA
ATOM     33  O   UNL     1     108.960 127.642 137.269  0.00  0.00    +0.000 OA
ATOM     34  O   UNL     1     109.122 126.572 136.024  0.00  0.00    +0.000 OA
ATOM     35  O   UNL     1     109.833 127.049 134.613  0.00  0.00    +0.000 OA
ATOM     36  C   UNL     1     109.590 128.654 136.482  0.00  0.00    +0.000 C 
ATOM     37  C   UNL     1     109.315 127.880 136.564  0.00  0.00    +0.000 C 
ATOM     38  C   UNL     1     109.396 127.345 135.941  0.00  0.00    +0.000 C 
ATOM     39  C   UNL     1     109.752 127.584 135.236  0.00  0.00    +0.000 C 
ATOM     40  C   UNL     1     110.027 128.357 135.154  0.00  0.00    +0.000 C 
ENDBRANCH  31  36
ENDBRANCH  25  31
ENDBRANCH  21  28
ENDBRANCH   4  21
BRANCH   5  41
ATOM     41  O   UNL     1     112.581 130.789 142.000  0.00  0.00    +0.000 OA
BRANCH  41  50
ATOM     42  O   UNL     1     111.919 129.951 142.950  0.00  0.00    +0.000 OA
ATOM     43  O   UNL     1     111.673 131.881 144.480  0.00  0.00    +0.000 OA
ATOM     44  O   UNL     1     111.094 130.400 144.920  0.00  0.00    +0.000 OA
ATOM     45  O   UNL     1     112.416 132.075 143.020  0.00  0.00    +0.000 OA
ATOM     46  C   UNL     1     111.755 131.238 143.970  0.00  0.00    +0.000 C 
ATOM     47  C   UNL     1     111.465 130.497 144.190  0.00  0.00    +0.000 C 
ATOM     48  C   UNL     1     112.127 131.335 143.240  0.00  0.00    +0.000 C 
ATOM     49  C   UNL     1     111.548 129.854 143.680  0.00  0.00    +0.000 C 
ATOM     50  C   UNL     1     112.209 130.691 142.730  0.00  0.00    +0.000 C 
BRANCH  49  52
ATOM     51  O   UNL     1     111.585 128.429 143.574  0.00  0.00    +0.000 OA
ATOM     52  C   UNL     1     111.258 129.113 143.900  0.00  0.00    +0.000 C 
ENDBRANCH  49  52
ENDBRANCH  41  50
ENDBRANCH   5  41
BRANCH  10  53
ATOM     53  C   UNL     1     113.386 130.031 140.722  0.00  0.00    +0.000 C 
BRANCH  53  54
ATOM     54  C   UNL     1     113.961 130.614 140.617  0.00  0.00    +0.000 C 
ATOM     55  C   UNL     1     114.760 130.407 140.612  0.00  0.00    +0.000 C 
ATOM     56  C   UNL     1     115.335 130.990 140.507  0.00  0.00    +0.000 C 
ATOM     57  C   UNL     1     114.984 129.621 140.712  0.00  0.00    +0.000 C 
ENDBRANCH  53  54
ENDBRANCH  10  53
TORSDOF 11
ENDMDL
MODEL 8
REMARK VINA RESULT:      -9.4      4.202      6.026
REMARK  Name = 5748393
REMARK  11 active torsions:
REMARK  status: ('A' for Active; 'I' for Inactive)
REMARK    1  A    between atoms: O_1  and  C_20
REMARK    2  A    between atoms: O_1  and  C_25
REMARK    3  A    between atoms: O_4  and  C_23
REMARK    4  A    between atoms: O_4  and  C_36
REMARK    5  A    between atoms: O_10  and  C_35
REMARK    6  A    between atoms: O_10  and  C_38
REMARK    7  A    between atoms: O_19  and  C_54
REMARK    8  A    between atoms: C_34  and  C_37
REMARK    9  A    between atoms: C_40  and  C_47
REMARK   10  A    between atoms: C_43  and  C_46
REMARK   11  A    between atoms: C_46  and  C_48
REMARK                            x       y       z     vdW  Elec       q    Type
REMARK                         _______ _______ _______ _____ _____    ______ ____
ROOT
ATOM      1  O   UNL     1     108.293 127.017 141.154  0.00  0.00    +0.000 OA
ATOM      2  O   UNL     1     109.821 125.238 140.363  0.00  0.00    +0.000 OA
ATOM      3  O   UNL     1     108.817 124.229 140.601  0.00  0.00    +0.000 OA
ATOM      4  C   UNL     1     109.563 126.617 140.636  0.00  0.00    +0.000 A 
ATOM      5  C   UNL     1     106.979 125.226 141.405  0.00  0.00    +0.000 A 
ATOM      6  C   UNL     1     109.312 125.831 140.627  0.00  0.00    +0.000 A 
ATOM      7  C   UNL     1     109.053 127.210 140.900  0.00  0.00    +0.000 A 
ATOM      8  C   UNL     1     108.551 125.638 140.881  0.00  0.00    +0.000 A 
ATOM      9  C   UNL     1     108.041 126.231 141.145  0.00  0.00    +0.000 A 
ATOM     10  C   UNL     1     107.246 126.043 141.412  0.00  0.00    +0.000 A 
ATOM     11  C   UNL     1     108.301 124.816 140.866  0.00  0.00    +0.000 A 
ATOM     12  C   UNL     1     107.510 124.608 141.130  0.00  0.00    +0.000 A 
ENDROOT
BRANCH   7  13
ATOM     13  C   UNL     1     109.304 127.995 140.909  0.00  0.00    +0.000 A 
ATOM     14  C   UNL     1     109.103 128.500 140.288  0.00  0.00    +0.000 A 
ATOM     15  C   UNL     1     109.756 128.277 141.540  0.00  0.00    +0.000 A 
ATOM     16  C   UNL     1     109.354 129.286 140.297  0.00  0.00    +0.000 A 
ATOM     17  C   UNL     1     110.006 129.063 141.549  0.00  0.00    +0.000 A 
ATOM     18  C   UNL     1     109.806 129.567 140.928  0.00  0.00    +0.000 A 
BRANCH  18  19
ATOM     19  O   UNL     1     110.057 130.354 140.937  0.00  0.00    +0.000 OA
ATOM     20  C   UNL     1     110.649 130.603 140.420  0.00  0.00    +0.000 C 
ENDBRANCH  18  19
ENDBRANCH   7  13
BRANCH   4  21
ATOM     21  O   UNL     1     110.323 126.810 140.382  0.00  0.00    +0.000 OA
BRANCH  21  28
ATOM     22  O   UNL     1     110.034 126.639 138.993  0.00  0.00    +0.000 OA
ATOM     23  O   UNL     1     112.371 125.930 138.593  0.00  0.00    +0.000 OA
ATOM     24  O   UNL     1     111.302 125.996 137.337  0.00  0.00    +0.000 OA
ATOM     25  C   UNL     1     111.348 126.370 139.488  0.00  0.00    +0.000 C 
ATOM     26  C   UNL     1     111.592 126.166 138.726  0.00  0.00    +0.000 C 
ATOM     27  C   UNL     1     111.058 126.199 138.099  0.00  0.00    +0.000 C 
ATOM     28  C   UNL     1     110.568 126.606 139.621  0.00  0.00    +0.000 C 
ATOM     29  C   UNL     1     110.279 126.436 138.232  0.00  0.00    +0.000 C 
ATOM     30  C   UNL     1     109.744 126.469 137.604  0.00  0.00    +0.000 C 
BRANCH  25  31
ATOM     31  O   UNL     1     111.881 126.337 140.115  0.00  0.00    +0.000 OA
BRANCH  31  36
ATOM     32  O   UNL     1     112.484 127.553 139.667  0.00  0.00    +0.000 OA
ATOM     33  O   UNL     1     112.981 126.244 141.341  0.00  0.00    +0.000 OA
ATOM     34  O   UNL     1     114.133 127.414 141.506  0.00  0.00    +0.000 OA
ATOM     35  O   UNL     1     114.185 128.676 140.445  0.00  0.00    +0.000 OA
ATOM     36  C   UNL     1     112.457 126.922 140.197  0.00  0.00    +0.000 C 
ATOM     37  C   UNL     1     113.008 126.875 140.811  0.00  0.00    +0.000 C 
ATOM     38  C   UNL     1     113.584 127.460 140.894  0.00  0.00    +0.000 C 
ATOM     39  C   UNL     1     113.609 128.091 140.363  0.00  0.00    +0.000 C 
ATOM     40  C   UNL     1     113.060 128.138 139.750  0.00  0.00    +0.000 C 
ENDBRANCH  31  36
ENDBRANCH  25  31
ENDBRANCH  21  28
ENDBRANCH   4  21
BRANCH   5  41
ATOM     41  O   UNL     1     106.218 125.036 141.659  0.00  0.00    +0.000 OA
BRANCH  41  50
ATOM     42  O   UNL     1     105.614 124.728 140.401  0.00  0.00    +0.000 OA
ATOM     43  O   UNL     1     104.537 122.739 141.406  0.00  0.00    +0.000 OA
ATOM     44  O   UNL     1     104.293 123.093 139.813  0.00  0.00    +0.000 OA
ATOM     45  O   UNL     1     105.500 123.711 142.329  0.00  0.00    +0.000 OA
ATOM     46  C   UNL     1     104.896 123.402 141.071  0.00  0.00    +0.000 C 
ATOM     47  C   UNL     1     104.774 123.579 140.274  0.00  0.00    +0.000 C 
ATOM     48  C   UNL     1     105.377 123.888 141.532  0.00  0.00    +0.000 C 
ATOM     49  C   UNL     1     105.133 124.242 139.939  0.00  0.00    +0.000 C 
ATOM     50  C   UNL     1     105.737 124.551 141.197  0.00  0.00    +0.000 C 
BRANCH  49  52
ATOM     51  O   UNL     1     104.889 125.202 138.908  0.00  0.00    +0.000 OA
ATOM     52  C   UNL     1     105.011 124.419 139.143  0.00  0.00    +0.000 C 
ENDBRANCH  49  52
ENDBRANCH  41  50
ENDBRANCH   5  41
BRANCH  10  53
ATOM     53  C   UNL     1     106.744 126.642 141.674  0.00  0.00    +0.000 C 
BRANCH  53  54
ATOM     54  C   UNL     1     106.694 126.816 142.479  0.00  0.00    +0.000 C 
ATOM     55  C   UNL     1     106.199 127.423 142.740  0.00  0.00    +0.000 C 
ATOM     56  C   UNL     1     106.150 127.597 143.545  0.00  0.00    +0.000 C 
ATOM     57  C   UNL     1     105.754 127.854 142.197  0.00  0.00    +0.000 C 
ENDBRANCH  53  54
ENDBRANCH  10  53
TORSDOF 11
ENDMDL
MODEL 9
REMARK VINA RESULT:      -9.4      2.571      5.489
REMARK  Name = 5748393
REMARK  11 active torsions:
REMARK  status: ('A' for Active; 'I' for Inactive)
REMARK    1  A    between atoms: O_1  and  C_20
REMARK    2  A    between atoms: O_1  and  C_25
REMARK    3  A    between atoms: O_4  and  C_23
REMARK    4  A    between atoms: O_4  and  C_36
REMARK    5  A    between atoms: O_10  and  C_35
REMARK    6  A    between atoms: O_10  and  C_38
REMARK    7  A    between atoms: O_19  and  C_54
REMARK    8  A    between atoms: C_34  and  C_37
REMARK    9  A    between atoms: C_40  and  C_47
REMARK   10  A    between atoms: C_43  and  C_46
REMARK   11  A    between atoms: C_46  and  C_48
REMARK                            x       y       z     vdW  Elec       q    Type
REMARK                         _______ _______ _______ _____ _____    ______ ____
ROOT
ATOM      1  O   UNL     1     111.526 129.191 138.650  0.00  0.00    +0.000 OA
ATOM      2  O   UNL     1     109.471 129.405 140.013  0.00  0.00    +0.000 OA
ATOM      3  O   UNL     1     108.713 129.821 138.858  0.00  0.00    +0.000 OA
ATOM      4  C   UNL     1     110.862 129.094 139.911  0.00  0.00    +0.000 A 
ATOM      5  C   UNL     1     110.078 129.855 137.083  0.00  0.00    +0.000 A 
ATOM      6  C   UNL     1     110.156 129.334 139.559  0.00  0.00    +0.000 A 
ATOM      7  C   UNL     1     111.547 129.022 139.457  0.00  0.00    +0.000 A 
ATOM      8  C   UNL     1     110.135 129.502 138.752  0.00  0.00    +0.000 A 
ATOM      9  C   UNL     1     110.819 129.431 138.297  0.00  0.00    +0.000 A 
ATOM     10  C   UNL     1     110.810 129.604 137.455  0.00  0.00    +0.000 A 
ATOM     11  C   UNL     1     109.393 129.752 138.397  0.00  0.00    +0.000 A 
ATOM     12  C   UNL     1     109.364 129.929 137.556  0.00  0.00    +0.000 A 
ENDROOT
BRANCH   7  13
ATOM     13  C   UNL     1     112.253 128.782 139.809  0.00  0.00    +0.000 A 
ATOM     14  C   UNL     1     112.494 127.995 139.756  0.00  0.00    +0.000 A 
ATOM     15  C   UNL     1     112.719 129.329 140.216  0.00  0.00    +0.000 A 
ATOM     16  C   UNL     1     113.200 127.754 140.108  0.00  0.00    +0.000 A 
ATOM     17  C   UNL     1     113.425 129.089 140.568  0.00  0.00    +0.000 A 
ATOM     18  C   UNL     1     113.665 128.301 140.514  0.00  0.00    +0.000 A 
BRANCH  18  19
ATOM     19  O   UNL     1     114.372 128.061 140.867  0.00  0.00    +0.000 OA
ATOM     20  C   UNL     1     114.518 127.258 140.991  0.00  0.00    +0.000 C 
ENDBRANCH  18  19
ENDBRANCH   7  13
BRANCH   4  21
ATOM     21  O   UNL     1     110.883 128.925 140.719  0.00  0.00    +0.000 OA
BRANCH  21  28
ATOM     22  O   UNL     1     110.233 127.655 140.635  0.00  0.00    +0.000 OA
ATOM     23  O   UNL     1     109.101 128.093 142.792  0.00  0.00    +0.000 OA
ATOM     24  O   UNL     1     108.828 126.677 141.990  0.00  0.00    +0.000 OA
ATOM     25  C   UNL     1     109.992 128.509 141.756  0.00  0.00    +0.000 C 
ATOM     26  C   UNL     1     109.478 127.947 142.073  0.00  0.00    +0.000 C 
ATOM     27  C   UNL     1     109.342 127.240 141.672  0.00  0.00    +0.000 C 
ATOM     28  C   UNL     1     110.369 128.363 141.037  0.00  0.00    +0.000 C 
ATOM     29  C   UNL     1     109.719 127.094 140.953  0.00  0.00    +0.000 C 
ATOM     30  C   UNL     1     109.582 126.386 140.552  0.00  0.00    +0.000 C 
BRANCH  25  31
ATOM     31  O   UNL     1     110.129 129.217 142.157  0.00  0.00    +0.000 OA
BRANCH  31  36
ATOM     32  O   UNL     1     111.051 128.555 143.026  0.00  0.00    +0.000 OA
ATOM     33  O   UNL     1     110.233 130.577 143.085  0.00  0.00    +0.000 OA
ATOM     34  O   UNL     1     111.206 130.595 144.417  0.00  0.00    +0.000 OA
ATOM     35  O   UNL     1     112.076 129.252 144.821  0.00  0.00    +0.000 OA
ATOM     36  C   UNL     1     110.616 129.225 142.823  0.00  0.00    +0.000 C 
ATOM     37  C   UNL     1     110.668 129.906 143.287  0.00  0.00    +0.000 C 
ATOM     38  C   UNL     1     111.154 129.915 143.953  0.00  0.00    +0.000 C 
ATOM     39  C   UNL     1     111.589 129.243 144.155  0.00  0.00    +0.000 C 
ATOM     40  C   UNL     1     111.538 128.564 143.692  0.00  0.00    +0.000 C 
ENDBRANCH  31  36
ENDBRANCH  25  31
ENDBRANCH  21  28
ENDBRANCH   4  21
BRANCH   5  41
ATOM     41  O   UNL     1     110.059 130.023 136.275  0.00  0.00    +0.000 OA
BRANCH  41  50
ATOM     42  O   UNL     1     109.939 131.448 136.296  0.00  0.00    +0.000 OA
ATOM     43  O   UNL     1     108.130 131.319 134.612  0.00  0.00    +0.000 OA
ATOM     44  O   UNL     1     108.613 132.785 135.194  0.00  0.00    +0.000 OA
ATOM     45  O   UNL     1     108.853 129.938 135.153  0.00  0.00    +0.000 OA
ATOM     46  C   UNL     1     108.733 131.362 135.173  0.00  0.00    +0.000 C 
ATOM     47  C   UNL     1     108.975 132.095 135.464  0.00  0.00    +0.000 C 
ATOM     48  C   UNL     1     109.095 130.671 135.444  0.00  0.00    +0.000 C 
ATOM     49  C   UNL     1     109.578 132.138 136.026  0.00  0.00    +0.000 C 
ATOM     50  C   UNL     1     109.698 130.714 136.005  0.00  0.00    +0.000 C 
BRANCH  49  52
ATOM     51  O   UNL     1     110.582 132.964 136.619  0.00  0.00    +0.000 OA
ATOM     52  C   UNL     1     109.819 132.871 136.317  0.00  0.00    +0.000 C 
ENDBRANCH  49  52
ENDBRANCH  41  50
ENDBRANCH   5  41
BRANCH  10  53
ATOM     53  C   UNL     1     111.500 129.530 137.009  0.00  0.00    +0.000 C 
BRANCH  53  54
ATOM     54  C   UNL     1     111.645 128.836 136.587  0.00  0.00    +0.000 C 
ATOM     55  C   UNL     1     112.346 128.753 136.159  0.00  0.00    +0.000 C 
ATOM     56  C   UNL     1     112.491 128.059 135.736  0.00  0.00    +0.000 C 
ATOM     57  C   UNL     1     112.901 129.363 136.153  0.00  0.00    +0.000 C 
ENDBRANCH  53  54
ENDBRANCH  10  53
TORSDOF 11
ENDMDL
MODEL 10
REMARK VINA RESULT:      -9.4      2.173      3.892
REMARK  Name = 5748393
REMARK  11 active torsions:
REMARK  status: ('A' for Active; 'I' for Inactive)
REMARK    1  A    between atoms: O_1  and  C_20
REMARK    2  A    between atoms: O_1  and  C_25
REMARK    3  A    between atoms: O_4  and  C_23
REMARK    4  A    between atoms: O_4  and  C_36
REMARK    5  A    between atoms: O_10  and  C_35
REMARK    6  A    between atoms: O_10  and  C_38
REMARK    7  A    between atoms: O_19  and  C_54
REMARK    8  A    between atoms: C_34  and  C_37
REMARK    9  A    between atoms: C_40  and  C_47
REMARK   10  A    between atoms: C_43  and  C_46
REMARK   11  A    between atoms: C_46  and  C_48
REMARK                            x       y       z     vdW  Elec       q    Type
REMARK                         _______ _______ _______ _____ _____    ______ ____
ROOT
ATOM      1  O   UNL     1     112.494 128.692 139.808  0.00  0.00    +0.000 OA
ATOM      2  O   UNL     1     110.044 128.716 139.456  0.00  0.00    +0.000 OA
ATOM      3  O   UNL     1     109.888 129.783 140.415  0.00  0.00    +0.000 OA
ATOM      4  C   UNL     1     111.333 128.176 139.156  0.00  0.00    +0.000 A 
ATOM      5  C   UNL     1     111.908 130.322 141.220  0.00  0.00    +0.000 A 
ATOM      6  C   UNL     1     110.861 128.708 139.573  0.00  0.00    +0.000 A 
ATOM      7  C   UNL     1     112.149 128.168 139.273  0.00  0.00    +0.000 A 
ATOM      8  C   UNL     1     111.206 129.232 140.109  0.00  0.00    +0.000 A 
ATOM      9  C   UNL     1     112.022 129.225 140.227  0.00  0.00    +0.000 A 
ATOM     10  C   UNL     1     112.394 129.765 140.782  0.00  0.00    +0.000 A 
ATOM     11  C   UNL     1     110.704 129.782 140.538  0.00  0.00    +0.000 A 
ATOM     12  C   UNL     1     111.057 130.331 141.098  0.00  0.00    +0.000 A 
ENDROOT
BRANCH   7  13
ATOM     13  C   UNL     1     112.621 127.636 138.855  0.00  0.00    +0.000 A 
ATOM     14  C   UNL     1     112.849 126.924 139.205  0.00  0.00    +0.000 A 
ATOM     15  C   UNL     1     112.865 127.815 138.087  0.00  0.00    +0.000 A 
ATOM     16  C   UNL     1     113.321 126.391 138.787  0.00  0.00    +0.000 A 
ATOM     17  C   UNL     1     113.337 127.283 137.670  0.00  0.00    +0.000 A 
ATOM     18  C   UNL     1     113.565 126.571 138.019  0.00  0.00    +0.000 A 
BRANCH  18  19
ATOM     19  O   UNL     1     114.037 126.038 137.601  0.00  0.00    +0.000 OA
ATOM     20  C   UNL     1     113.933 125.946 136.788  0.00  0.00    +0.000 C 
ENDBRANCH  18  19
ENDBRANCH   7  13
BRANCH   4  21
ATOM     21  O   UNL     1     110.988 127.652 138.620  0.00  0.00    +0.000 OA
BRANCH  21  28
ATOM     22  O   UNL     1     110.420 126.808 139.624  0.00  0.00    +0.000 OA
ATOM     23  O   UNL     1     108.536 126.274 138.109  0.00  0.00    +0.000 OA
ATOM     24  O   UNL     1     108.596 125.608 139.617  0.00  0.00    +0.000 OA
ATOM     25  C   UNL     1     109.762 126.963 138.364  0.00  0.00    +0.000 C 
ATOM     26  C   UNL     1     109.164 126.452 138.614  0.00  0.00    +0.000 C 
ATOM     27  C   UNL     1     109.194 126.120 139.367  0.00  0.00    +0.000 C 
ATOM     28  C   UNL     1     110.390 127.141 138.869  0.00  0.00    +0.000 C 
ATOM     29  C   UNL     1     109.822 126.297 139.872  0.00  0.00    +0.000 C 
ATOM     30  C   UNL     1     109.852 125.964 140.627  0.00  0.00    +0.000 C 
BRANCH  25  31
ATOM     31  O   UNL     1     109.732 127.296 137.610  0.00  0.00    +0.000 OA
BRANCH  31  36
ATOM     32  O   UNL     1     110.185 126.063 137.047  0.00  0.00    +0.000 OA
ATOM     33  O   UNL     1     109.618 127.944 136.097  0.00  0.00    +0.000 OA
ATOM     34  O   UNL     1     110.014 127.035 134.778  0.00  0.00    +0.000 OA
ATOM     35  O   UNL     1     110.524 125.478 134.972  0.00  0.00    +0.000 OA
ATOM     36  C   UNL     1     109.930 126.842 136.951  0.00  0.00    +0.000 C 
ATOM     37  C   UNL     1     109.873 127.166 136.194  0.00  0.00    +0.000 C 
ATOM     38  C   UNL     1     110.071 126.711 135.534  0.00  0.00    +0.000 C 
ATOM     39  C   UNL     1     110.326 125.933 135.632  0.00  0.00    +0.000 C 
ATOM     40  C   UNL     1     110.383 125.609 136.388  0.00  0.00    +0.000 C 
ENDBRANCH  31  36
ENDBRANCH  25  31
ENDBRANCH  21  28
ENDBRANCH   4  21
BRANCH   5  41
ATOM     41  O   UNL     1     112.255 130.845 141.755  0.00  0.00    +0.000 OA
BRANCH  41  50
ATOM     42  O   UNL     1     111.844 130.265 142.995  0.00  0.00    +0.000 OA
ATOM     43  O   UNL     1     111.202 132.506 143.829  0.00  0.00    +0.000 OA
ATOM     44  O   UNL     1     111.004 131.180 144.791  0.00  0.00    +0.000 OA
ATOM     45  O   UNL     1     111.827 132.338 142.311  0.00  0.00    +0.000 OA
ATOM     46  C   UNL     1     111.416 131.759 143.551  0.00  0.00    +0.000 C 
ATOM     47  C   UNL     1     111.317 131.096 144.032  0.00  0.00    +0.000 C 
ATOM     48  C   UNL     1     111.728 131.675 142.792  0.00  0.00    +0.000 C 
ATOM     49  C   UNL     1     111.531 130.349 143.754  0.00  0.00    +0.000 C 
ATOM     50  C   UNL     1     111.942 130.928 142.514  0.00  0.00    +0.000 C 
BRANCH  49  52
ATOM     51  O   UNL     1     111.955 129.050 144.174  0.00  0.00    +0.000 OA
ATOM     52  C   UNL     1     111.432 129.686 144.235  0.00  0.00    +0.000 C 
ENDBRANCH  49  52
ENDBRANCH  41  50
ENDBRANCH   5  41
BRANCH  10  53
ATOM     53  C   UNL     1     113.211 129.750 140.893  0.00  0.00    +0.000 C 
BRANCH  53  54
ATOM     54  C   UNL     1     113.690 130.294 140.500  0.00  0.00    +0.000 C 
ATOM     55  C   UNL     1     114.512 130.221 140.535  0.00  0.00    +0.000 C 
ATOM     56  C   UNL     1     114.991 130.765 140.142  0.00  0.00    +0.000 C 
ATOM     57  C   UNL     1     114.853 129.604 140.963  0.00  0.00    +0.000 C 
ENDBRANCH  53  54
ENDBRANCH  10  53
TORSDOF 11
ENDMDL
