MODEL 1
REMARK VINA RESULT:      -8.9      0.000      0.000
REMARK  Name = 131834555
REMARK  2 active torsions:
REMARK  status: ('A' for Active; 'I' for Inactive)
REMARK    1  A    between atoms: O_4  and  C_20
REMARK    2  A    between atoms: C_8  and  C_10
REMARK                            x       y       z     vdW  Elec       q    Type
REMARK                         _______ _______ _______ _____ _____    ______ ____
ROOT
ATOM      1  O   UNL     1     104.763 123.642 139.284  0.00  0.00    +0.000 OA
ATOM      2  O   UNL     1     104.688 126.110 139.841  0.00  0.00    +0.000 OA
ATOM      3  O   UNL     1     105.782 125.913 140.761  0.00  0.00    +0.000 OA
ATOM      4  O   UNL     1     106.891 124.940 141.498  0.00  0.00    +0.000 OA
ATOM      5  O   UNL     1     106.945 123.330 141.138  0.00  0.00    +0.000 OA
ATOM      6  C   UNL     1     104.183 124.143 138.897  0.00  0.00    +0.000 C 
ATOM      7  C   UNL     1     104.155 124.981 139.084  0.00  0.00    +0.000 C 
ATOM      8  C   UNL     1     105.281 124.790 140.033  0.00  0.00    +0.000 A 
ATOM      9  C   UNL     1     104.707 125.307 139.655  0.00  0.00    +0.000 C 
ATOM     10  C   UNL     1     105.308 123.985 139.853  0.00  0.00    +0.000 A 
ATOM     11  C   UNL     1     105.808 125.108 140.581  0.00  0.00    +0.000 A 
ATOM     12  C   UNL     1     105.862 123.499 140.222  0.00  0.00    +0.000 A 
ATOM     13  C   UNL     1     106.363 124.621 140.949  0.00  0.00    +0.000 A 
ATOM     14  C   UNL     1     106.390 123.817 140.769  0.00  0.00    +0.000 A 
ENDROOT
BRANCH   6  16
ATOM     15  O   UNL     1     101.515 123.458 138.136  0.00  0.00    +0.000 OA
ATOM     16  C   UNL     1     103.656 123.823 138.349  0.00  0.00    +0.000 A 
ATOM     17  C   UNL     1     103.937 123.523 137.633  0.00  0.00    +0.000 A 
ATOM     18  C   UNL     1     102.849 123.801 138.517  0.00  0.00    +0.000 A 
ATOM     19  C   UNL     1     103.410 123.203 137.085  0.00  0.00    +0.000 A 
ATOM     20  C   UNL     1     102.322 123.480 137.968  0.00  0.00    +0.000 A 
ATOM     21  C   UNL     1     102.603 123.181 137.252  0.00  0.00    +0.000 A 
BRANCH  19  22
ATOM     22  O   UNL     1     103.691 122.904 136.369  0.00  0.00    +0.000 OA
ATOM     23  C   UNL     1     103.385 123.184 135.656  0.00  0.00    +0.000 C 
ENDBRANCH  19  22
ENDBRANCH   6  16
TORSDOF 2
ENDMDL
MODEL 2
REMARK VINA RESULT:      -8.8      6.815      8.139
REMARK  Name = 131834555
REMARK  2 active torsions:
REMARK  status: ('A' for Active; 'I' for Inactive)
REMARK    1  A    between atoms: O_4  and  C_20
REMARK    2  A    between atoms: C_8  and  C_10
REMARK                            x       y       z     vdW  Elec       q    Type
REMARK                         _______ _______ _______ _____ _____    ______ ____
ROOT
ATOM      1  O   UNL     1     110.957 125.871 136.858  0.00  0.00    +0.000 OA
ATOM      2  O   UNL     1     109.808 125.647 134.613  0.00  0.00    +0.000 OA
ATOM      3  O   UNL     1     108.924 126.725 134.982  0.00  0.00    +0.000 OA
ATOM      4  O   UNL     1     108.408 127.866 136.056  0.00  0.00    +0.000 OA
ATOM      5  O   UNL     1     109.152 128.017 137.521  0.00  0.00    +0.000 OA
ATOM      6  C   UNL     1     111.230 125.275 136.304  0.00  0.00    +0.000 C 
ATOM      7  C   UNL     1     110.842 125.197 135.541  0.00  0.00    +0.000 C 
ATOM      8  C   UNL     1     109.927 126.306 135.911  0.00  0.00    +0.000 A 
ATOM      9  C   UNL     1     110.187 125.715 135.343  0.00  0.00    +0.000 C 
ATOM     10  C   UNL     1     110.299 126.381 136.643  0.00  0.00    +0.000 A 
ATOM     11  C   UNL     1     109.296 126.800 135.715  0.00  0.00    +0.000 A 
ATOM     12  C   UNL     1     110.041 126.952 137.180  0.00  0.00    +0.000 A 
ATOM     13  C   UNL     1     109.039 127.371 136.252  0.00  0.00    +0.000 A 
ATOM     14  C   UNL     1     109.411 127.446 136.984  0.00  0.00    +0.000 A 
ENDROOT
BRANCH   6  16
ATOM     15  O   UNL     1     112.201 122.784 137.313  0.00  0.00    +0.000 OA
ATOM     16  C   UNL     1     111.860 124.782 136.502  0.00  0.00    +0.000 A 
ATOM     17  C   UNL     1     112.636 125.040 136.393  0.00  0.00    +0.000 A 
ATOM     18  C   UNL     1     111.715 124.030 136.809  0.00  0.00    +0.000 A 
ATOM     19  C   UNL     1     113.267 124.546 136.591  0.00  0.00    +0.000 A 
ATOM     20  C   UNL     1     112.347 123.536 137.006  0.00  0.00    +0.000 A 
ATOM     21  C   UNL     1     113.122 123.795 136.898  0.00  0.00    +0.000 A 
BRANCH  19  22
ATOM     22  O   UNL     1     114.043 124.804 136.482  0.00  0.00    +0.000 OA
ATOM     23  C   UNL     1     114.527 124.947 137.135  0.00  0.00    +0.000 C 
ENDBRANCH  19  22
ENDBRANCH   6  16
TORSDOF 2
ENDMDL
MODEL 3
REMARK VINA RESULT:      -8.6      7.041      9.223
REMARK  Name = 131834555
REMARK  2 active torsions:
REMARK  status: ('A' for Active; 'I' for Inactive)
REMARK    1  A    between atoms: O_4  and  C_20
REMARK    2  A    between atoms: C_8  and  C_10
REMARK                            x       y       z     vdW  Elec       q    Type
REMARK                         _______ _______ _______ _____ _____    ______ ____
ROOT
ATOM      1  O   UNL     1     105.070 124.209 146.733  0.00  0.00    +0.000 OA
ATOM      2  O   UNL     1     103.212 125.164 148.163  0.00  0.00    +0.000 OA
ATOM      3  O   UNL     1     102.251 124.480 147.332  0.00  0.00    +0.000 OA
ATOM      4  O   UNL     1     101.883 123.500 146.057  0.00  0.00    +0.000 OA
ATOM      5  O   UNL     1     103.090 122.874 145.122  0.00  0.00    +0.000 OA
ATOM      6  C   UNL     1     105.268 124.718 147.395  0.00  0.00    +0.000 C 
ATOM      7  C   UNL     1     104.640 125.044 147.883  0.00  0.00    +0.000 C 
ATOM      8  C   UNL     1     103.642 124.344 147.034  0.00  0.00    +0.000 A 
ATOM      9  C   UNL     1     103.822 124.856 147.701  0.00  0.00    +0.000 C 
ATOM     10  C   UNL     1     104.246 124.031 146.566  0.00  0.00    +0.000 A 
ATOM     11  C   UNL     1     102.855 124.167 146.865  0.00  0.00    +0.000 A 
ATOM     12  C   UNL     1     104.061 123.542 145.929  0.00  0.00    +0.000 A 
ATOM     13  C   UNL     1     102.671 123.677 146.227  0.00  0.00    +0.000 A 
ATOM     14  C   UNL     1     103.275 123.364 145.759  0.00  0.00    +0.000 A 
ENDROOT
BRANCH   6  16
ATOM     15  O   UNL     1     107.607 126.294 146.929  0.00  0.00    +0.000 OA
ATOM     16  C   UNL     1     106.057 124.894 147.563  0.00  0.00    +0.000 A 
ATOM     17  C   UNL     1     106.465 124.458 148.132  0.00  0.00    +0.000 A 
ATOM     18  C   UNL     1     106.437 125.506 147.162  0.00  0.00    +0.000 A 
ATOM     19  C   UNL     1     107.253 124.633 148.299  0.00  0.00    +0.000 A 
ATOM     20  C   UNL     1     107.226 125.682 147.330  0.00  0.00    +0.000 A 
ATOM     21  C   UNL     1     107.634 125.245 147.899  0.00  0.00    +0.000 A 
BRANCH  19  22
ATOM     22  O   UNL     1     107.661 124.197 148.868  0.00  0.00    +0.000 OA
ATOM     23  C   UNL     1     107.811 124.524 149.611  0.00  0.00    +0.000 C 
ENDBRANCH  19  22
ENDBRANCH   6  16
TORSDOF 2
ENDMDL
MODEL 4
REMARK VINA RESULT:      -8.4      7.408      9.388
REMARK  Name = 131834555
REMARK  2 active torsions:
REMARK  status: ('A' for Active; 'I' for Inactive)
REMARK    1  A    between atoms: O_4  and  C_20
REMARK    2  A    between atoms: C_8  and  C_10
REMARK                            x       y       z     vdW  Elec       q    Type
REMARK                         _______ _______ _______ _____ _____    ______ ____
ROOT
ATOM      1  O   UNL     1     104.477 125.008 147.792  0.00  0.00    +0.000 OA
ATOM      2  O   UNL     1     103.920 123.864 145.603  0.00  0.00    +0.000 OA
ATOM      3  O   UNL     1     102.519 123.963 145.934  0.00  0.00    +0.000 OA
ATOM      4  O   UNL     1     101.304 124.420 146.951  0.00  0.00    +0.000 OA
ATOM      5  O   UNL     1     101.660 125.166 148.379  0.00  0.00    +0.000 OA
ATOM      6  C   UNL     1     105.114 124.772 147.266  0.00  0.00    +0.000 C 
ATOM      7  C   UNL     1     104.928 124.384 146.523  0.00  0.00    +0.000 C 
ATOM      8  C   UNL     1     103.483 124.480 146.853  0.00  0.00    +0.000 A 
ATOM      9  C   UNL     1     104.108 124.236 146.315  0.00  0.00    +0.000 C 
ATOM     10  C   UNL     1     103.661 124.852 147.567  0.00  0.00    +0.000 A 
ATOM     11  C   UNL     1     102.698 124.335 146.648  0.00  0.00    +0.000 A 
ATOM     12  C   UNL     1     103.054 125.081 148.076  0.00  0.00    +0.000 A 
ATOM     13  C   UNL     1     102.090 124.564 147.157  0.00  0.00    +0.000 A 
ATOM     14  C   UNL     1     102.269 124.937 147.871  0.00  0.00    +0.000 A 
ENDROOT
BRANCH   6  16
ATOM     15  O   UNL     1     107.554 126.206 146.872  0.00  0.00    +0.000 OA
ATOM     16  C   UNL     1     105.899 124.917 147.474  0.00  0.00    +0.000 A 
ATOM     17  C   UNL     1     106.249 124.490 148.087  0.00  0.00    +0.000 A 
ATOM     18  C   UNL     1     106.334 125.489 147.069  0.00  0.00    +0.000 A 
ATOM     19  C   UNL     1     107.034 124.635 148.295  0.00  0.00    +0.000 A 
ATOM     20  C   UNL     1     107.119 125.634 147.277  0.00  0.00    +0.000 A 
ATOM     21  C   UNL     1     107.469 125.207 147.890  0.00  0.00    +0.000 A 
BRANCH  19  22
ATOM     22  O   UNL     1     107.384 124.208 148.907  0.00  0.00    +0.000 OA
ATOM     23  C   UNL     1     107.589 124.587 149.611  0.00  0.00    +0.000 C 
ENDBRANCH  19  22
ENDBRANCH   6  16
TORSDOF 2
ENDMDL
MODEL 5
REMARK VINA RESULT:      -8.3      6.582      7.746
REMARK  Name = 131834555
REMARK  2 active torsions:
REMARK  status: ('A' for Active; 'I' for Inactive)
REMARK    1  A    between atoms: O_4  and  C_20
REMARK    2  A    between atoms: C_8  and  C_10
REMARK                            x       y       z     vdW  Elec       q    Type
REMARK                         _______ _______ _______ _____ _____    ______ ____
ROOT
ATOM      1  O   UNL     1     104.228 124.707 146.091  0.00  0.00    +0.000 OA
ATOM      2  O   UNL     1     105.496 124.357 148.255  0.00  0.00    +0.000 OA
ATOM      3  O   UNL     1     106.682 124.874 147.617  0.00  0.00    +0.000 OA
ATOM      4  O   UNL     1     107.460 125.498 146.303  0.00  0.00    +0.000 OA
ATOM      5  O   UNL     1     106.639 125.728 144.890  0.00  0.00    +0.000 OA
ATOM      6  C   UNL     1     103.817 124.382 146.772  0.00  0.00    +0.000 C 
ATOM      7  C   UNL     1     104.245 124.262 147.508  0.00  0.00    +0.000 C 
ATOM      8  C   UNL     1     105.472 124.793 146.861  0.00  0.00    +0.000 A 
ATOM      9  C   UNL     1     105.077 124.469 147.553  0.00  0.00    +0.000 C 
ATOM     10  C   UNL     1     105.061 124.908 146.155  0.00  0.00    +0.000 A 
ATOM     11  C   UNL     1     106.271 124.989 146.911  0.00  0.00    +0.000 A 
ATOM     12  C   UNL     1     105.450 125.219 145.498  0.00  0.00    +0.000 A 
ATOM     13  C   UNL     1     106.660 125.301 146.253  0.00  0.00    +0.000 A 
ATOM     14  C   UNL     1     106.249 125.416 145.547  0.00  0.00    +0.000 A 
ENDROOT
BRANCH   6  16
ATOM     15  O   UNL     1     101.100 124.847 147.527  0.00  0.00    +0.000 OA
ATOM     16  C   UNL     1     103.017 124.186 146.720  0.00  0.00    +0.000 A 
ATOM     17  C   UNL     1     102.776 123.561 146.239  0.00  0.00    +0.000 A 
ATOM     18  C   UNL     1     102.459 124.615 147.150  0.00  0.00    +0.000 A 
ATOM     19  C   UNL     1     101.977 123.365 146.187  0.00  0.00    +0.000 A 
ATOM     20  C   UNL     1     101.659 124.418 147.097  0.00  0.00    +0.000 A 
ATOM     21  C   UNL     1     101.418 123.793 146.616  0.00  0.00    +0.000 A 
BRANCH  19  22
ATOM     22  O   UNL     1     101.736 122.739 145.706  0.00  0.00    +0.000 OA
ATOM     23  C   UNL     1     101.207 122.875 145.086  0.00  0.00    +0.000 C 
ENDBRANCH  19  22
ENDBRANCH   6  16
TORSDOF 2
ENDMDL
MODEL 6
REMARK VINA RESULT:      -8.2      8.914     10.232
REMARK  Name = 131834555
REMARK  2 active torsions:
REMARK  status: ('A' for Active; 'I' for Inactive)
REMARK    1  A    between atoms: O_4  and  C_20
REMARK    2  A    between atoms: C_8  and  C_10
REMARK                            x       y       z     vdW  Elec       q    Type
REMARK                         _______ _______ _______ _____ _____    ______ ____
ROOT
ATOM      1  O   UNL     1     113.852 127.263 136.183  0.00  0.00    +0.000 OA
ATOM      2  O   UNL     1     112.622 128.504 138.015  0.00  0.00    +0.000 OA
ATOM      3  O   UNL     1     112.918 129.745 137.343  0.00  0.00    +0.000 OA
ATOM      4  O   UNL     1     113.600 130.587 136.098  0.00  0.00    +0.000 OA
ATOM      5  O   UNL     1     114.403 129.784 134.901  0.00  0.00    +0.000 OA
ATOM      6  C   UNL     1     113.500 126.820 136.828  0.00  0.00    +0.000 C 
ATOM      7  C   UNL     1     113.082 127.238 137.451  0.00  0.00    +0.000 C 
ATOM      8  C   UNL     1     113.381 128.522 136.767  0.00  0.00    +0.000 A 
ATOM      9  C   UNL     1     113.022 128.094 137.421  0.00  0.00    +0.000 C 
ATOM     10  C   UNL     1     113.782 128.120 136.169  0.00  0.00    +0.000 A 
ATOM     11  C   UNL     1     113.320 129.344 136.744  0.00  0.00    +0.000 A 
ATOM     12  C   UNL     1     114.123 128.541 135.547  0.00  0.00    +0.000 A 
ATOM     13  C   UNL     1     113.661 129.764 136.122  0.00  0.00    +0.000 A 
ATOM     14  C   UNL     1     114.062 129.363 135.523  0.00  0.00    +0.000 A 
ENDROOT
BRANCH   6  16
ATOM     15  O   UNL     1     114.974 124.465 137.500  0.00  0.00    +0.000 OA
ATOM     16  C   UNL     1     113.562 125.997 136.849  0.00  0.00    +0.000 A 
ATOM     17  C   UNL     1     112.949 125.530 136.556  0.00  0.00    +0.000 A 
ATOM     18  C   UNL     1     114.237 125.643 137.164  0.00  0.00    +0.000 A 
ATOM     19  C   UNL     1     113.011 124.707 136.578  0.00  0.00    +0.000 A 
ATOM     20  C   UNL     1     114.299 124.820 137.185  0.00  0.00    +0.000 A 
ATOM     21  C   UNL     1     113.686 124.352 136.892  0.00  0.00    +0.000 A 
BRANCH  19  22
ATOM     22  O   UNL     1     112.398 124.239 136.284  0.00  0.00    +0.000 OA
ATOM     23  C   UNL     1     111.917 123.815 136.804  0.00  0.00    +0.000 C 
ENDBRANCH  19  22
ENDBRANCH   6  16
TORSDOF 2
ENDMDL
MODEL 7
REMARK VINA RESULT:      -8.0      8.903     10.396
REMARK  Name = 131834555
REMARK  2 active torsions:
REMARK  status: ('A' for Active; 'I' for Inactive)
REMARK    1  A    between atoms: O_4  and  C_20
REMARK    2  A    between atoms: C_8  and  C_10
REMARK                            x       y       z     vdW  Elec       q    Type
REMARK                         _______ _______ _______ _____ _____    ______ ____
ROOT
ATOM      1  O   UNL     1     113.925 126.966 136.704  0.00  0.00    +0.000 OA
ATOM      2  O   UNL     1     111.641 126.111 136.022  0.00  0.00    +0.000 OA
ATOM      3  O   UNL     1     112.053 124.780 136.393  0.00  0.00    +0.000 OA
ATOM      4  O   UNL     1     113.181 123.727 136.977  0.00  0.00    +0.000 OA
ATOM      5  O   UNL     1     114.671 124.278 137.424  0.00  0.00    +0.000 OA
ATOM      6  C   UNL     1     113.342 127.519 136.401  0.00  0.00    +0.000 C 
ATOM      7  C   UNL     1     112.566 127.232 136.168  0.00  0.00    +0.000 C 
ATOM      8  C   UNL     1     112.979 125.857 136.548  0.00  0.00    +0.000 A 
ATOM      9  C   UNL     1     112.383 126.396 136.242  0.00  0.00    +0.000 C 
ATOM     10  C   UNL     1     113.724 126.132 136.771  0.00  0.00    +0.000 A 
ATOM     11  C   UNL     1     112.798 125.055 136.616  0.00  0.00    +0.000 A 
ATOM     12  C   UNL     1     114.288 125.606 137.063  0.00  0.00    +0.000 A 
ATOM     13  C   UNL     1     113.362 124.529 136.908  0.00  0.00    +0.000 A 
ATOM     14  C   UNL     1     114.107 124.805 137.132  0.00  0.00    +0.000 A 
ENDROOT
BRANCH   6  16
ATOM     15  O   UNL     1     114.461 129.684 134.909  0.00  0.00    +0.000 OA
ATOM     16  C   UNL     1     113.525 128.320 136.333  0.00  0.00    +0.000 A 
ATOM     17  C   UNL     1     113.332 128.841 136.943  0.00  0.00    +0.000 A 
ATOM     18  C   UNL     1     113.902 128.601 135.655  0.00  0.00    +0.000 A 
ATOM     19  C   UNL     1     113.516 129.642 136.875  0.00  0.00    +0.000 A 
ATOM     20  C   UNL     1     114.085 129.403 135.587  0.00  0.00    +0.000 A 
ATOM     21  C   UNL     1     113.892 129.924 136.198  0.00  0.00    +0.000 A 
BRANCH  19  22
ATOM     22  O   UNL     1     113.323 130.162 137.486  0.00  0.00    +0.000 OA
ATOM     23  C   UNL     1     113.913 130.445 137.990  0.00  0.00    +0.000 C 
ENDBRANCH  19  22
ENDBRANCH   6  16
TORSDOF 2
ENDMDL
MODEL 8
REMARK VINA RESULT:      -8.0      7.223      8.075
REMARK  Name = 131834555
REMARK  2 active torsions:
REMARK  status: ('A' for Active; 'I' for Inactive)
REMARK    1  A    between atoms: O_4  and  C_20
REMARK    2  A    between atoms: C_8  and  C_10
REMARK                            x       y       z     vdW  Elec       q    Type
REMARK                         _______ _______ _______ _____ _____    ______ ____
ROOT
ATOM      1  O   UNL     1     111.854 126.146 136.715  0.00  0.00    +0.000 OA
ATOM      2  O   UNL     1     111.763 123.688 136.113  0.00  0.00    +0.000 OA
ATOM      3  O   UNL     1     113.083 123.526 136.672  0.00  0.00    +0.000 OA
ATOM      4  O   UNL     1     114.421 124.138 137.417  0.00  0.00    +0.000 OA
ATOM      5  O   UNL     1     114.486 125.739 137.812  0.00  0.00    +0.000 OA
ATOM      6  C   UNL     1     111.154 125.833 136.327  0.00  0.00    +0.000 C 
ATOM      7  C   UNL     1     111.120 125.000 136.121  0.00  0.00    +0.000 C 
ATOM      8  C   UNL     1     112.478 124.821 136.695  0.00  0.00    +0.000 A 
ATOM      9  C   UNL     1     111.786 124.490 136.306  0.00  0.00    +0.000 C 
ATOM     10  C   UNL     1     112.511 125.621 136.892  0.00  0.00    +0.000 A 
ATOM     11  C   UNL     1     113.115 124.326 136.869  0.00  0.00    +0.000 A 
ATOM     12  C   UNL     1     113.180 125.927 137.264  0.00  0.00    +0.000 A 
ATOM     13  C   UNL     1     113.784 124.633 137.242  0.00  0.00    +0.000 A 
ATOM     14  C   UNL     1     113.816 125.433 137.439  0.00  0.00    +0.000 A 
ENDROOT
BRANCH   6  16
ATOM     15  O   UNL     1     108.586 126.895 136.996  0.00  0.00    +0.000 OA
ATOM     16  C   UNL     1     110.518 126.330 136.153  0.00  0.00    +0.000 A 
ATOM     17  C   UNL     1     110.531 126.792 135.469  0.00  0.00    +0.000 A 
ATOM     18  C   UNL     1     109.870 126.364 136.662  0.00  0.00    +0.000 A 
ATOM     19  C   UNL     1     109.896 127.288 135.295  0.00  0.00    +0.000 A 
ATOM     20  C   UNL     1     109.235 126.861 136.487  0.00  0.00    +0.000 A 
ATOM     21  C   UNL     1     109.247 127.323 135.804  0.00  0.00    +0.000 A 
BRANCH  19  22
ATOM     22  O   UNL     1     109.908 127.750 134.612  0.00  0.00    +0.000 OA
ATOM     23  C   UNL     1     110.084 128.555 134.661  0.00  0.00    +0.000 C 
ENDBRANCH  19  22
ENDBRANCH   6  16
TORSDOF 2
ENDMDL
MODEL 9
REMARK VINA RESULT:      -6.4      5.875      7.540
REMARK  Name = 131834555
REMARK  2 active torsions:
REMARK  status: ('A' for Active; 'I' for Inactive)
REMARK    1  A    between atoms: O_4  and  C_20
REMARK    2  A    between atoms: C_8  and  C_10
REMARK                            x       y       z     vdW  Elec       q    Type
REMARK                         _______ _______ _______ _____ _____    ______ ____
ROOT
ATOM      1  O   UNL     1     103.299 130.282 142.030  0.00  0.00    +0.000 OA
ATOM      2  O   UNL     1     102.791 129.030 139.888  0.00  0.00    +0.000 OA
ATOM      3  O   UNL     1     103.711 127.998 140.300  0.00  0.00    +0.000 OA
ATOM      4  O   UNL     1     104.784 127.367 141.383  0.00  0.00    +0.000 OA
ATOM      5  O   UNL     1     105.119 128.179 142.781  0.00  0.00    +0.000 OA
ATOM      6  C   UNL     1     102.739 130.616 141.469  0.00  0.00    +0.000 C 
ATOM      7  C   UNL     1     102.565 130.193 140.742  0.00  0.00    +0.000 C 
ATOM      8  C   UNL     1     103.509 129.125 141.156  0.00  0.00    +0.000 A 
ATOM      9  C   UNL     1     102.952 129.443 140.584  0.00  0.00    +0.000 C 
ATOM     10  C   UNL     1     103.677 129.530 141.855  0.00  0.00    +0.000 A 
ATOM     11  C   UNL     1     103.878 128.404 140.999  0.00  0.00    +0.000 A 
ATOM     12  C   UNL     1     104.213 129.215 142.396  0.00  0.00    +0.000 A 
ATOM     13  C   UNL     1     104.414 128.089 141.541  0.00  0.00    +0.000 A 
ATOM     14  C   UNL     1     104.582 128.495 142.239  0.00  0.00    +0.000 A 
ENDROOT
BRANCH   6  16
ATOM     15  O   UNL     1     100.710 132.117 142.810  0.00  0.00    +0.000 OA
ATOM     16  C   UNL     1     102.372 131.337 141.629  0.00  0.00    +0.000 A 
ATOM     17  C   UNL     1     102.651 132.029 141.277  0.00  0.00    +0.000 A 
ATOM     18  C   UNL     1     101.724 131.366 142.140  0.00  0.00    +0.000 A 
ATOM     19  C   UNL     1     102.284 132.750 141.437  0.00  0.00    +0.000 A 
ATOM     20  C   UNL     1     101.357 132.088 142.299  0.00  0.00    +0.000 A 
ATOM     21  C   UNL     1     101.637 132.780 141.947  0.00  0.00    +0.000 A 
BRANCH  19  22
ATOM     22  O   UNL     1     102.564 133.442 141.086  0.00  0.00    +0.000 OA
ATOM     23  C   UNL     1     103.077 133.938 141.500  0.00  0.00    +0.000 C 
ENDBRANCH  19  22
ENDBRANCH   6  16
TORSDOF 2
ENDMDL
