MODEL 1
REMARK VINA RESULT:     -10.1      0.000      0.000
REMARK  Name = 11664505
REMARK  7 active torsions:
REMARK  status: ('A' for Active; 'I' for Inactive)
REMARK    1  A    between atoms: O_1  and  C_17
REMARK    2  A    between atoms: O_1  and  C_20
REMARK    3  A    between atoms: O_5  and  C_21
REMARK    4  A    between atoms: O_5  and  C_29
REMARK    5  A    between atoms: O_15  and  C_41
REMARK    6  A    between atoms: C_23  and  C_27
REMARK    7  A    between atoms: C_30  and  C_33
REMARK                            x       y       z     vdW  Elec       q    Type
REMARK                         _______ _______ _______ _____ _____    ______ ____
ROOT
ATOM      1  O   UNL     1     112.034 127.192 137.558  0.00  0.00    +0.000 OA
ENDROOT
BRANCH   1   6
ATOM      2  O   UNL     1     113.346 126.246 139.023  0.00  0.00    +0.000 OA
ATOM      3  O   UNL     1     112.421 128.484 138.509  0.00  0.00    +0.000 OA
ATOM      4  O   UNL     1     113.112 129.061 139.636  0.00  0.00    +0.000 OA
ATOM      5  O   UNL     1     114.770 127.341 141.315  0.00  0.00    +0.000 OA
ATOM      6  C   UNL     1     112.536 127.092 138.205  0.00  0.00    +0.000 A 
ATOM      7  C   UNL     1     112.844 126.346 138.376  0.00  0.00    +0.000 A 
ATOM      8  C   UNL     1     112.729 127.737 138.680  0.00  0.00    +0.000 A 
ATOM      9  C   UNL     1     113.231 127.638 139.327  0.00  0.00    +0.000 A 
ATOM     10  C   UNL     1     113.539 126.892 139.499  0.00  0.00    +0.000 A 
ATOM     11  C   UNL     1     113.425 128.318 139.815  0.00  0.00    +0.000 A 
ATOM     12  C   UNL     1     114.063 126.775 140.170  0.00  0.00    +0.000 A 
ATOM     13  C   UNL     1     113.947 128.220 140.490  0.00  0.00    +0.000 A 
ATOM     14  C   UNL     1     114.268 127.444 140.669  0.00  0.00    +0.000 A 
BRANCH   7  16
ATOM     15  O   UNL     1     112.070 123.762 136.475  0.00  0.00    +0.000 OA
ATOM     16  C   UNL     1     112.651 125.700 137.901  0.00  0.00    +0.000 A 
ATOM     17  C   UNL     1     113.172 125.449 137.313  0.00  0.00    +0.000 A 
ATOM     18  C   UNL     1     111.935 125.305 138.014  0.00  0.00    +0.000 A 
ATOM     19  C   UNL     1     112.979 124.804 136.838  0.00  0.00    +0.000 A 
ATOM     20  C   UNL     1     111.742 124.658 137.538  0.00  0.00    +0.000 A 
ATOM     21  C   UNL     1     112.263 124.408 136.950  0.00  0.00    +0.000 A 
BRANCH  19  22
ATOM     22  O   UNL     1     113.500 124.553 136.249  0.00  0.00    +0.000 OA
ATOM     23  C   UNL     1     114.314 124.635 136.358  0.00  0.00    +0.000 C 
ENDBRANCH  19  22
ENDBRANCH   7  16
ENDBRANCH   1   6
BRANCH   1  30
ATOM     24  O   UNL     1     112.990 127.874 136.744  0.00  0.00    +0.000 OA
ATOM     25  O   UNL     1     111.173 129.218 135.736  0.00  0.00    +0.000 OA
ATOM     26  O   UNL     1     112.734 129.452 135.259  0.00  0.00    +0.000 OA
ATOM     27  C   UNL     1     111.602 128.205 136.647  0.00  0.00    +0.000 C 
ATOM     28  C   UNL     1     111.778 128.770 136.072  0.00  0.00    +0.000 C 
ATOM     29  C   UNL     1     112.559 128.888 135.833  0.00  0.00    +0.000 C 
ATOM     30  C   UNL     1     112.208 127.757 136.983  0.00  0.00    +0.000 C 
ATOM     31  C   UNL     1     113.164 128.440 136.170  0.00  0.00    +0.000 C 
BRANCH  31  33
ATOM     32  O   UNL     1     114.367 127.938 135.584  0.00  0.00    +0.000 OA
ATOM     33  C   UNL     1     113.946 128.557 135.932  0.00  0.00    +0.000 C 
ENDBRANCH  31  33
BRANCH  27  34
ATOM     34  O   UNL     1     110.822 128.088 136.885  0.00  0.00    +0.000 OA
BRANCH  34  39
ATOM     35  O   UNL     1     110.597 127.251 135.749  0.00  0.00    +0.000 OA
ATOM     36  O   UNL     1     109.224 127.978 137.282  0.00  0.00    +0.000 OA
ATOM     37  O   UNL     1     108.201 127.086 136.344  0.00  0.00    +0.000 OA
ATOM     38  O   UNL     1     108.775 126.305 135.009  0.00  0.00    +0.000 OA
ATOM     39  C   UNL     1     110.310 127.642 136.416  0.00  0.00    +0.000 C 
ATOM     40  C   UNL     1     109.511 127.587 136.615  0.00  0.00    +0.000 C 
ATOM     41  C   UNL     1     108.999 127.141 136.146  0.00  0.00    +0.000 C 
ATOM     42  C   UNL     1     109.287 126.750 135.478  0.00  0.00    +0.000 C 
ATOM     43  C   UNL     1     110.085 126.805 135.280  0.00  0.00    +0.000 C 
ATOM     44  C   UNL     1     110.373 126.414 134.612  0.00  0.00    +0.000 C 
ENDBRANCH  34  39
ENDBRANCH  27  34
ENDBRANCH   1  30
TORSDOF 7
ENDMDL
MODEL 2
REMARK VINA RESULT:      -9.8      2.271      4.244
REMARK  Name = 11664505
REMARK  7 active torsions:
REMARK  status: ('A' for Active; 'I' for Inactive)
REMARK    1  A    between atoms: O_1  and  C_17
REMARK    2  A    between atoms: O_1  and  C_20
REMARK    3  A    between atoms: O_5  and  C_21
REMARK    4  A    between atoms: O_5  and  C_29
REMARK    5  A    between atoms: O_15  and  C_41
REMARK    6  A    between atoms: C_23  and  C_27
REMARK    7  A    between atoms: C_30  and  C_33
REMARK                            x       y       z     vdW  Elec       q    Type
REMARK                         _______ _______ _______ _____ _____    ______ ____
ROOT
ATOM      1  O   UNL     1     111.542 126.375 138.998  0.00  0.00    +0.000 OA
ENDROOT
BRANCH   1   6
ATOM      2  O   UNL     1     113.693 126.203 138.678  0.00  0.00    +0.000 OA
ATOM      3  O   UNL     1     111.587 125.257 137.785  0.00  0.00    +0.000 OA
ATOM      4  O   UNL     1     112.318 124.436 136.851  0.00  0.00    +0.000 OA
ATOM      5  O   UNL     1     115.235 124.574 136.819  0.00  0.00    +0.000 OA
ATOM      6  C   UNL     1     112.267 126.131 138.689  0.00  0.00    +0.000 A 
ATOM      7  C   UNL     1     112.968 126.447 138.987  0.00  0.00    +0.000 A 
ATOM      8  C   UNL     1     112.289 125.573 138.083  0.00  0.00    +0.000 A 
ATOM      9  C   UNL     1     113.014 125.329 137.774  0.00  0.00    +0.000 A 
ATOM     10  C   UNL     1     113.717 125.643 138.071  0.00  0.00    +0.000 A 
ATOM     11  C   UNL     1     113.026 124.745 137.142  0.00  0.00    +0.000 A 
ATOM     12  C   UNL     1     114.478 125.398 137.758  0.00  0.00    +0.000 A 
ATOM     13  C   UNL     1     113.778 124.488 136.817  0.00  0.00    +0.000 A 
ATOM     14  C   UNL     1     114.508 124.816 137.127  0.00  0.00    +0.000 A 
BRANCH   7  16
ATOM     15  O   UNL     1     112.878 128.682 141.413  0.00  0.00    +0.000 OA
ATOM     16  C   UNL     1     112.946 127.005 139.593  0.00  0.00    +0.000 A 
ATOM     17  C   UNL     1     112.983 127.810 139.414  0.00  0.00    +0.000 A 
ATOM     18  C   UNL     1     112.886 126.760 140.378  0.00  0.00    +0.000 A 
ATOM     19  C   UNL     1     112.960 128.369 140.020  0.00  0.00    +0.000 A 
ATOM     20  C   UNL     1     112.863 127.319 140.985  0.00  0.00    +0.000 A 
ATOM     21  C   UNL     1     112.900 128.123 140.805  0.00  0.00    +0.000 A 
BRANCH  19  22
ATOM     22  O   UNL     1     112.998 129.174 139.842  0.00  0.00    +0.000 OA
ATOM     23  C   UNL     1     113.527 129.445 139.270  0.00  0.00    +0.000 C 
ENDBRANCH  19  22
ENDBRANCH   7  16
ENDBRANCH   1   6
BRANCH   1  30
ATOM     24  O   UNL     1     111.160 127.153 137.861  0.00  0.00    +0.000 OA
ATOM     25  O   UNL     1     108.789 126.563 138.254  0.00  0.00    +0.000 OA
ATOM     26  O   UNL     1     109.198 127.537 136.987  0.00  0.00    +0.000 OA
ATOM     27  C   UNL     1     110.165 126.469 138.626  0.00  0.00    +0.000 C 
ATOM     28  C   UNL     1     109.579 126.760 138.123  0.00  0.00    +0.000 C 
ATOM     29  C   UNL     1     109.783 127.246 137.490  0.00  0.00    +0.000 C 
ATOM     30  C   UNL     1     110.955 126.665 138.495  0.00  0.00    +0.000 C 
ATOM     31  C   UNL     1     110.574 127.443 137.359  0.00  0.00    +0.000 C 
BRANCH  31  33
ATOM     32  O   UNL     1     111.129 128.664 136.867  0.00  0.00    +0.000 OA
ATOM     33  C   UNL     1     110.779 127.930 136.726  0.00  0.00    +0.000 C 
ENDBRANCH  31  33
BRANCH  27  34
ATOM     34  O   UNL     1     109.961 125.982 139.259  0.00  0.00    +0.000 OA
BRANCH  34  39
ATOM     35  O   UNL     1     109.604 127.128 140.035  0.00  0.00    +0.000 OA
ATOM     36  O   UNL     1     109.359 124.997 140.439  0.00  0.00    +0.000 OA
ATOM     37  O   UNL     1     108.701 125.652 141.803  0.00  0.00    +0.000 OA
ATOM     38  O   UNL     1     108.645 127.290 141.989  0.00  0.00    +0.000 OA
ATOM     39  C   UNL     1     109.632 126.309 139.942  0.00  0.00    +0.000 C 
ATOM     40  C   UNL     1     109.331 125.816 140.532  0.00  0.00    +0.000 C 
ATOM     41  C   UNL     1     109.002 126.144 141.214  0.00  0.00    +0.000 C 
ATOM     42  C   UNL     1     108.974 126.963 141.306  0.00  0.00    +0.000 C 
ATOM     43  C   UNL     1     109.275 127.455 140.717  0.00  0.00    +0.000 C 
ATOM     44  C   UNL     1     109.248 128.275 140.809  0.00  0.00    +0.000 C 
ENDBRANCH  34  39
ENDBRANCH  27  34
ENDBRANCH   1  30
TORSDOF 7
ENDMDL
MODEL 3
REMARK VINA RESULT:      -9.7      1.550      3.775
REMARK  Name = 11664505
REMARK  7 active torsions:
REMARK  status: ('A' for Active; 'I' for Inactive)
REMARK    1  A    between atoms: O_1  and  C_17
REMARK    2  A    between atoms: O_1  and  C_20
REMARK    3  A    between atoms: O_5  and  C_21
REMARK    4  A    between atoms: O_5  and  C_29
REMARK    5  A    between atoms: O_15  and  C_41
REMARK    6  A    between atoms: C_23  and  C_27
REMARK    7  A    between atoms: C_30  and  C_33
REMARK                            x       y       z     vdW  Elec       q    Type
REMARK                         _______ _______ _______ _____ _____    ______ ____
ROOT
ATOM      1  O   UNL     1     112.411 127.663 138.131  0.00  0.00    +0.000 OA
ENDROOT
BRANCH   1   6
ATOM      2  O   UNL     1     113.348 129.634 138.102  0.00  0.00    +0.000 OA
ATOM      3  O   UNL     1     112.938 127.780 139.690  0.00  0.00    +0.000 OA
ATOM      4  O   UNL     1     113.603 128.501 140.749  0.00  0.00    +0.000 OA
ATOM      5  O   UNL     1     114.703 131.148 140.189  0.00  0.00    +0.000 OA
ATOM      6  C   UNL     1     112.812 128.340 138.382  0.00  0.00    +0.000 A 
ATOM      7  C   UNL     1     112.948 128.958 137.852  0.00  0.00    +0.000 A 
ATOM      8  C   UNL     1     113.074 128.398 139.161  0.00  0.00    +0.000 A 
ATOM      9  C   UNL     1     113.474 129.075 139.411  0.00  0.00    +0.000 A 
ATOM     10  C   UNL     1     113.612 129.693 138.883  0.00  0.00    +0.000 A 
ATOM     11  C   UNL     1     113.744 129.124 140.226  0.00  0.00    +0.000 A 
ATOM     12  C   UNL     1     114.027 130.403 139.131  0.00  0.00    +0.000 A 
ATOM     13  C   UNL     1     114.161 129.827 140.493  0.00  0.00    +0.000 A 
ATOM     14  C   UNL     1     114.303 130.470 139.941  0.00  0.00    +0.000 A 
BRANCH   7  16
ATOM     15  O   UNL     1     111.896 128.723 134.733  0.00  0.00    +0.000 OA
ATOM     16  C   UNL     1     112.685 128.899 137.073  0.00  0.00    +0.000 A 
ATOM     17  C   UNL     1     111.972 129.249 136.850  0.00  0.00    +0.000 A 
ATOM     18  C   UNL     1     113.135 128.490 136.515  0.00  0.00    +0.000 A 
ATOM     19  C   UNL     1     111.709 129.191 136.070  0.00  0.00    +0.000 A 
ATOM     20  C   UNL     1     112.872 128.431 135.735  0.00  0.00    +0.000 A 
ATOM     21  C   UNL     1     112.159 128.782 135.513  0.00  0.00    +0.000 A 
BRANCH  19  22
ATOM     22  O   UNL     1     110.996 129.541 135.847  0.00  0.00    +0.000 OA
ATOM     23  C   UNL     1     110.802 130.293 136.126  0.00  0.00    +0.000 C 
ENDBRANCH  19  22
ENDBRANCH   7  16
ENDBRANCH   1   6
BRANCH   1  30
ATOM     24  O   UNL     1     111.191 127.957 138.814  0.00  0.00    +0.000 OA
ATOM     25  O   UNL     1     110.823 125.539 139.195  0.00  0.00    +0.000 OA
ATOM     26  O   UNL     1     109.726 126.638 139.751  0.00  0.00    +0.000 OA
ATOM     27  C   UNL     1     111.618 126.601 138.663  0.00  0.00    +0.000 C 
ATOM     28  C   UNL     1     110.946 126.345 139.068  0.00  0.00    +0.000 C 
ATOM     29  C   UNL     1     110.397 126.894 139.346  0.00  0.00    +0.000 C 
ATOM     30  C   UNL     1     111.740 127.406 138.536  0.00  0.00    +0.000 C 
ATOM     31  C   UNL     1     110.520 127.700 139.219  0.00  0.00    +0.000 C 
BRANCH  31  33
ATOM     32  O   UNL     1     109.508 128.676 138.963  0.00  0.00    +0.000 OA
ATOM     33  C   UNL     1     109.972 128.250 139.497  0.00  0.00    +0.000 C 
ENDBRANCH  31  33
BRANCH  27  34
ATOM     34  O   UNL     1     112.166 126.051 138.385  0.00  0.00    +0.000 OA
BRANCH  34  39
ATOM     35  O   UNL     1     111.334 125.788 137.253  0.00  0.00    +0.000 OA
ATOM     36  O   UNL     1     113.194 124.853 137.907  0.00  0.00    +0.000 OA
ATOM     37  O   UNL     1     112.876 123.991 136.536  0.00  0.00    +0.000 OA
ATOM     38  O   UNL     1     111.530 124.328 135.644  0.00  0.00    +0.000 OA
ATOM     39  C   UNL     1     112.007 125.620 137.700  0.00  0.00    +0.000 C 
ATOM     40  C   UNL     1     112.521 125.021 137.460  0.00  0.00    +0.000 C 
ATOM     41  C   UNL     1     112.362 124.590 136.775  0.00  0.00    +0.000 C 
ATOM     42  C   UNL     1     111.689 124.759 136.329  0.00  0.00    +0.000 C 
ATOM     43  C   UNL     1     111.175 125.357 136.568  0.00  0.00    +0.000 C 
ATOM     44  C   UNL     1     110.501 125.526 136.122  0.00  0.00    +0.000 C 
ENDBRANCH  34  39
ENDBRANCH  27  34
ENDBRANCH   1  30
TORSDOF 7
ENDMDL
MODEL 4
REMARK VINA RESULT:      -9.7      1.055      3.031
REMARK  Name = 11664505
REMARK  7 active torsions:
REMARK  status: ('A' for Active; 'I' for Inactive)
REMARK    1  A    between atoms: O_1  and  C_17
REMARK    2  A    between atoms: O_1  and  C_20
REMARK    3  A    between atoms: O_5  and  C_21
REMARK    4  A    between atoms: O_5  and  C_29
REMARK    5  A    between atoms: O_15  and  C_41
REMARK    6  A    between atoms: C_23  and  C_27
REMARK    7  A    between atoms: C_30  and  C_33
REMARK                            x       y       z     vdW  Elec       q    Type
REMARK                         _______ _______ _______ _____ _____    ______ ____
ROOT
ATOM      1  O   UNL     1     112.062 127.409 137.735  0.00  0.00    +0.000 OA
ENDROOT
BRANCH   1   6
ATOM      2  O   UNL     1     113.299 129.100 138.347  0.00  0.00    +0.000 OA
ATOM      3  O   UNL     1     112.329 127.042 139.321  0.00  0.00    +0.000 OA
ATOM      4  O   UNL     1     112.914 127.340 140.606  0.00  0.00    +0.000 OA
ATOM      5  O   UNL     1     114.511 129.766 140.910  0.00  0.00    +0.000 OA
ATOM      6  C   UNL     1     112.519 127.911 138.204  0.00  0.00    +0.000 A 
ATOM      7  C   UNL     1     112.842 128.597 137.878  0.00  0.00    +0.000 A 
ATOM      8  C   UNL     1     112.652 127.728 138.996  0.00  0.00    +0.000 A 
ATOM      9  C   UNL     1     113.109 128.230 139.464  0.00  0.00    +0.000 A 
ATOM     10  C   UNL     1     113.433 128.916 139.140  0.00  0.00    +0.000 A 
ATOM     11  C   UNL     1     113.242 128.028 140.290  0.00  0.00    +0.000 A 
ATOM     12  C   UNL     1     113.911 129.448 139.617  0.00  0.00    +0.000 A 
ATOM     13  C   UNL     1     113.717 128.547 140.782  0.00  0.00    +0.000 A 
ATOM     14  C   UNL     1     114.053 129.261 140.444  0.00  0.00    +0.000 A 
BRANCH   7  16
ATOM     15  O   UNL     1     112.309 129.332 134.705  0.00  0.00    +0.000 OA
ATOM     16  C   UNL     1     112.709 128.781 137.086  0.00  0.00    +0.000 A 
ATOM     17  C   UNL     1     112.011 129.159 136.861  0.00  0.00    +0.000 A 
ATOM     18  C   UNL     1     113.274 128.587 136.517  0.00  0.00    +0.000 A 
ATOM     19  C   UNL     1     111.877 129.343 136.068  0.00  0.00    +0.000 A 
ATOM     20  C   UNL     1     113.140 128.770 135.723  0.00  0.00    +0.000 A 
ATOM     21  C   UNL     1     112.442 129.149 135.499  0.00  0.00    +0.000 A 
BRANCH  19  22
ATOM     22  O   UNL     1     111.179 129.721 135.844  0.00  0.00    +0.000 OA
ATOM     23  C   UNL     1     110.804 130.238 136.366  0.00  0.00    +0.000 C 
ENDBRANCH  19  22
ENDBRANCH   7  16
ENDBRANCH   1   6
BRANCH   1  30
ATOM     24  O   UNL     1     113.059 126.394 137.603  0.00  0.00    +0.000 OA
ATOM     25  O   UNL     1     111.291 124.662 137.569  0.00  0.00    +0.000 OA
ATOM     26  O   UNL     1     112.876 124.225 137.448  0.00  0.00    +0.000 OA
ATOM     27  C   UNL     1     111.676 126.036 137.652  0.00  0.00    +0.000 C 
ATOM     28  C   UNL     1     111.880 125.239 137.580  0.00  0.00    +0.000 C 
ATOM     29  C   UNL     1     112.672 125.020 137.520  0.00  0.00    +0.000 C 
ATOM     30  C   UNL     1     112.265 126.613 137.663  0.00  0.00    +0.000 C 
ATOM     31  C   UNL     1     113.262 125.597 137.531  0.00  0.00    +0.000 C 
BRANCH  31  33
ATOM     32  O   UNL     1     114.504 125.630 136.825  0.00  0.00    +0.000 OA
ATOM     33  C   UNL     1     114.055 125.379 137.471  0.00  0.00    +0.000 C 
ENDBRANCH  31  33
BRANCH  27  34
ATOM     34  O   UNL     1     110.883 126.255 137.712  0.00  0.00    +0.000 OA
BRANCH  34  39
ATOM     35  O   UNL     1     110.732 126.108 136.299  0.00  0.00    +0.000 OA
ATOM     36  O   UNL     1     109.334 126.814 137.819  0.00  0.00    +0.000 OA
ATOM     37  O   UNL     1     108.410 126.946 136.459  0.00  0.00    +0.000 OA
ATOM     38  O   UNL     1     109.034 126.520 134.992  0.00  0.00    +0.000 OA
ATOM     39  C   UNL     1     110.421 126.321 137.032  0.00  0.00    +0.000 C 
ATOM     40  C   UNL     1     109.646 126.601 137.086  0.00  0.00    +0.000 C 
ATOM     41  C   UNL     1     109.183 126.667 136.406  0.00  0.00    +0.000 C 
ATOM     42  C   UNL     1     109.496 126.454 135.672  0.00  0.00    +0.000 C 
ATOM     43  C   UNL     1     110.270 126.174 135.619  0.00  0.00    +0.000 C 
ATOM     44  C   UNL     1     110.582 125.961 134.886  0.00  0.00    +0.000 C 
ENDBRANCH  34  39
ENDBRANCH  27  34
ENDBRANCH   1  30
TORSDOF 7
ENDMDL
MODEL 5
REMARK VINA RESULT:      -9.6      1.848      3.745
REMARK  Name = 11664505
REMARK  7 active torsions:
REMARK  status: ('A' for Active; 'I' for Inactive)
REMARK    1  A    between atoms: O_1  and  C_17
REMARK    2  A    between atoms: O_1  and  C_20
REMARK    3  A    between atoms: O_5  and  C_21
REMARK    4  A    between atoms: O_5  and  C_29
REMARK    5  A    between atoms: O_15  and  C_41
REMARK    6  A    between atoms: C_23  and  C_27
REMARK    7  A    between atoms: C_30  and  C_33
REMARK                            x       y       z     vdW  Elec       q    Type
REMARK                         _______ _______ _______ _____ _____    ______ ____
ROOT
ATOM      1  O   UNL     1     111.847 127.710 137.988  0.00  0.00    +0.000 OA
ENDROOT
BRANCH   1   6
ATOM      2  O   UNL     1     113.195 127.403 136.299  0.00  0.00    +0.000 OA
ATOM      3  O   UNL     1     112.429 129.239 137.773  0.00  0.00    +0.000 OA
ATOM      4  O   UNL     1     113.265 130.186 137.076  0.00  0.00    +0.000 OA
ATOM      5  O   UNL     1     114.908 129.258 134.847  0.00  0.00    +0.000 OA
ATOM      6  C   UNL     1     112.394 127.863 137.389  0.00  0.00    +0.000 A 
ATOM      7  C   UNL     1     112.649 127.250 136.898  0.00  0.00    +0.000 A 
ATOM      8  C   UNL     1     112.684 128.627 137.282  0.00  0.00    +0.000 A 
ATOM      9  C   UNL     1     113.231 128.779 136.683  0.00  0.00    +0.000 A 
ATOM     10  C   UNL     1     113.486 128.168 136.191  0.00  0.00    +0.000 A 
ATOM     11  C   UNL     1     113.527 129.580 136.580  0.00  0.00    +0.000 A 
ATOM     12  C   UNL     1     114.055 128.314 135.564  0.00  0.00    +0.000 A 
ATOM     13  C   UNL     1     114.096 129.745 135.958  0.00  0.00    +0.000 A 
ATOM     14  C   UNL     1     114.361 129.108 135.447  0.00  0.00    +0.000 A 
BRANCH   7  16
ATOM     15  O   UNL     1     111.486 124.192 137.329  0.00  0.00    +0.000 OA
ATOM     16  C   UNL     1     112.358 126.486 137.006  0.00  0.00    +0.000 A 
ATOM     17  C   UNL     1     111.727 126.216 136.548  0.00  0.00    +0.000 A 
ATOM     18  C   UNL     1     112.699 125.992 137.571  0.00  0.00    +0.000 A 
ATOM     19  C   UNL     1     111.436 125.452 136.656  0.00  0.00    +0.000 A 
ATOM     20  C   UNL     1     112.408 125.226 137.679  0.00  0.00    +0.000 A 
ATOM     21  C   UNL     1     111.777 124.957 137.221  0.00  0.00    +0.000 A 
BRANCH  19  22
ATOM     22  O   UNL     1     110.805 125.182 136.199  0.00  0.00    +0.000 OA
ATOM     23  C   UNL     1     110.762 125.379 135.399  0.00  0.00    +0.000 C 
ENDBRANCH  19  22
ENDBRANCH   7  16
ENDBRANCH   1   6
BRANCH   1  30
ATOM     24  O   UNL     1     110.740 128.337 137.338  0.00  0.00    +0.000 OA
ATOM     25  O   UNL     1     109.863 129.065 139.535  0.00  0.00    +0.000 OA
ATOM     26  O   UNL     1     109.049 129.450 138.153  0.00  0.00    +0.000 OA
ATOM     27  C   UNL     1     110.855 128.387 138.762  0.00  0.00    +0.000 C 
ATOM     28  C   UNL     1     110.155 128.823 138.803  0.00  0.00    +0.000 C 
ATOM     29  C   UNL     1     109.748 129.015 138.112  0.00  0.00    +0.000 C 
ATOM     30  C   UNL     1     111.148 128.145 138.030  0.00  0.00    +0.000 C 
ATOM     31  C   UNL     1     110.041 128.772 137.380  0.00  0.00    +0.000 C 
BRANCH  31  33
ATOM     32  O   UNL     1     109.281 128.368 136.239  0.00  0.00    +0.000 OA
ATOM     33  C   UNL     1     109.634 128.964 136.688  0.00  0.00    +0.000 C 
ENDBRANCH  31  33
BRANCH  27  34
ATOM     34  O   UNL     1     111.262 128.195 139.453  0.00  0.00    +0.000 OA
BRANCH  34  39
ATOM     35  O   UNL     1     110.366 127.105 139.679  0.00  0.00    +0.000 OA
ATOM     36  O   UNL     1     112.016 127.872 140.884  0.00  0.00    +0.000 OA
ATOM     37  O   UNL     1     111.497 126.621 141.827  0.00  0.00    +0.000 OA
ATOM     38  O   UNL     1     110.224 125.693 141.337  0.00  0.00    +0.000 OA
ATOM     39  C   UNL     1     111.003 127.570 139.924  0.00  0.00    +0.000 C 
ATOM     40  C   UNL     1     111.380 127.408 140.640  0.00  0.00    +0.000 C 
ATOM     41  C   UNL     1     111.120 126.782 141.111  0.00  0.00    +0.000 C 
ATOM     42  C   UNL     1     110.483 126.318 140.866  0.00  0.00    +0.000 C 
ATOM     43  C   UNL     1     110.107 126.480 140.151  0.00  0.00    +0.000 C 
ATOM     44  C   UNL     1     109.470 126.016 139.905  0.00  0.00    +0.000 C 
ENDBRANCH  34  39
ENDBRANCH  27  34
ENDBRANCH   1  30
TORSDOF 7
ENDMDL
MODEL 6
REMARK VINA RESULT:      -9.6      1.598      3.856
REMARK  Name = 11664505
REMARK  7 active torsions:
REMARK  status: ('A' for Active; 'I' for Inactive)
REMARK    1  A    between atoms: O_1  and  C_17
REMARK    2  A    between atoms: O_1  and  C_20
REMARK    3  A    between atoms: O_5  and  C_21
REMARK    4  A    between atoms: O_5  and  C_29
REMARK    5  A    between atoms: O_15  and  C_41
REMARK    6  A    between atoms: C_23  and  C_27
REMARK    7  A    between atoms: C_30  and  C_33
REMARK                            x       y       z     vdW  Elec       q    Type
REMARK                         _______ _______ _______ _____ _____    ______ ____
ROOT
ATOM      1  O   UNL     1     111.439 127.249 137.070  0.00  0.00    +0.000 OA
ENDROOT
BRANCH   1   6
ATOM      2  O   UNL     1     113.545 126.820 137.451  0.00  0.00    +0.000 OA
ATOM      3  O   UNL     1     111.499 125.641 136.705  0.00  0.00    +0.000 OA
ATOM      4  O   UNL     1     112.225 124.401 136.579  0.00  0.00    +0.000 OA
ATOM      5  O   UNL     1     115.074 124.352 137.219  0.00  0.00    +0.000 OA
ATOM      6  C   UNL     1     112.151 126.838 137.136  0.00  0.00    +0.000 A 
ATOM      7  C   UNL     1     112.833 127.231 137.385  0.00  0.00    +0.000 A 
ATOM      8  C   UNL     1     112.181 126.035 136.954  0.00  0.00    +0.000 A 
ATOM      9  C   UNL     1     112.893 125.623 137.020  0.00  0.00    +0.000 A 
ATOM     10  C   UNL     1     113.575 126.015 137.268  0.00  0.00    +0.000 A 
ATOM     11  C   UNL     1     112.912 124.785 136.827  0.00  0.00    +0.000 A 
ATOM     12  C   UNL     1     114.323 125.598 137.341  0.00  0.00    +0.000 A 
ATOM     13  C   UNL     1     113.651 124.352 136.893  0.00  0.00    +0.000 A 
ATOM     14  C   UNL     1     114.360 124.761 137.152  0.00  0.00    +0.000 A 
BRANCH   7  16
ATOM     15  O   UNL     1     112.712 130.447 138.116  0.00  0.00    +0.000 OA
ATOM     16  C   UNL     1     112.802 128.034 137.567  0.00  0.00    +0.000 A 
ATOM     17  C   UNL     1     112.867 128.597 136.968  0.00  0.00    +0.000 A 
ATOM     18  C   UNL     1     112.708 128.276 138.351  0.00  0.00    +0.000 A 
ATOM     19  C   UNL     1     112.837 129.401 137.150  0.00  0.00    +0.000 A 
ATOM     20  C   UNL     1     112.678 129.081 138.534  0.00  0.00    +0.000 A 
ATOM     21  C   UNL     1     112.742 129.642 137.933  0.00  0.00    +0.000 A 
BRANCH  19  22
ATOM     22  O   UNL     1     112.902 129.964 136.550  0.00  0.00    +0.000 OA
ATOM     23  C   UNL     1     113.254 129.762 135.832  0.00  0.00    +0.000 C 
ENDBRANCH  19  22
ENDBRANCH   7  16
ENDBRANCH   1   6
BRANCH   1  30
ATOM     24  O   UNL     1     110.831 126.658 138.220  0.00  0.00    +0.000 OA
ATOM     25  O   UNL     1     108.619 126.788 137.117  0.00  0.00    +0.000 OA
ATOM     26  O   UNL     1     108.748 126.153 138.634  0.00  0.00    +0.000 OA
ATOM     27  C   UNL     1     110.029 127.019 137.093  0.00  0.00    +0.000 C 
ATOM     28  C   UNL     1     109.356 126.744 137.485  0.00  0.00    +0.000 C 
ATOM     29  C   UNL     1     109.420 126.427 138.243  0.00  0.00    +0.000 C 
ATOM     30  C   UNL     1     110.766 126.975 137.461  0.00  0.00    +0.000 C 
ATOM     31  C   UNL     1     110.158 126.384 138.611  0.00  0.00    +0.000 C 
BRANCH  31  33
ATOM     32  O   UNL     1     110.533 126.525 139.982  0.00  0.00    +0.000 OA
ATOM     33  C   UNL     1     110.223 126.067 139.369  0.00  0.00    +0.000 C 
ENDBRANCH  31  33
BRANCH  27  34
ATOM     34  O   UNL     1     109.964 127.336 136.335  0.00  0.00    +0.000 OA
BRANCH  34  39
ATOM     35  O   UNL     1     109.530 128.579 136.891  0.00  0.00    +0.000 OA
ATOM     36  O   UNL     1     109.795 127.957 134.816  0.00  0.00    +0.000 OA
ATOM     37  O   UNL     1     109.276 129.510 134.613  0.00  0.00    +0.000 OA
ATOM     38  O   UNL     1     108.927 130.442 135.929  0.00  0.00    +0.000 OA
ATOM     39  C   UNL     1     109.705 128.113 136.233  0.00  0.00    +0.000 C 
ATOM     40  C   UNL     1     109.620 128.424 135.473  0.00  0.00    +0.000 C 
ATOM     41  C   UNL     1     109.361 129.200 135.372  0.00  0.00    +0.000 C 
ATOM     42  C   UNL     1     109.186 129.666 136.031  0.00  0.00    +0.000 C 
ATOM     43  C   UNL     1     109.271 129.355 136.790  0.00  0.00    +0.000 C 
ATOM     44  C   UNL     1     109.096 129.821 137.448  0.00  0.00    +0.000 C 
ENDBRANCH  34  39
ENDBRANCH  27  34
ENDBRANCH   1  30
TORSDOF 7
ENDMDL
MODEL 7
REMARK VINA RESULT:      -9.6      1.775      4.573
REMARK  Name = 11664505
REMARK  7 active torsions:
REMARK  status: ('A' for Active; 'I' for Inactive)
REMARK    1  A    between atoms: O_1  and  C_17
REMARK    2  A    between atoms: O_1  and  C_20
REMARK    3  A    between atoms: O_5  and  C_21
REMARK    4  A    between atoms: O_5  and  C_29
REMARK    5  A    between atoms: O_15  and  C_41
REMARK    6  A    between atoms: C_23  and  C_27
REMARK    7  A    between atoms: C_30  and  C_33
REMARK                            x       y       z     vdW  Elec       q    Type
REMARK                         _______ _______ _______ _____ _____    ______ ____
ROOT
ATOM      1  O   UNL     1     111.744 127.540 137.670  0.00  0.00    +0.000 OA
ENDROOT
BRANCH   1   6
ATOM      2  O   UNL     1     112.107 129.271 136.390  0.00  0.00    +0.000 OA
ATOM      3  O   UNL     1     113.199 127.136 137.005  0.00  0.00    +0.000 OA
ATOM      4  O   UNL     1     114.313 127.422 136.134  0.00  0.00    +0.000 OA
ATOM      5  O   UNL     1     114.322 129.914 134.612  0.00  0.00    +0.000 OA
ATOM      6  C   UNL     1     112.108 128.050 137.132  0.00  0.00    +0.000 A 
ATOM      7  C   UNL     1     111.743 128.761 136.928  0.00  0.00    +0.000 A 
ATOM      8  C   UNL     1     112.835 127.848 136.800  0.00  0.00    +0.000 A 
ATOM      9  C   UNL     1     113.198 128.357 136.263  0.00  0.00    +0.000 A 
ATOM     10  C   UNL     1     112.835 129.069 136.057  0.00  0.00    +0.000 A 
ATOM     11  C   UNL     1     113.957 128.136 135.923  0.00  0.00    +0.000 A 
ATOM     12  C   UNL     1     113.203 129.608 135.499  0.00  0.00    +0.000 A 
ATOM     13  C   UNL     1     114.340 128.662 135.363  0.00  0.00    +0.000 A 
ATOM     14  C   UNL     1     113.961 129.403 135.149  0.00  0.00    +0.000 A 
BRANCH   7  16
ATOM     15  O   UNL     1     108.833 129.570 138.257  0.00  0.00    +0.000 OA
ATOM     16  C   UNL     1     111.016 128.963 137.260  0.00  0.00    +0.000 A 
ATOM     17  C   UNL     1     110.317 128.808 136.849  0.00  0.00    +0.000 A 
ATOM     18  C   UNL     1     110.987 129.320 138.003  0.00  0.00    +0.000 A 
ATOM     19  C   UNL     1     109.590 129.010 137.181  0.00  0.00    +0.000 A 
ATOM     20  C   UNL     1     110.259 129.523 138.336  0.00  0.00    +0.000 A 
ATOM     21  C   UNL     1     109.561 129.367 137.925  0.00  0.00    +0.000 A 
BRANCH  19  22
ATOM     22  O   UNL     1     108.891 128.856 136.771  0.00  0.00    +0.000 OA
ATOM     23  C   UNL     1     108.837 129.035 135.968  0.00  0.00    +0.000 C 
ENDBRANCH  19  22
ENDBRANCH   7  16
ENDBRANCH   1   6
BRANCH   1  30
ATOM     24  O   UNL     1     111.358 126.566 136.699  0.00  0.00    +0.000 OA
ATOM     25  O   UNL     1     111.679 124.771 138.372  0.00  0.00    +0.000 OA
ATOM     26  O   UNL     1     111.185 124.395 136.844  0.00  0.00    +0.000 OA
ATOM     27  C   UNL     1     111.712 126.155 138.022  0.00  0.00    +0.000 C 
ATOM     28  C   UNL     1     111.572 125.369 137.814  0.00  0.00    +0.000 C 
ATOM     29  C   UNL     1     111.325 125.181 137.051  0.00  0.00    +0.000 C 
ATOM     30  C   UNL     1     111.605 126.754 137.464  0.00  0.00    +0.000 C 
ATOM     31  C   UNL     1     111.218 125.779 136.493  0.00  0.00    +0.000 C 
BRANCH  31  33
ATOM     32  O   UNL     1     110.233 125.846 135.460  0.00  0.00    +0.000 OA
ATOM     33  C   UNL     1     110.971 125.592 135.728  0.00  0.00    +0.000 C 
ENDBRANCH  31  33
BRANCH  27  34
ATOM     34  O   UNL     1     111.958 126.344 138.785  0.00  0.00    +0.000 OA
BRANCH  34  39
ATOM     35  O   UNL     1     110.610 126.243 139.248  0.00  0.00    +0.000 OA
ATOM     36  O   UNL     1     112.466 126.626 140.330  0.00  0.00    +0.000 OA
ATOM     37  O   UNL     1     111.371 126.666 141.564  0.00  0.00    +0.000 OA
ATOM     38  O   UNL     1     109.768 126.424 141.253  0.00  0.00    +0.000 OA
ATOM     39  C   UNL     1     111.411 126.364 139.402  0.00  0.00    +0.000 C 
ATOM     40  C   UNL     1     111.665 126.505 140.175  0.00  0.00    +0.000 C 
ATOM     41  C   UNL     1     111.117 126.525 140.792  0.00  0.00    +0.000 C 
ATOM     42  C   UNL     1     110.316 126.404 140.636  0.00  0.00    +0.000 C 
ATOM     43  C   UNL     1     110.062 126.263 139.864  0.00  0.00    +0.000 C 
ATOM     44  C   UNL     1     109.261 126.142 139.708  0.00  0.00    +0.000 C 
ENDBRANCH  34  39
ENDBRANCH  27  34
ENDBRANCH   1  30
TORSDOF 7
ENDMDL
MODEL 8
REMARK VINA RESULT:      -9.6      1.690      3.648
REMARK  Name = 11664505
REMARK  7 active torsions:
REMARK  status: ('A' for Active; 'I' for Inactive)
REMARK    1  A    between atoms: O_1  and  C_17
REMARK    2  A    between atoms: O_1  and  C_20
REMARK    3  A    between atoms: O_5  and  C_21
REMARK    4  A    between atoms: O_5  and  C_29
REMARK    5  A    between atoms: O_15  and  C_41
REMARK    6  A    between atoms: C_23  and  C_27
REMARK    7  A    between atoms: C_30  and  C_33
REMARK                            x       y       z     vdW  Elec       q    Type
REMARK                         _______ _______ _______ _____ _____    ______ ____
ROOT
ATOM      1  O   UNL     1     110.809 127.733 136.867  0.00  0.00    +0.000 OA
ENDROOT
BRANCH   1   6
ATOM      2  O   UNL     1     111.369 125.996 138.063  0.00  0.00    +0.000 OA
ATOM      3  O   UNL     1     110.939 126.579 135.696  0.00  0.00    +0.000 OA
ATOM      4  O   UNL     1     111.211 125.223 135.282  0.00  0.00    +0.000 OA
ATOM      5  O   UNL     1     111.932 123.241 137.302  0.00  0.00    +0.000 OA
ATOM      6  C   UNL     1     111.017 126.961 137.071  0.00  0.00    +0.000 A 
ATOM      7  C   UNL     1     111.161 126.768 137.860  0.00  0.00    +0.000 A 
ATOM      8  C   UNL     1     111.083 126.385 136.485  0.00  0.00    +0.000 A 
ATOM      9  C   UNL     1     111.292 125.613 136.688  0.00  0.00    +0.000 A 
ATOM     10  C   UNL     1     111.435 125.418 137.477  0.00  0.00    +0.000 A 
ATOM     11  C   UNL     1     111.357 125.020 136.069  0.00  0.00    +0.000 A 
ATOM     12  C   UNL     1     111.653 124.618 137.702  0.00  0.00    +0.000 A 
ATOM     13  C   UNL     1     111.574 124.214 136.275  0.00  0.00    +0.000 A 
ATOM     14  C   UNL     1     111.723 124.012 137.096  0.00  0.00    +0.000 A 
BRANCH   7  16
ATOM     15  O   UNL     1     110.898 129.076 140.203  0.00  0.00    +0.000 OA
ATOM     16  C   UNL     1     111.095 127.344 138.445  0.00  0.00    +0.000 A 
ATOM     17  C   UNL     1     111.771 127.721 138.731  0.00  0.00    +0.000 A 
ATOM     18  C   UNL     1     110.354 127.545 138.746  0.00  0.00    +0.000 A 
ATOM     19  C   UNL     1     111.706 128.298 139.316  0.00  0.00    +0.000 A 
ATOM     20  C   UNL     1     110.288 128.122 139.332  0.00  0.00    +0.000 A 
ATOM     21  C   UNL     1     110.964 128.499 139.617  0.00  0.00    +0.000 A 
BRANCH  19  22
ATOM     22  O   UNL     1     112.382 128.675 139.602  0.00  0.00    +0.000 OA
ATOM     23  C   UNL     1     113.067 128.239 139.746  0.00  0.00    +0.000 C 
ENDBRANCH  19  22
ENDBRANCH   7  16
ENDBRANCH   1   6
BRANCH   1  30
ATOM     24  O   UNL     1     112.074 128.093 136.309  0.00  0.00    +0.000 OA
ATOM     25  O   UNL     1     110.930 129.493 134.619  0.00  0.00    +0.000 OA
ATOM     26  O   UNL     1     112.576 129.385 134.624  0.00  0.00    +0.000 OA
ATOM     27  C   UNL     1     110.869 128.613 135.743  0.00  0.00    +0.000 C 
ATOM     28  C   UNL     1     111.311 129.026 135.182  0.00  0.00    +0.000 C 
ATOM     29  C   UNL     1     112.134 128.973 135.184  0.00  0.00    +0.000 C 
ATOM     30  C   UNL     1     111.250 128.146 136.306  0.00  0.00    +0.000 C 
ATOM     31  C   UNL     1     112.515 128.506 135.748  0.00  0.00    +0.000 C 
BRANCH  31  33
ATOM     32  O   UNL     1     113.769 128.756 136.386  0.00  0.00    +0.000 OA
ATOM     33  C   UNL     1     113.338 128.452 135.751  0.00  0.00    +0.000 C 
ENDBRANCH  31  33
BRANCH  27  34
ATOM     34  O   UNL     1     110.046 128.667 135.741  0.00  0.00    +0.000 OA
BRANCH  34  39
ATOM     35  O   UNL     1     110.115 129.905 136.450  0.00  0.00    +0.000 OA
ATOM     36  O   UNL     1     108.427 128.888 135.513  0.00  0.00    +0.000 OA
ATOM     37  O   UNL     1     107.687 130.237 136.109  0.00  0.00    +0.000 OA
ATOM     38  O   UNL     1     108.565 131.364 136.932  0.00  0.00    +0.000 OA
ATOM     39  C   UNL     1     109.676 129.341 136.038  0.00  0.00    +0.000 C 
ATOM     40  C   UNL     1     108.866 129.452 135.925  0.00  0.00    +0.000 C 
ATOM     41  C   UNL     1     108.495 130.126 136.222  0.00  0.00    +0.000 C 
ATOM     42  C   UNL     1     108.936 130.690 136.634  0.00  0.00    +0.000 C 
ATOM     43  C   UNL     1     109.745 130.580 136.748  0.00  0.00    +0.000 C 
ATOM     44  C   UNL     1     110.185 131.144 137.160  0.00  0.00    +0.000 C 
ENDBRANCH  34  39
ENDBRANCH  27  34
ENDBRANCH   1  30
TORSDOF 7
ENDMDL
MODEL 9
REMARK VINA RESULT:      -9.5      1.539      4.882
REMARK  Name = 11664505
REMARK  7 active torsions:
REMARK  status: ('A' for Active; 'I' for Inactive)
REMARK    1  A    between atoms: O_1  and  C_17
REMARK    2  A    between atoms: O_1  and  C_20
REMARK    3  A    between atoms: O_5  and  C_21
REMARK    4  A    between atoms: O_5  and  C_29
REMARK    5  A    between atoms: O_15  and  C_41
REMARK    6  A    between atoms: C_23  and  C_27
REMARK    7  A    between atoms: C_30  and  C_33
REMARK                            x       y       z     vdW  Elec       q    Type
REMARK                         _______ _______ _______ _____ _____    ______ ____
ROOT
ATOM      1  O   UNL     1     111.617 127.568 136.915  0.00  0.00    +0.000 OA
ENDROOT
BRANCH   1   6
ATOM      2  O   UNL     1     111.045 129.383 135.846  0.00  0.00    +0.000 OA
ATOM      3  O   UNL     1     109.972 127.443 136.946  0.00  0.00    +0.000 OA
ATOM      4  O   UNL     1     108.660 127.947 136.621  0.00  0.00    +0.000 OA
ATOM      5  O   UNL     1     108.430 130.462 135.154  0.00  0.00    +0.000 OA
ATOM      6  C   UNL     1     111.152 128.152 136.564  0.00  0.00    +0.000 A 
ATOM      7  C   UNL     1     111.510 128.799 136.197  0.00  0.00    +0.000 A 
ATOM      8  C   UNL     1     110.330 128.090 136.580  0.00  0.00    +0.000 A 
ATOM      9  C   UNL     1     109.865 128.674 136.229  0.00  0.00    +0.000 A 
ATOM     10  C   UNL     1     110.222 129.321 135.862  0.00  0.00    +0.000 A 
ATOM     11  C   UNL     1     109.009 128.598 136.251  0.00  0.00    +0.000 A 
ATOM     12  C   UNL     1     109.749 129.936 135.493  0.00  0.00    +0.000 A 
ATOM     13  C   UNL     1     108.520 129.203 135.888  0.00  0.00    +0.000 A 
ATOM     14  C   UNL     1     108.892 129.876 135.506  0.00  0.00    +0.000 A 
BRANCH   7  16
ATOM     15  O   UNL     1     114.800 129.050 136.133  0.00  0.00    +0.000 OA
ATOM     16  C   UNL     1     112.332 128.862 136.181  0.00  0.00    +0.000 A 
ATOM     17  C   UNL     1     112.721 129.340 136.730  0.00  0.00    +0.000 A 
ATOM     18  C   UNL     1     112.766 128.447 135.616  0.00  0.00    +0.000 A 
ATOM     19  C   UNL     1     113.542 129.402 136.714  0.00  0.00    +0.000 A 
ATOM     20  C   UNL     1     113.589 128.509 135.600  0.00  0.00    +0.000 A 
ATOM     21  C   UNL     1     113.977 128.987 136.149  0.00  0.00    +0.000 A 
BRANCH  19  22
ATOM     22  O   UNL     1     113.931 129.880 137.263  0.00  0.00    +0.000 OA
ATOM     23  C   UNL     1     113.628 130.625 137.449  0.00  0.00    +0.000 C 
ENDBRANCH  19  22
ENDBRANCH   7  16
ENDBRANCH   1   6
BRANCH   1  30
ATOM     24  O   UNL     1     111.345 127.953 138.264  0.00  0.00    +0.000 OA
ATOM     25  O   UNL     1     111.441 125.580 138.960  0.00  0.00    +0.000 OA
ATOM     26  O   UNL     1     111.138 126.755 140.076  0.00  0.00    +0.000 OA
ATOM     27  C   UNL     1     111.529 126.573 137.937  0.00  0.00    +0.000 C 
ATOM     28  C   UNL     1     111.409 126.371 138.728  0.00  0.00    +0.000 C 
ATOM     29  C   UNL     1     111.257 126.958 139.286  0.00  0.00    +0.000 C 
ATOM     30  C   UNL     1     111.497 127.364 137.705  0.00  0.00    +0.000 C 
ATOM     31  C   UNL     1     111.226 127.749 139.054  0.00  0.00    +0.000 C 
BRANCH  31  33
ATOM     32  O   UNL     1     111.639 128.921 139.759  0.00  0.00    +0.000 OA
ATOM     33  C   UNL     1     111.074 128.337 139.612  0.00  0.00    +0.000 C 
ENDBRANCH  31  33
BRANCH  27  34
ATOM     34  O   UNL     1     111.680 125.986 137.379  0.00  0.00    +0.000 OA
BRANCH  34  39
ATOM     35  O   UNL     1     113.046 125.935 137.796  0.00  0.00    +0.000 OA
ATOM     36  O   UNL     1     111.938 124.698 136.380  0.00  0.00    +0.000 OA
ATOM     37  O   UNL     1     113.433 124.003 136.299  0.00  0.00    +0.000 OA
ATOM     38  O   UNL     1     114.670 124.597 137.216  0.00  0.00    +0.000 OA
ATOM     39  C   UNL     1     112.428 125.639 137.338  0.00  0.00    +0.000 C 
ATOM     40  C   UNL     1     112.557 124.994 136.838  0.00  0.00    +0.000 C 
ATOM     41  C   UNL     1     113.304 124.647 136.798  0.00  0.00    +0.000 C 
ATOM     42  C   UNL     1     113.922 124.944 137.256  0.00  0.00    +0.000 C 
ATOM     43  C   UNL     1     113.794 125.588 137.755  0.00  0.00    +0.000 C 
ATOM     44  C   UNL     1     114.412 125.885 138.214  0.00  0.00    +0.000 C 
ENDBRANCH  34  39
ENDBRANCH  27  34
ENDBRANCH   1  30
TORSDOF 7
ENDMDL
MODEL 10
REMARK VINA RESULT:      -9.5      2.350      4.391
REMARK  Name = 11664505
REMARK  7 active torsions:
REMARK  status: ('A' for Active; 'I' for Inactive)
REMARK    1  A    between atoms: O_1  and  C_17
REMARK    2  A    between atoms: O_1  and  C_20
REMARK    3  A    between atoms: O_5  and  C_21
REMARK    4  A    between atoms: O_5  and  C_29
REMARK    5  A    between atoms: O_15  and  C_41
REMARK    6  A    between atoms: C_23  and  C_27
REMARK    7  A    between atoms: C_30  and  C_33
REMARK                            x       y       z     vdW  Elec       q    Type
REMARK                         _______ _______ _______ _____ _____    ______ ____
ROOT
ATOM      1  O   UNL     1     111.356 129.029 137.554  0.00  0.00    +0.000 OA
ENDROOT
BRANCH   1   6
ATOM      2  O   UNL     1     113.107 127.762 137.251  0.00  0.00    +0.000 OA
ATOM      3  O   UNL     1     110.730 127.544 137.907  0.00  0.00    +0.000 OA
ATOM      4  O   UNL     1     110.871 126.115 138.051  0.00  0.00    +0.000 OA
ATOM      5  O   UNL     1     113.464 124.884 137.520  0.00  0.00    +0.000 OA
ATOM      6  C   UNL     1     111.836 128.359 137.512  0.00  0.00    +0.000 A 
ATOM      7  C   UNL     1     112.628 128.432 137.293  0.00  0.00    +0.000 A 
ATOM      8  C   UNL     1     111.523 127.617 137.688  0.00  0.00    +0.000 A 
ATOM      9  C   UNL     1     112.002 126.947 137.646  0.00  0.00    +0.000 A 
ATOM     10  C   UNL     1     112.794 127.018 137.428  0.00  0.00    +0.000 A 
ATOM     11  C   UNL     1     111.664 126.178 137.833  0.00  0.00    +0.000 A 
ATOM     12  C   UNL     1     113.303 126.329 137.380  0.00  0.00    +0.000 A 
ATOM     13  C   UNL     1     112.158 125.477 137.791  0.00  0.00    +0.000 A 
ATOM     14  C   UNL     1     112.983 125.553 137.563  0.00  0.00    +0.000 A 
BRANCH   7  16
ATOM     15  O   UNL     1     113.881 131.402 136.586  0.00  0.00    +0.000 OA
ATOM     16  C   UNL     1     112.941 129.174 137.117  0.00  0.00    +0.000 A 
ATOM     17  C   UNL     1     113.191 129.672 137.725  0.00  0.00    +0.000 A 
ATOM     18  C   UNL     1     113.004 129.419 136.331  0.00  0.00    +0.000 A 
ATOM     19  C   UNL     1     113.504 130.414 137.548  0.00  0.00    +0.000 A 
ATOM     20  C   UNL     1     113.318 130.162 136.154  0.00  0.00    +0.000 A 
ATOM     21  C   UNL     1     113.567 130.659 136.763  0.00  0.00    +0.000 A 
BRANCH  19  22
ATOM     22  O   UNL     1     113.754 130.913 138.156  0.00  0.00    +0.000 OA
ATOM     23  C   UNL     1     114.190 130.607 138.787  0.00  0.00    +0.000 C 
ENDBRANCH  19  22
ENDBRANCH   7  16
ENDBRANCH   1   6
BRANCH   1  30
ATOM     24  O   UNL     1     110.613 128.741 136.368  0.00  0.00    +0.000 OA
ATOM     25  O   UNL     1     108.606 129.785 137.372  0.00  0.00    +0.000 OA
ATOM     26  O   UNL     1     108.533 129.149 135.852  0.00  0.00    +0.000 OA
ATOM     27  C   UNL     1     109.981 129.408 137.464  0.00  0.00    +0.000 C 
ATOM     28  C   UNL     1     109.275 129.437 137.037  0.00  0.00    +0.000 C 
ATOM     29  C   UNL     1     109.238 129.120 136.277  0.00  0.00    +0.000 C 
ATOM     30  C   UNL     1     110.650 129.060 137.129  0.00  0.00    +0.000 C 
ATOM     31  C   UNL     1     109.907 128.772 135.943  0.00  0.00    +0.000 C 
BRANCH  31  33
ATOM     32  O   UNL     1     110.423 128.683 134.613  0.00  0.00    +0.000 OA
ATOM     33  C   UNL     1     109.871 128.453 135.183  0.00  0.00    +0.000 C 
ENDBRANCH  31  33
BRANCH  27  34
ATOM     34  O   UNL     1     110.018 129.725 138.223  0.00  0.00    +0.000 OA
BRANCH  34  39
ATOM     35  O   UNL     1     110.149 131.037 137.671  0.00  0.00    +0.000 OA
ATOM     36  O   UNL     1     109.962 130.370 139.741  0.00  0.00    +0.000 OA
ATOM     37  O   UNL     1     110.065 132.004 139.948  0.00  0.00    +0.000 OA
ATOM     38  O   UNL     1     110.224 132.993 138.636  0.00  0.00    +0.000 OA
ATOM     39  C   UNL     1     110.070 130.542 138.327  0.00  0.00    +0.000 C 
ATOM     40  C   UNL     1     110.042 130.865 139.086  0.00  0.00    +0.000 C 
ATOM     41  C   UNL     1     110.093 131.682 139.189  0.00  0.00    +0.000 C 
ATOM     42  C   UNL     1     110.173 132.176 138.533  0.00  0.00    +0.000 C 
ATOM     43  C   UNL     1     110.201 131.854 137.775  0.00  0.00    +0.000 C 
ATOM     44  C   UNL     1     110.280 132.348 137.119  0.00  0.00    +0.000 C 
ENDBRANCH  34  39
ENDBRANCH  27  34
ENDBRANCH   1  30
TORSDOF 7
ENDMDL
