MODEL 1
REMARK VINA RESULT:      -9.3      0.000      0.000
REMARK  Name = 14135321
REMARK  2 active torsions:
REMARK  status: ('A' for Active; 'I' for Inactive)
REMARK    1  A    between atoms: O_4  and  C_18
REMARK    2  A    between atoms: C_8  and  C_10
REMARK                            x       y       z     vdW  Elec       q    Type
REMARK                         _______ _______ _______ _____ _____    ______ ____
ROOT
ATOM      1  O   UNL     1     104.521 123.626 138.221  0.00  0.00    +0.000 OA
ATOM      2  O   UNL     1     101.994 123.676 138.377  0.00  0.00    +0.000 OA
ATOM      3  O   UNL     1     101.924 123.232 137.005  0.00  0.00    +0.000 OA
ATOM      4  O   UNL     1     104.295 122.741 135.488  0.00  0.00    +0.000 OA
ATOM      5  C   UNL     1     104.149 123.865 138.958  0.00  0.00    +0.000 C 
ATOM      6  C   UNL     1     103.292 123.883 139.014  0.00  0.00    +0.000 C 
ATOM      7  C   UNL     1     103.208 123.426 137.603  0.00  0.00    +0.000 A 
ATOM      8  C   UNL     1     102.818 123.662 138.332  0.00  0.00    +0.000 C 
ATOM      9  C   UNL     1     104.031 123.409 137.550  0.00  0.00    +0.000 A 
ATOM     10  C   UNL     1     102.747 123.215 136.952  0.00  0.00    +0.000 A 
ATOM     11  C   UNL     1     104.393 123.181 136.844  0.00  0.00    +0.000 A 
ATOM     12  C   UNL     1     103.110 122.987 136.247  0.00  0.00    +0.000 A 
ATOM     13  C   UNL     1     103.933 122.970 136.193  0.00  0.00    +0.000 A 
ENDROOT
BRANCH   5  16
ATOM     14  O   UNL     1     104.511 122.742 140.112  0.00  0.00    +0.000 OA
ATOM     15  O   UNL     1     105.638 125.829 140.404  0.00  0.00    +0.000 OA
ATOM     16  C   UNL     1     104.612 124.076 139.608  0.00  0.00    +0.000 A 
ATOM     17  C   UNL     1     104.793 123.514 140.185  0.00  0.00    +0.000 A 
ATOM     18  C   UNL     1     104.894 124.848 139.681  0.00  0.00    +0.000 A 
ATOM     19  C   UNL     1     105.357 125.057 140.331  0.00  0.00    +0.000 A 
ATOM     20  C   UNL     1     105.255 123.724 140.834  0.00  0.00    +0.000 A 
ATOM     21  C   UNL     1     105.538 124.496 140.908  0.00  0.00    +0.000 A 
ENDBRANCH   5  16
BRANCH  12  22
ATOM     22  O   UNL     1     102.649 122.776 135.595  0.00  0.00    +0.000 OA
ATOM     23  C   UNL     1     102.665 123.239 134.913  0.00  0.00    +0.000 C 
ENDBRANCH  12  22
TORSDOF 2
ENDMDL
MODEL 2
REMARK VINA RESULT:      -8.7      8.085      9.581
REMARK  Name = 14135321
REMARK  2 active torsions:
REMARK  status: ('A' for Active; 'I' for Inactive)
REMARK    1  A    between atoms: O_4  and  C_18
REMARK    2  A    between atoms: C_8  and  C_10
REMARK                            x       y       z     vdW  Elec       q    Type
REMARK                         _______ _______ _______ _____ _____    ______ ____
ROOT
ATOM      1  O   UNL     1     105.500 124.288 147.254  0.00  0.00    +0.000 OA
ATOM      2  O   UNL     1     103.854 125.830 148.405  0.00  0.00    +0.000 OA
ATOM      3  O   UNL     1     102.813 125.327 147.542  0.00  0.00    +0.000 OA
ATOM      4  O   UNL     1     103.366 123.334 145.570  0.00  0.00    +0.000 OA
ATOM      5  C   UNL     1     105.774 124.799 147.889  0.00  0.00    +0.000 C 
ATOM      6  C   UNL     1     105.218 125.323 148.281  0.00  0.00    +0.000 C 
ATOM      7  C   UNL     1     104.139 124.812 147.398  0.00  0.00    +0.000 A 
ATOM      8  C   UNL     1     104.395 125.330 148.034  0.00  0.00    +0.000 C 
ATOM      9  C   UNL     1     104.673 124.308 147.021  0.00  0.00    +0.000 A 
ATOM     10  C   UNL     1     103.347 124.823 147.165  0.00  0.00    +0.000 A 
ATOM     11  C   UNL     1     104.415 123.816 146.412  0.00  0.00    +0.000 A 
ATOM     12  C   UNL     1     103.090 124.330 146.556  0.00  0.00    +0.000 A 
ATOM     13  C   UNL     1     103.624 123.826 146.179  0.00  0.00    +0.000 A 
ENDROOT
BRANCH   5  16
ATOM     14  O   UNL     1     106.216 124.028 149.279  0.00  0.00    +0.000 OA
ATOM     15  O   UNL     1     108.501 125.518 147.422  0.00  0.00    +0.000 OA
ATOM     16  C   UNL     1     106.566 124.786 148.119  0.00  0.00    +0.000 A 
ATOM     17  C   UNL     1     106.787 124.400 148.815  0.00  0.00    +0.000 A 
ATOM     18  C   UNL     1     107.137 125.159 147.655  0.00  0.00    +0.000 A 
ATOM     19  C   UNL     1     107.930 125.146 147.887  0.00  0.00    +0.000 A 
ATOM     20  C   UNL     1     107.578 124.387 149.045  0.00  0.00    +0.000 A 
ATOM     21  C   UNL     1     108.150 124.760 148.582  0.00  0.00    +0.000 A 
ENDBRANCH   5  16
BRANCH  12  22
ATOM     22  O   UNL     1     102.298 124.341 146.323  0.00  0.00    +0.000 OA
ATOM     23  C   UNL     1     101.783 123.753 146.587  0.00  0.00    +0.000 C 
ENDBRANCH  12  22
TORSDOF 2
ENDMDL
MODEL 3
REMARK VINA RESULT:      -8.5      7.827      9.505
REMARK  Name = 14135321
REMARK  2 active torsions:
REMARK  status: ('A' for Active; 'I' for Inactive)
REMARK    1  A    between atoms: O_4  and  C_18
REMARK    2  A    between atoms: C_8  and  C_10
REMARK                            x       y       z     vdW  Elec       q    Type
REMARK                         _______ _______ _______ _____ _____    ______ ____
ROOT
ATOM      1  O   UNL     1     104.834 124.211 147.184  0.00  0.00    +0.000 OA
ATOM      2  O   UNL     1     105.990 125.284 145.203  0.00  0.00    +0.000 OA
ATOM      3  O   UNL     1     107.116 125.585 146.053  0.00  0.00    +0.000 OA
ATOM      4  O   UNL     1     107.122 124.849 148.815  0.00  0.00    +0.000 OA
ATOM      5  C   UNL     1     104.435 124.228 146.422  0.00  0.00    +0.000 C 
ATOM      6  C   UNL     1     104.825 124.591 145.748  0.00  0.00    +0.000 C 
ATOM      7  C   UNL     1     105.990 124.906 146.614  0.00  0.00    +0.000 A 
ATOM      8  C   UNL     1     105.608 124.933 145.845  0.00  0.00    +0.000 C 
ATOM      9  C   UNL     1     105.616 124.558 147.261  0.00  0.00    +0.000 A 
ATOM     10  C   UNL     1     106.742 125.236 146.700  0.00  0.00    +0.000 A 
ATOM     11  C   UNL     1     105.993 124.539 147.994  0.00  0.00    +0.000 A 
ATOM     12  C   UNL     1     107.118 125.217 147.434  0.00  0.00    +0.000 A 
ATOM     13  C   UNL     1     106.744 124.868 148.081  0.00  0.00    +0.000 A 
ENDROOT
BRANCH   5  16
ATOM     14  O   UNL     1     104.261 122.739 145.732  0.00  0.00    +0.000 OA
ATOM     15  O   UNL     1     101.604 124.394 146.777  0.00  0.00    +0.000 OA
ATOM     16  C   UNL     1     103.684 123.897 146.338  0.00  0.00    +0.000 A 
ATOM     17  C   UNL     1     103.597 123.153 145.993  0.00  0.00    +0.000 A 
ATOM     18  C   UNL     1     103.020 124.311 146.600  0.00  0.00    +0.000 A 
ATOM     19  C   UNL     1     102.268 123.980 146.516  0.00  0.00    +0.000 A 
ATOM     20  C   UNL     1     102.847 122.823 145.910  0.00  0.00    +0.000 A 
ATOM     21  C   UNL     1     102.181 123.236 146.171  0.00  0.00    +0.000 A 
ENDBRANCH   5  16
BRANCH  12  22
ATOM     22  O   UNL     1     107.870 125.547 147.520  0.00  0.00    +0.000 OA
ATOM     23  C   UNL     1     108.502 125.075 147.763  0.00  0.00    +0.000 C 
ENDBRANCH  12  22
TORSDOF 2
ENDMDL
MODEL 4
REMARK VINA RESULT:      -8.4      6.312      8.960
REMARK  Name = 14135321
REMARK  2 active torsions:
REMARK  status: ('A' for Active; 'I' for Inactive)
REMARK    1  A    between atoms: O_4  and  C_18
REMARK    2  A    between atoms: C_8  and  C_10
REMARK                            x       y       z     vdW  Elec       q    Type
REMARK                         _______ _______ _______ _____ _____    ______ ____
ROOT
ATOM      1  O   UNL     1     106.566 124.999 146.449  0.00  0.00    +0.000 OA
ATOM      2  O   UNL     1     106.553 127.521 146.229  0.00  0.00    +0.000 OA
ATOM      3  O   UNL     1     106.039 127.379 144.888  0.00  0.00    +0.000 OA
ATOM      4  O   UNL     1     105.540 124.799 143.764  0.00  0.00    +0.000 OA
ATOM      5  C   UNL     1     106.831 125.481 147.110  0.00  0.00    +0.000 C 
ATOM      6  C   UNL     1     106.828 126.337 147.038  0.00  0.00    +0.000 C 
ATOM      7  C   UNL     1     106.299 126.202 145.657  0.00  0.00    +0.000 A 
ATOM      8  C   UNL     1     106.559 126.700 146.306  0.00  0.00    +0.000 C 
ATOM      9  C   UNL     1     106.302 125.380 145.726  0.00  0.00    +0.000 A 
ATOM     10  C   UNL     1     106.042 126.557 144.957  0.00  0.00    +0.000 A 
ATOM     11  C   UNL     1     106.049 124.912 145.094  0.00  0.00    +0.000 A 
ATOM     12  C   UNL     1     105.789 126.088 144.326  0.00  0.00    +0.000 A 
ATOM     13  C   UNL     1     105.793 125.266 144.395  0.00  0.00    +0.000 A 
ENDROOT
BRANCH   5  16
ATOM     14  O   UNL     1     108.445 125.301 147.401  0.00  0.00    +0.000 OA
ATOM     15  O   UNL     1     106.240 124.232 149.612  0.00  0.00    +0.000 OA
ATOM     16  C   UNL     1     107.087 125.124 147.808  0.00  0.00    +0.000 A 
ATOM     17  C   UNL     1     107.894 125.034 147.954  0.00  0.00    +0.000 A 
ATOM     18  C   UNL     1     106.535 124.856 148.360  0.00  0.00    +0.000 A 
ATOM     19  C   UNL     1     106.792 124.499 149.059  0.00  0.00    +0.000 A 
ATOM     20  C   UNL     1     108.150 124.677 148.651  0.00  0.00    +0.000 A 
ATOM     21  C   UNL     1     107.599 124.409 149.205  0.00  0.00    +0.000 A 
ENDBRANCH   5  16
BRANCH  12  22
ATOM     22  O   UNL     1     105.533 126.443 143.626  0.00  0.00    +0.000 OA
ATOM     23  C   UNL     1     106.045 126.501 142.982  0.00  0.00    +0.000 C 
ENDBRANCH  12  22
TORSDOF 2
ENDMDL
MODEL 5
REMARK VINA RESULT:      -8.4      7.143      8.114
REMARK  Name = 14135321
REMARK  2 active torsions:
REMARK  status: ('A' for Active; 'I' for Inactive)
REMARK    1  A    between atoms: O_4  and  C_18
REMARK    2  A    between atoms: C_8  and  C_10
REMARK                            x       y       z     vdW  Elec       q    Type
REMARK                         _______ _______ _______ _____ _____    ______ ____
ROOT
ATOM      1  O   UNL     1     111.295 125.929 136.910  0.00  0.00    +0.000 OA
ATOM      2  O   UNL     1     110.045 125.443 134.762  0.00  0.00    +0.000 OA
ATOM      3  O   UNL     1     109.069 126.441 135.132  0.00  0.00    +0.000 OA
ATOM      4  O   UNL     1     109.306 127.903 137.576  0.00  0.00    +0.000 OA
ATOM      5  C   UNL     1     111.600 125.332 136.371  0.00  0.00    +0.000 C 
ATOM      6  C   UNL     1     111.177 125.165 135.641  0.00  0.00    +0.000 C 
ATOM      7  C   UNL     1     110.168 126.190 136.012  0.00  0.00    +0.000 A 
ATOM      8  C   UNL     1     110.456 125.597 135.461  0.00  0.00    +0.000 C 
ATOM      9  C   UNL     1     110.573 126.350 136.712  0.00  0.00    +0.000 A 
ATOM     10  C   UNL     1     109.475 126.601 135.832  0.00  0.00    +0.000 A 
ATOM     11  C   UNL     1     110.285 126.921 137.233  0.00  0.00    +0.000 A 
ATOM     12  C   UNL     1     109.188 127.172 136.354  0.00  0.00    +0.000 A 
ATOM     13  C   UNL     1     109.593 127.332 137.054  0.00  0.00    +0.000 A 
ENDROOT
BRANCH   5  16
ATOM     14  O   UNL     1     111.519 123.879 137.148  0.00  0.00    +0.000 OA
ATOM     15  O   UNL     1     114.451 125.146 136.320  0.00  0.00    +0.000 OA
ATOM     16  C   UNL     1     112.292 124.923 136.552  0.00  0.00    +0.000 A 
ATOM     17  C   UNL     1     112.252 124.196 136.941  0.00  0.00    +0.000 A 
ATOM     18  C   UNL     1     113.025 125.240 136.345  0.00  0.00    +0.000 A 
ATOM     19  C   UNL     1     113.718 124.829 136.527  0.00  0.00    +0.000 A 
ATOM     20  C   UNL     1     112.944 123.786 137.122  0.00  0.00    +0.000 A 
ATOM     21  C   UNL     1     113.678 124.103 136.916  0.00  0.00    +0.000 A 
ENDBRANCH   5  16
BRANCH  12  22
ATOM     22  O   UNL     1     108.495 127.583 136.175  0.00  0.00    +0.000 OA
ATOM     23  C   UNL     1     108.538 128.336 135.841  0.00  0.00    +0.000 C 
ENDBRANCH  12  22
TORSDOF 2
ENDMDL
MODEL 6
REMARK VINA RESULT:      -8.1      1.172      4.670
REMARK  Name = 14135321
REMARK  2 active torsions:
REMARK  status: ('A' for Active; 'I' for Inactive)
REMARK    1  A    between atoms: O_4  and  C_18
REMARK    2  A    between atoms: C_8  and  C_10
REMARK                            x       y       z     vdW  Elec       q    Type
REMARK                         _______ _______ _______ _____ _____    ______ ____
ROOT
ATOM      1  O   UNL     1     104.404 124.672 139.455  0.00  0.00    +0.000 OA
ATOM      2  O   UNL     1     105.165 122.783 140.960  0.00  0.00    +0.000 OA
ATOM      3  O   UNL     1     105.898 123.741 141.752  0.00  0.00    +0.000 OA
ATOM      4  O   UNL     1     105.894 126.520 141.086  0.00  0.00    +0.000 OA
ATOM      5  C   UNL     1     104.146 123.869 139.287  0.00  0.00    +0.000 C 
ATOM      6  C   UNL     1     104.402 123.226 139.796  0.00  0.00    +0.000 C 
ATOM      7  C   UNL     1     105.161 124.203 140.618  0.00  0.00    +0.000 A 
ATOM      8  C   UNL     1     104.914 123.395 140.466  0.00  0.00    +0.000 C 
ATOM      9  C   UNL     1     104.915 124.820 140.129  0.00  0.00    +0.000 A 
ATOM     10  C   UNL     1     105.652 124.358 141.263  0.00  0.00    +0.000 A 
ATOM     11  C   UNL     1     105.159 125.593 140.286  0.00  0.00    +0.000 A 
ATOM     12  C   UNL     1     105.896 125.131 141.419  0.00  0.00    +0.000 A 
ATOM     13  C   UNL     1     105.650 125.748 140.930  0.00  0.00    +0.000 A 
ENDROOT
BRANCH   5  16
ATOM     14  O   UNL     1     104.803 123.453 137.831  0.00  0.00    +0.000 OA
ATOM     15  O   UNL     1     101.527 123.676 138.159  0.00  0.00    +0.000 OA
ATOM     16  C   UNL     1     103.655 123.717 138.641  0.00  0.00    +0.000 A 
ATOM     17  C   UNL     1     103.984 123.509 137.913  0.00  0.00    +0.000 A 
ATOM     18  C   UNL     1     102.836 123.772 138.723  0.00  0.00    +0.000 A 
ATOM     19  C   UNL     1     102.346 123.620 138.077  0.00  0.00    +0.000 A 
ATOM     20  C   UNL     1     103.494 123.357 137.268  0.00  0.00    +0.000 A 
ATOM     21  C   UNL     1     102.674 123.412 137.349  0.00  0.00    +0.000 A 
ENDBRANCH   5  16
BRANCH  12  22
ATOM     22  O   UNL     1     106.387 125.286 142.064  0.00  0.00    +0.000 OA
ATOM     23  C   UNL     1     106.068 125.595 142.759  0.00  0.00    +0.000 C 
ENDBRANCH  12  22
TORSDOF 2
ENDMDL
MODEL 7
REMARK VINA RESULT:      -8.1      7.725      9.048
REMARK  Name = 14135321
REMARK  2 active torsions:
REMARK  status: ('A' for Active; 'I' for Inactive)
REMARK    1  A    between atoms: O_4  and  C_18
REMARK    2  A    between atoms: C_8  and  C_10
REMARK                            x       y       z     vdW  Elec       q    Type
REMARK                         _______ _______ _______ _____ _____    ______ ____
ROOT
ATOM      1  O   UNL     1     111.682 126.184 136.194  0.00  0.00    +0.000 OA
ATOM      2  O   UNL     1     111.765 123.680 136.558  0.00  0.00    +0.000 OA
ATOM      3  O   UNL     1     113.192 123.778 136.751  0.00  0.00    +0.000 OA
ATOM      4  O   UNL     1     114.534 126.297 136.591  0.00  0.00    +0.000 OA
ATOM      5  C   UNL     1     110.955 125.728 136.153  0.00  0.00    +0.000 C 
ATOM      6  C   UNL     1     110.980 124.878 136.276  0.00  0.00    +0.000 C 
ATOM      7  C   UNL     1     112.449 124.968 136.476  0.00  0.00    +0.000 A 
ATOM      8  C   UNL     1     111.732 124.495 136.439  0.00  0.00    +0.000 C 
ATOM      9  C   UNL     1     112.424 125.784 136.357  0.00  0.00    +0.000 A 
ATOM     10  C   UNL     1     113.168 124.594 136.632  0.00  0.00    +0.000 A 
ATOM     11  C   UNL     1     113.120 126.226 136.396  0.00  0.00    +0.000 A 
ATOM     12  C   UNL     1     113.863 125.038 136.671  0.00  0.00    +0.000 A 
ATOM     13  C   UNL     1     113.838 125.854 136.552  0.00  0.00    +0.000 A 
ENDROOT
BRANCH   5  16
ATOM     14  O   UNL     1     110.365 125.771 134.612  0.00  0.00    +0.000 OA
ATOM     15  O   UNL     1     108.673 127.187 137.066  0.00  0.00    +0.000 OA
ATOM     16  C   UNL     1     110.237 126.103 135.996  0.00  0.00    +0.000 A 
ATOM     17  C   UNL     1     109.942 126.125 135.226  0.00  0.00    +0.000 A 
ATOM     18  C   UNL     1     109.814 126.457 136.610  0.00  0.00    +0.000 A 
ATOM     19  C   UNL     1     109.096 126.833 136.452  0.00  0.00    +0.000 A 
ATOM     20  C   UNL     1     109.225 126.500 135.069  0.00  0.00    +0.000 A 
ATOM     21  C   UNL     1     108.801 126.854 135.682  0.00  0.00    +0.000 A 
ENDBRANCH   5  16
BRANCH  12  22
ATOM     22  O   UNL     1     114.582 124.664 136.827  0.00  0.00    +0.000 OA
ATOM     23  C   UNL     1     114.900 124.687 137.588  0.00  0.00    +0.000 C 
ENDBRANCH  12  22
TORSDOF 2
ENDMDL
MODEL 8
REMARK VINA RESULT:      -8.0      6.929      7.953
REMARK  Name = 14135321
REMARK  2 active torsions:
REMARK  status: ('A' for Active; 'I' for Inactive)
REMARK    1  A    between atoms: O_4  and  C_18
REMARK    2  A    between atoms: C_8  and  C_10
REMARK                            x       y       z     vdW  Elec       q    Type
REMARK                         _______ _______ _______ _____ _____    ______ ____
ROOT
ATOM      1  O   UNL     1     110.565 127.311 135.889  0.00  0.00    +0.000 OA
ATOM      2  O   UNL     1     108.047 127.244 136.144  0.00  0.00    +0.000 OA
ATOM      3  O   UNL     1     107.994 128.633 135.753  0.00  0.00    +0.000 OA
ATOM      4  O   UNL     1     110.375 130.080 135.118  0.00  0.00    +0.000 OA
ATOM      5  C   UNL     1     110.186 126.579 136.133  0.00  0.00    +0.000 C 
ATOM      6  C   UNL     1     109.332 126.554 136.221  0.00  0.00    +0.000 C 
ATOM      7  C   UNL     1     109.265 127.982 135.820  0.00  0.00    +0.000 A 
ATOM      8  C   UNL     1     108.868 127.260 136.063  0.00  0.00    +0.000 C 
ATOM      9  C   UNL     1     110.085 128.007 135.736  0.00  0.00    +0.000 A 
ATOM     10  C   UNL     1     108.814 128.657 135.669  0.00  0.00    +0.000 A 
ATOM     11  C   UNL     1     110.455 128.706 135.502  0.00  0.00    +0.000 A 
ATOM     12  C   UNL     1     109.185 129.356 135.435  0.00  0.00    +0.000 A 
ATOM     13  C   UNL     1     110.005 129.381 135.352  0.00  0.00    +0.000 A 
ENDROOT
BRANCH   5  16
ATOM     14  O   UNL     1     110.517 125.520 134.912  0.00  0.00    +0.000 OA
ATOM     15  O   UNL     1     111.666 124.945 137.952  0.00  0.00    +0.000 OA
ATOM     16  C   UNL     1     110.639 125.906 136.283  0.00  0.00    +0.000 A 
ATOM     17  C   UNL     1     110.804 125.376 135.672  0.00  0.00    +0.000 A 
ATOM     18  C   UNL     1     110.926 125.762 137.043  0.00  0.00    +0.000 A 
ATOM     19  C   UNL     1     111.379 125.088 137.192  0.00  0.00    +0.000 A 
ATOM     20  C   UNL     1     111.256 124.704 135.821  0.00  0.00    +0.000 A 
ATOM     21  C   UNL     1     111.544 124.559 136.581  0.00  0.00    +0.000 A 
ENDBRANCH   5  16
BRANCH  12  22
ATOM     22  O   UNL     1     108.734 130.031 135.285  0.00  0.00    +0.000 OA
ATOM     23  C   UNL     1     108.660 130.614 135.864  0.00  0.00    +0.000 C 
ENDBRANCH  12  22
TORSDOF 2
ENDMDL
MODEL 9
REMARK VINA RESULT:      -8.0      8.012      9.299
REMARK  Name = 14135321
REMARK  2 active torsions:
REMARK  status: ('A' for Active; 'I' for Inactive)
REMARK    1  A    between atoms: O_4  and  C_18
REMARK    2  A    between atoms: C_8  and  C_10
REMARK                            x       y       z     vdW  Elec       q    Type
REMARK                         _______ _______ _______ _____ _____    ______ ____
ROOT
ATOM      1  O   UNL     1     103.923 124.707 147.745  0.00  0.00    +0.000 OA
ATOM      2  O   UNL     1     103.897 123.757 145.398  0.00  0.00    +0.000 OA
ATOM      3  O   UNL     1     102.469 123.580 145.510  0.00  0.00    +0.000 OA
ATOM      4  O   UNL     1     101.072 124.321 147.891  0.00  0.00    +0.000 OA
ATOM      5  C   UNL     1     104.660 124.646 147.307  0.00  0.00    +0.000 C 
ATOM      6  C   UNL     1     104.654 124.324 146.510  0.00  0.00    +0.000 C 
ATOM      7  C   UNL     1     103.185 124.137 146.615  0.00  0.00    +0.000 A 
ATOM      8  C   UNL     1     103.911 124.068 146.162  0.00  0.00    +0.000 C 
ATOM      9  C   UNL     1     103.191 124.446 147.380  0.00  0.00    +0.000 A 
ATOM     10  C   UNL     1     102.475 123.889 146.275  0.00  0.00    +0.000 A 
ATOM     11  C   UNL     1     102.486 124.507 147.805  0.00  0.00    +0.000 A 
ATOM     12  C   UNL     1     101.771 123.951 146.701  0.00  0.00    +0.000 A 
ATOM     13  C   UNL     1     101.776 124.260 147.466  0.00  0.00    +0.000 A 
ENDROOT
BRANCH   5  16
ATOM     14  O   UNL     1     105.197 126.187 147.064  0.00  0.00    +0.000 OA
ATOM     15  O   UNL     1     106.958 124.099 148.917  0.00  0.00    +0.000 OA
ATOM     16  C   UNL     1     105.369 124.894 147.649  0.00  0.00    +0.000 A 
ATOM     17  C   UNL     1     105.637 125.665 147.527  0.00  0.00    +0.000 A 
ATOM     18  C   UNL     1     105.809 124.372 148.112  0.00  0.00    +0.000 A 
ATOM     19  C   UNL     1     106.518 124.621 148.453  0.00  0.00    +0.000 A 
ATOM     20  C   UNL     1     106.345 125.914 147.869  0.00  0.00    +0.000 A 
ATOM     21  C   UNL     1     106.786 125.392 148.332  0.00  0.00    +0.000 A 
ENDBRANCH   5  16
BRANCH  12  22
ATOM     22  O   UNL     1     101.060 123.703 146.361  0.00  0.00    +0.000 OA
ATOM     23  C   UNL     1     100.746 122.965 146.555  0.00  0.00    +0.000 C 
ENDBRANCH  12  22
TORSDOF 2
ENDMDL
MODEL 10
REMARK VINA RESULT:      -7.9      9.422     10.924
REMARK  Name = 14135321
REMARK  2 active torsions:
REMARK  status: ('A' for Active; 'I' for Inactive)
REMARK    1  A    between atoms: O_4  and  C_18
REMARK    2  A    between atoms: C_8  and  C_10
REMARK                            x       y       z     vdW  Elec       q    Type
REMARK                         _______ _______ _______ _____ _____    ______ ____
ROOT
ATOM      1  O   UNL     1     113.778 127.234 136.245  0.00  0.00    +0.000 OA
ATOM      2  O   UNL     1     112.462 128.372 138.085  0.00  0.00    +0.000 OA
ATOM      3  O   UNL     1     112.733 129.644 137.460  0.00  0.00    +0.000 OA
ATOM      4  O   UNL     1     114.275 129.813 135.060  0.00  0.00    +0.000 OA
ATOM      5  C   UNL     1     113.425 126.757 136.867  0.00  0.00    +0.000 C 
ATOM      6  C   UNL     1     112.978 127.140 137.492  0.00  0.00    +0.000 C 
ATOM      7  C   UNL     1     113.250 128.455 136.858  0.00  0.00    +0.000 A 
ATOM      8  C   UNL     1     112.890 127.996 137.488  0.00  0.00    +0.000 C 
ATOM      9  C   UNL     1     113.680 128.087 136.257  0.00  0.00    +0.000 A 
ATOM     10  C   UNL     1     113.163 129.276 136.859  0.00  0.00    +0.000 A 
ATOM     11  C   UNL     1     114.021 128.540 135.658  0.00  0.00    +0.000 A 
ATOM     12  C   UNL     1     113.504 129.728 136.260  0.00  0.00    +0.000 A 
ATOM     13  C   UNL     1     113.934 129.360 135.659  0.00  0.00    +0.000 A 
ENDROOT
BRANCH   5  16
ATOM     14  O   UNL     1     112.271 125.805 136.170  0.00  0.00    +0.000 OA
ATOM     15  O   UNL     1     114.935 124.428 137.548  0.00  0.00    +0.000 OA
ATOM     16  C   UNL     1     113.514 125.937 136.863  0.00  0.00    +0.000 A 
ATOM     17  C   UNL     1     112.937 125.461 136.515  0.00  0.00    +0.000 A 
ATOM     18  C   UNL     1     114.180 125.593 137.208  0.00  0.00    +0.000 A 
ATOM     19  C   UNL     1     114.269 124.772 137.204  0.00  0.00    +0.000 A 
ATOM     20  C   UNL     1     113.026 124.642 136.511  0.00  0.00    +0.000 A 
ATOM     21  C   UNL     1     113.692 124.296 136.855  0.00  0.00    +0.000 A 
ENDBRANCH   5  16
BRANCH  12  22
ATOM     22  O   UNL     1     113.416 130.549 136.261  0.00  0.00    +0.000 OA
ATOM     23  C   UNL     1     114.026 131.028 136.543  0.00  0.00    +0.000 C 
ENDBRANCH  12  22
TORSDOF 2
ENDMDL
