MODEL 1
REMARK VINA RESULT:     -11.2      0.000      0.000
REMARK  Name = 44259543
REMARK  12 active torsions:
REMARK  status: ('A' for Active; 'I' for Inactive)
REMARK    1  A    between atoms: O_1  and  C_20
REMARK    2  A    between atoms: O_1  and  C_25
REMARK    3  A    between atoms: O_4  and  C_27
REMARK    4  A    between atoms: O_4  and  C_33
REMARK    5  A    between atoms: O_8  and  C_24
REMARK    6  A    between atoms: O_8  and  C_37
REMARK    7  A    between atoms: O_18  and  C_45
REMARK    8  A    between atoms: C_22  and  C_27
REMARK    9  A    between atoms: C_30  and  C_35
REMARK   10  A    between atoms: C_38  and  C_42
REMARK   11  A    between atoms: C_43  and  C_49
REMARK   12  A    between atoms: C_49  and  C_52
REMARK                            x       y       z     vdW  Elec       q    Type
REMARK                         _______ _______ _______ _____ _____    ______ ____
ROOT
ATOM      1  O   UNL     1     110.561 128.403 137.023  0.00  0.00    +0.000 OA
ATOM      2  O   UNL     1     108.748 129.528 137.479  0.00  0.00    +0.000 OA
ATOM      3  O   UNL     1     110.299 129.371 135.084  0.00  0.00    +0.000 OA
ATOM      4  C   UNL     1     109.523 129.450 136.282  0.00  0.00    +0.000 C 
ATOM      5  C   UNL     1     109.394 129.228 137.066  0.00  0.00    +0.000 C 
ATOM      6  C   UNL     1     109.913 128.704 137.436  0.00  0.00    +0.000 C 
ATOM      7  C   UNL     1     110.170 129.149 135.868  0.00  0.00    +0.000 C 
ATOM      8  C   UNL     1     110.689 128.626 136.239  0.00  0.00    +0.000 C 
ENDROOT
BRANCH   4   9
ATOM      9  O   UNL     1     109.004 129.973 135.911  0.00  0.00    +0.000 OA
BRANCH   9  14
ATOM     10  O   UNL     1     109.787 131.083 136.356  0.00  0.00    +0.000 OA
ATOM     11  O   UNL     1     108.124 130.981 134.946  0.00  0.00    +0.000 OA
ATOM     12  O   UNL     1     108.466 132.595 134.909  0.00  0.00    +0.000 OA
ATOM     13  O   UNL     1     109.689 133.201 135.837  0.00  0.00    +0.000 OA
ATOM     14  C   UNL     1     109.176 130.781 135.892  0.00  0.00    +0.000 C 
ATOM     15  C   UNL     1     108.735 131.285 135.410  0.00  0.00    +0.000 C 
ATOM     16  C   UNL     1     108.906 132.091 135.392  0.00  0.00    +0.000 C 
ATOM     17  C   UNL     1     109.518 132.394 135.856  0.00  0.00    +0.000 C 
ATOM     18  C   UNL     1     109.958 131.890 136.338  0.00  0.00    +0.000 C 
ATOM     19  C   UNL     1     110.569 132.192 136.802  0.00  0.00    +0.000 C 
ENDBRANCH   9  14
ENDBRANCH   4   9
BRANCH   8  20
ATOM     20  O   UNL     1     111.337 128.325 135.825  0.00  0.00    +0.000 OA
BRANCH  20  24
ATOM     21  O   UNL     1     112.694 126.749 136.488  0.00  0.00    +0.000 OA
ATOM     22  O   UNL     1     110.396 126.988 135.602  0.00  0.00    +0.000 OA
ATOM     23  O   UNL     1     110.193 125.562 135.665  0.00  0.00    +0.000 OA
ATOM     24  C   UNL     1     111.633 127.577 136.009  0.00  0.00    +0.000 A 
ATOM     25  C   UNL     1     112.399 127.497 136.304  0.00  0.00    +0.000 A 
ATOM     26  C   UNL     1     111.162 126.908 135.897  0.00  0.00    +0.000 A 
ATOM     27  C   UNL     1     111.457 126.161 136.081  0.00  0.00    +0.000 A 
ATOM     28  C   UNL     1     112.224 126.081 136.377  0.00  0.00    +0.000 A 
ATOM     29  C   UNL     1     112.543 125.307 136.572  0.00  0.00    +0.000 A 
ATOM     30  C   UNL     1     110.957 125.472 135.961  0.00  0.00    +0.000 A 
ATOM     31  C   UNL     1     112.058 124.608 136.458  0.00  0.00    +0.000 A 
ATOM     32  C   UNL     1     111.260 124.690 136.151  0.00  0.00    +0.000 A 
BRANCH  25  34
ATOM     33  O   UNL     1     114.281 130.170 136.751  0.00  0.00    +0.000 OA
ATOM     34  C   UNL     1     112.869 128.165 136.416  0.00  0.00    +0.000 A 
ATOM     35  C   UNL     1     113.002 128.454 137.177  0.00  0.00    +0.000 A 
ATOM     36  C   UNL     1     113.207 128.545 135.766  0.00  0.00    +0.000 A 
ATOM     37  C   UNL     1     113.473 129.122 137.289  0.00  0.00    +0.000 A 
ATOM     38  C   UNL     1     113.678 129.213 135.878  0.00  0.00    +0.000 A 
ATOM     39  C   UNL     1     113.810 129.502 136.639  0.00  0.00    +0.000 A 
ENDBRANCH  25  34
BRANCH  31  40
ATOM     40  O   UNL     1     112.356 123.861 136.643  0.00  0.00    +0.000 OA
ATOM     41  C   UNL     1     111.840 123.248 136.841  0.00  0.00    +0.000 C 
ENDBRANCH  31  40
BRANCH  29  42
ATOM     42  C   UNL     1     113.310 125.237 136.867  0.00  0.00    +0.000 C 
BRANCH  42  43
ATOM     43  C   UNL     1     113.938 125.087 136.353  0.00  0.00    +0.000 C 
ATOM     44  C   UNL     1     114.706 125.029 136.647  0.00  0.00    +0.000 C 
ATOM     45  C   UNL     1     115.333 124.878 136.132  0.00  0.00    +0.000 C 
ATOM     46  C   UNL     1     114.847 125.121 137.454  0.00  0.00    +0.000 C 
ENDBRANCH  42  43
ENDBRANCH  29  42
ENDBRANCH  20  24
ENDBRANCH   8  20
BRANCH   6  47
ATOM     47  C   UNL     1     109.786 128.481 138.220  0.00  0.00    +0.000 C 
BRANCH  47  48
ATOM     48  O   UNL     1     109.641 127.691 138.406  0.00  0.00    +0.000 OA
BRANCH  48  54
ATOM     49  O   UNL     1     109.903 127.902 139.838  0.00  0.00    +0.000 OA
ATOM     50  O   UNL     1     109.538 125.848 140.291  0.00  0.00    +0.000 OA
ATOM     51  O   UNL     1     109.376 126.014 138.992  0.00  0.00    +0.000 OA
ATOM     52  C   UNL     1     109.706 126.656 140.273  0.00  0.00    +0.000 C 
ATOM     53  C   UNL     1     109.584 126.664 139.457  0.00  0.00    +0.000 C 
ATOM     54  C   UNL     1     109.706 127.433 139.188  0.00  0.00    +0.000 C 
ATOM     55  C   UNL     1     109.904 127.421 140.508  0.00  0.00    +0.000 C 
BRANCH  52  57
ATOM     56  O   UNL     1     110.037 125.635 141.215  0.00  0.00    +0.000 OA
ATOM     57  C   UNL     1     109.771 126.399 141.054  0.00  0.00    +0.000 C 
ENDBRANCH  52  57
ENDBRANCH  48  54
ENDBRANCH  47  48
ENDBRANCH   6  47
TORSDOF 12
ENDMDL
MODEL 2
REMARK VINA RESULT:     -10.9      1.419      1.800
REMARK  Name = 44259543
REMARK  12 active torsions:
REMARK  status: ('A' for Active; 'I' for Inactive)
REMARK    1  A    between atoms: O_1  and  C_20
REMARK    2  A    between atoms: O_1  and  C_25
REMARK    3  A    between atoms: O_4  and  C_27
REMARK    4  A    between atoms: O_4  and  C_33
REMARK    5  A    between atoms: O_8  and  C_24
REMARK    6  A    between atoms: O_8  and  C_37
REMARK    7  A    between atoms: O_18  and  C_45
REMARK    8  A    between atoms: C_22  and  C_27
REMARK    9  A    between atoms: C_30  and  C_35
REMARK   10  A    between atoms: C_38  and  C_42
REMARK   11  A    between atoms: C_43  and  C_49
REMARK   12  A    between atoms: C_49  and  C_52
REMARK                            x       y       z     vdW  Elec       q    Type
REMARK                         _______ _______ _______ _____ _____    ______ ____
ROOT
ATOM      1  O   UNL     1     110.851 128.762 137.273  0.00  0.00    +0.000 OA
ATOM      2  O   UNL     1     109.139 129.778 138.168  0.00  0.00    +0.000 OA
ATOM      3  O   UNL     1     109.719 129.136 135.444  0.00  0.00    +0.000 OA
ATOM      4  C   UNL     1     109.429 129.457 136.806  0.00  0.00    +0.000 C 
ATOM      5  C   UNL     1     109.639 129.444 137.604  0.00  0.00    +0.000 C 
ATOM      6  C   UNL     1     110.349 129.096 137.837  0.00  0.00    +0.000 C 
ATOM      7  C   UNL     1     109.929 129.123 136.242  0.00  0.00    +0.000 C 
ATOM      8  C   UNL     1     110.640 128.775 136.475  0.00  0.00    +0.000 C 
ENDROOT
BRANCH   4   9
ATOM      9  O   UNL     1     108.718 129.805 136.572  0.00  0.00    +0.000 OA
BRANCH   9  14
ATOM     10  O   UNL     1     109.363 131.069 136.409  0.00  0.00    +0.000 OA
ATOM     11  O   UNL     1     107.402 130.371 135.754  0.00  0.00    +0.000 OA
ATOM     12  O   UNL     1     107.389 131.918 135.182  0.00  0.00    +0.000 OA
ATOM     13  O   UNL     1     108.693 132.900 135.428  0.00  0.00    +0.000 OA
ATOM     14  C   UNL     1     108.712 130.579 136.286  0.00  0.00    +0.000 C 
ATOM     15  C   UNL     1     108.053 130.862 135.877  0.00  0.00    +0.000 C 
ATOM     16  C   UNL     1     108.047 131.635 135.591  0.00  0.00    +0.000 C 
ATOM     17  C   UNL     1     108.699 132.127 135.714  0.00  0.00    +0.000 C 
ATOM     18  C   UNL     1     109.357 131.843 136.123  0.00  0.00    +0.000 C 
ATOM     19  C   UNL     1     110.009 132.334 136.246  0.00  0.00    +0.000 C 
ENDBRANCH   9  14
ENDBRANCH   4   9
BRANCH   8  20
ATOM     20  O   UNL     1     111.141 128.441 135.911  0.00  0.00    +0.000 OA
BRANCH  20  24
ATOM     21  O   UNL     1     112.611 126.846 136.146  0.00  0.00    +0.000 OA
ATOM     22  O   UNL     1     110.157 127.151 136.213  0.00  0.00    +0.000 OA
ATOM     23  O   UNL     1     109.961 125.751 136.496  0.00  0.00    +0.000 OA
ATOM     24  C   UNL     1     111.467 127.694 136.040  0.00  0.00    +0.000 A 
ATOM     25  C   UNL     1     112.285 127.592 136.017  0.00  0.00    +0.000 A 
ATOM     26  C   UNL     1     110.974 127.050 136.191  0.00  0.00    +0.000 A 
ATOM     27  C   UNL     1     111.301 126.303 136.319  0.00  0.00    +0.000 A 
ATOM     28  C   UNL     1     112.120 126.201 136.297  0.00  0.00    +0.000 A 
ATOM     29  C   UNL     1     112.471 125.428 136.429  0.00  0.00    +0.000 A 
ATOM     30  C   UNL     1     110.777 125.639 136.476  0.00  0.00    +0.000 A 
ATOM     31  C   UNL     1     111.964 124.753 136.587  0.00  0.00    +0.000 A 
ATOM     32  C   UNL     1     111.112 124.859 136.611  0.00  0.00    +0.000 A 
BRANCH  25  34
ATOM     33  O   UNL     1     114.254 130.171 135.413  0.00  0.00    +0.000 OA
ATOM     34  C   UNL     1     112.777 128.236 135.866  0.00  0.00    +0.000 A 
ATOM     35  C   UNL     1     113.229 128.561 136.474  0.00  0.00    +0.000 A 
ATOM     36  C   UNL     1     112.817 128.557 135.107  0.00  0.00    +0.000 A 
ATOM     37  C   UNL     1     113.722 129.206 136.323  0.00  0.00    +0.000 A 
ATOM     38  C   UNL     1     113.309 129.201 134.955  0.00  0.00    +0.000 A 
ATOM     39  C   UNL     1     113.761 129.525 135.564  0.00  0.00    +0.000 A 
ENDBRANCH  25  34
BRANCH  31  40
ATOM     40  O   UNL     1     112.293 124.007 136.716  0.00  0.00    +0.000 OA
ATOM     41  C   UNL     1     111.805 123.345 136.769  0.00  0.00    +0.000 C 
ENDBRANCH  31  40
BRANCH  29  42
ATOM     42  C   UNL     1     113.291 125.335 136.405  0.00  0.00    +0.000 C 
BRANCH  42  43
ATOM     43  C   UNL     1     113.713 125.212 137.103  0.00  0.00    +0.000 C 
ATOM     44  C   UNL     1     114.535 125.150 137.082  0.00  0.00    +0.000 C 
ATOM     45  C   UNL     1     114.957 125.026 137.780  0.00  0.00    +0.000 C 
ATOM     46  C   UNL     1     114.935 125.213 136.364  0.00  0.00    +0.000 C 
ENDBRANCH  42  43
ENDBRANCH  29  42
ENDBRANCH  20  24
ENDBRANCH   8  20
BRANCH   6  47
ATOM     47  C   UNL     1     110.560 129.083 138.635  0.00  0.00    +0.000 C 
BRANCH  47  48
ATOM     48  O   UNL     1     111.241 129.473 138.889  0.00  0.00    +0.000 OA
BRANCH  48  54
ATOM     49  O   UNL     1     111.271 128.792 140.191  0.00  0.00    +0.000 OA
ATOM     50  O   UNL     1     112.645 130.215 140.995  0.00  0.00    +0.000 OA
ATOM     51  O   UNL     1     112.387 130.556 139.746  0.00  0.00    +0.000 OA
ATOM     52  C   UNL     1     112.123 129.597 140.829  0.00  0.00    +0.000 C 
ATOM     53  C   UNL     1     112.023 129.887 140.063  0.00  0.00    +0.000 C 
ATOM     54  C   UNL     1     111.497 129.389 139.669  0.00  0.00    +0.000 C 
ATOM     55  C   UNL     1     111.658 128.921 140.908  0.00  0.00    +0.000 C 
BRANCH  52  57
ATOM     56  O   UNL     1     113.039 129.933 141.873  0.00  0.00    +0.000 OA
ATOM     57  C   UNL     1     112.379 129.514 141.609  0.00  0.00    +0.000 C 
ENDBRANCH  52  57
ENDBRANCH  48  54
ENDBRANCH  47  48
ENDBRANCH   6  47
TORSDOF 12
ENDMDL
MODEL 3
REMARK VINA RESULT:     -10.4      2.553      4.837
REMARK  Name = 44259543
REMARK  12 active torsions:
REMARK  status: ('A' for Active; 'I' for Inactive)
REMARK    1  A    between atoms: O_1  and  C_20
REMARK    2  A    between atoms: O_1  and  C_25
REMARK    3  A    between atoms: O_4  and  C_27
REMARK    4  A    between atoms: O_4  and  C_33
REMARK    5  A    between atoms: O_8  and  C_24
REMARK    6  A    between atoms: O_8  and  C_37
REMARK    7  A    between atoms: O_18  and  C_45
REMARK    8  A    between atoms: C_22  and  C_27
REMARK    9  A    between atoms: C_30  and  C_35
REMARK   10  A    between atoms: C_38  and  C_42
REMARK   11  A    between atoms: C_43  and  C_49
REMARK   12  A    between atoms: C_49  and  C_52
REMARK                            x       y       z     vdW  Elec       q    Type
REMARK                         _______ _______ _______ _____ _____    ______ ____
ROOT
ATOM      1  O   UNL     1     111.613 129.098 138.791  0.00  0.00    +0.000 OA
ATOM      2  O   UNL     1     111.353 131.237 139.142  0.00  0.00    +0.000 OA
ATOM      3  O   UNL     1     110.492 128.974 140.660  0.00  0.00    +0.000 OA
ATOM      4  C   UNL     1     110.922 130.106 139.901  0.00  0.00    +0.000 C 
ATOM      5  C   UNL     1     111.310 130.420 139.244  0.00  0.00    +0.000 C 
ATOM      6  C   UNL     1     111.656 129.917 138.689  0.00  0.00    +0.000 C 
ATOM      7  C   UNL     1     110.880 129.289 140.003  0.00  0.00    +0.000 C 
ATOM      8  C   UNL     1     111.225 128.785 139.448  0.00  0.00    +0.000 C 
ENDROOT
BRANCH   4   9
ATOM      9  O   UNL     1     110.577 130.609 140.455  0.00  0.00    +0.000 OA
BRANCH   9  14
ATOM     10  O   UNL     1     111.793 130.651 141.204  0.00  0.00    +0.000 OA
ATOM     11  O   UNL     1     109.776 131.307 141.718  0.00  0.00    +0.000 OA
ATOM     12  O   UNL     1     110.592 131.698 143.098  0.00  0.00    +0.000 OA
ATOM     13  O   UNL     1     112.209 131.391 143.216  0.00  0.00    +0.000 OA
ATOM     14  C   UNL     1     110.985 130.805 141.146  0.00  0.00    +0.000 C 
ATOM     15  C   UNL     1     110.585 131.154 141.777  0.00  0.00    +0.000 C 
ATOM     16  C   UNL     1     110.992 131.349 142.467  0.00  0.00    +0.000 C 
ATOM     17  C   UNL     1     111.801 131.195 142.526  0.00  0.00    +0.000 C 
ATOM     18  C   UNL     1     112.202 130.847 141.895  0.00  0.00    +0.000 C 
ATOM     19  C   UNL     1     113.010 130.693 141.953  0.00  0.00    +0.000 C 
ENDBRANCH   9  14
ENDBRANCH   4   9
BRANCH   8  20
ATOM     20  O   UNL     1     111.182 127.967 139.550  0.00  0.00    +0.000 OA
BRANCH  20  24
ATOM     21  O   UNL     1     111.767 126.430 138.116  0.00  0.00    +0.000 OA
ATOM     22  O   UNL     1     109.936 128.055 138.473  0.00  0.00    +0.000 OA
ATOM     23  O   UNL     1     109.272 127.616 137.270  0.00  0.00    +0.000 OA
ATOM     24  C   UNL     1     111.170 127.469 138.893  0.00  0.00    +0.000 A 
ATOM     25  C   UNL     1     111.780 126.928 138.774  0.00  0.00    +0.000 A 
ATOM     26  C   UNL     1     110.546 127.514 138.354  0.00  0.00    +0.000 A 
ATOM     27  C   UNL     1     110.533 127.016 137.697  0.00  0.00    +0.000 A 
ATOM     28  C   UNL     1     111.144 126.473 137.577  0.00  0.00    +0.000 A 
ATOM     29  C   UNL     1     111.142 125.950 136.896  0.00  0.00    +0.000 A 
ATOM     30  C   UNL     1     109.878 127.071 137.143  0.00  0.00    +0.000 A 
ATOM     31  C   UNL     1     110.496 125.991 136.332  0.00  0.00    +0.000 A 
ATOM     32  C   UNL     1     109.860 126.555 136.455  0.00  0.00    +0.000 A 
BRANCH  25  34
ATOM     33  O   UNL     1     114.273 126.751 140.929  0.00  0.00    +0.000 OA
ATOM     34  C   UNL     1     112.403 126.884 139.312  0.00  0.00    +0.000 A 
ATOM     35  C   UNL     1     112.272 126.588 140.071  0.00  0.00    +0.000 A 
ATOM     36  C   UNL     1     113.157 127.135 139.092  0.00  0.00    +0.000 A 
ATOM     37  C   UNL     1     112.896 126.543 140.610  0.00  0.00    +0.000 A 
ATOM     38  C   UNL     1     113.780 127.091 139.630  0.00  0.00    +0.000 A 
ATOM     39  C   UNL     1     113.649 126.795 140.389  0.00  0.00    +0.000 A 
ENDBRANCH  25  34
BRANCH  31  40
ATOM     40  O   UNL     1     110.485 125.492 135.675  0.00  0.00    +0.000 OA
ATOM     41  C   UNL     1     109.997 125.665 135.033  0.00  0.00    +0.000 C 
ENDBRANCH  31  40
BRANCH  29  42
ATOM     42  C   UNL     1     111.757 125.411 136.785  0.00  0.00    +0.000 C 
BRANCH  42  43
ATOM     43  C   UNL     1     111.649 124.616 136.978  0.00  0.00    +0.000 C 
ATOM     44  C   UNL     1     112.272 124.083 136.893  0.00  0.00    +0.000 C 
ATOM     45  C   UNL     1     112.163 123.288 137.086  0.00  0.00    +0.000 C 
ATOM     46  C   UNL     1     113.004 124.344 136.617  0.00  0.00    +0.000 C 
ENDBRANCH  42  43
ENDBRANCH  29  42
ENDBRANCH  20  24
ENDBRANCH   8  20
BRANCH   6  47
ATOM     47  C   UNL     1     112.044 130.230 138.032  0.00  0.00    +0.000 C 
BRANCH  47  48
ATOM     48  O   UNL     1     112.866 130.186 137.978  0.00  0.00    +0.000 OA
BRANCH  48  54
ATOM     49  O   UNL     1     112.869 130.151 136.508  0.00  0.00    +0.000 OA
ATOM     50  O   UNL     1     114.955 130.598 136.422  0.00  0.00    +0.000 OA
ATOM     51  O   UNL     1     114.600 130.552 137.692  0.00  0.00    +0.000 OA
ATOM     52  C   UNL     1     114.158 130.423 136.296  0.00  0.00    +0.000 C 
ATOM     53  C   UNL     1     114.030 130.415 137.111  0.00  0.00    +0.000 C 
ATOM     54  C   UNL     1     113.234 130.247 137.242  0.00  0.00    +0.000 C 
ATOM     55  C   UNL     1     113.441 130.260 135.924  0.00  0.00    +0.000 C 
BRANCH  52  57
ATOM     56  O   UNL     1     115.134 131.032 135.448  0.00  0.00    +0.000 OA
ATOM     57  C   UNL     1     114.527 130.484 135.560  0.00  0.00    +0.000 C 
ENDBRANCH  52  57
ENDBRANCH  48  54
ENDBRANCH  47  48
ENDBRANCH   6  47
TORSDOF 12
ENDMDL
MODEL 4
REMARK VINA RESULT:     -10.3      2.381      3.935
REMARK  Name = 44259543
REMARK  12 active torsions:
REMARK  status: ('A' for Active; 'I' for Inactive)
REMARK    1  A    between atoms: O_1  and  C_20
REMARK    2  A    between atoms: O_1  and  C_25
REMARK    3  A    between atoms: O_4  and  C_27
REMARK    4  A    between atoms: O_4  and  C_33
REMARK    5  A    between atoms: O_8  and  C_24
REMARK    6  A    between atoms: O_8  and  C_37
REMARK    7  A    between atoms: O_18  and  C_45
REMARK    8  A    between atoms: C_22  and  C_27
REMARK    9  A    between atoms: C_30  and  C_35
REMARK   10  A    between atoms: C_38  and  C_42
REMARK   11  A    between atoms: C_43  and  C_49
REMARK   12  A    between atoms: C_49  and  C_52
REMARK                            x       y       z     vdW  Elec       q    Type
REMARK                         _______ _______ _______ _____ _____    ______ ____
ROOT
ATOM      1  O   UNL     1     110.573 128.013 139.507  0.00  0.00    +0.000 OA
ATOM      2  O   UNL     1     109.264 129.072 140.896  0.00  0.00    +0.000 OA
ATOM      3  O   UNL     1     111.641 129.917 139.552  0.00  0.00    +0.000 OA
ATOM      4  C   UNL     1     110.452 129.495 140.224  0.00  0.00    +0.000 C 
ATOM      5  C   UNL     1     109.888 128.913 140.381  0.00  0.00    +0.000 C 
ATOM      6  C   UNL     1     109.948 128.173 140.023  0.00  0.00    +0.000 C 
ATOM      7  C   UNL     1     111.076 129.336 139.709  0.00  0.00    +0.000 C 
ATOM      8  C   UNL     1     111.137 128.595 139.351  0.00  0.00    +0.000 C 
ENDROOT
BRANCH   4   9
ATOM      9  O   UNL     1     110.392 130.235 140.583  0.00  0.00    +0.000 OA
BRANCH   9  14
ATOM     10  O   UNL     1     111.173 129.779 141.689  0.00  0.00    +0.000 OA
ATOM     11  O   UNL     1     110.517 131.786 141.133  0.00  0.00    +0.000 OA
ATOM     12  O   UNL     1     111.362 132.105 142.514  0.00  0.00    +0.000 OA
ATOM     13  O   UNL     1     112.081 130.874 143.345  0.00  0.00    +0.000 OA
ATOM     14  C   UNL     1     110.814 130.395 141.274  0.00  0.00    +0.000 C 
ATOM     15  C   UNL     1     110.877 131.170 141.549  0.00  0.00    +0.000 C 
ATOM     16  C   UNL     1     111.299 131.330 142.239  0.00  0.00    +0.000 C 
ATOM     17  C   UNL     1     111.659 130.715 142.655  0.00  0.00    +0.000 C 
ATOM     18  C   UNL     1     111.596 129.939 142.380  0.00  0.00    +0.000 C 
ATOM     19  C   UNL     1     111.955 129.324 142.795  0.00  0.00    +0.000 C 
ENDBRANCH   9  14
ENDBRANCH   4   9
BRANCH   8  20
ATOM     20  O   UNL     1     111.762 128.436 138.835  0.00  0.00    +0.000 OA
BRANCH  20  24
ATOM     21  O   UNL     1     112.084 126.635 137.645  0.00  0.00    +0.000 OA
ATOM     22  O   UNL     1     110.598 128.614 137.679  0.00  0.00    +0.000 OA
ATOM     23  O   UNL     1     109.906 128.151 136.502  0.00  0.00    +0.000 OA
ATOM     24  C   UNL     1     111.675 127.865 138.246  0.00  0.00    +0.000 A 
ATOM     25  C   UNL     1     112.170 127.206 138.235  0.00  0.00    +0.000 A 
ATOM     26  C   UNL     1     111.093 127.955 137.668  0.00  0.00    +0.000 A 
ATOM     27  C   UNL     1     111.006 127.384 137.079  0.00  0.00    +0.000 A 
ATOM     28  C   UNL     1     111.502 126.724 137.067  0.00  0.00    +0.000 A 
ATOM     29  C   UNL     1     111.422 126.123 136.459  0.00  0.00    +0.000 A 
ATOM     30  C   UNL     1     110.396 127.488 136.482  0.00  0.00    +0.000 A 
ATOM     31  C   UNL     1     110.817 126.210 135.854  0.00  0.00    +0.000 A 
ATOM     32  C   UNL     1     110.301 126.897 135.865  0.00  0.00    +0.000 A 
BRANCH  25  34
ATOM     33  O   UNL     1     114.499 126.850 140.546  0.00  0.00    +0.000 OA
ATOM     34  C   UNL     1     112.752 127.117 138.812  0.00  0.00    +0.000 A 
ATOM     35  C   UNL     1     113.442 127.567 138.775  0.00  0.00    +0.000 A 
ATOM     36  C   UNL     1     112.644 126.578 139.428  0.00  0.00    +0.000 A 
ATOM     37  C   UNL     1     114.025 127.478 139.353  0.00  0.00    +0.000 A 
ATOM     38  C   UNL     1     113.225 126.489 140.005  0.00  0.00    +0.000 A 
ATOM     39  C   UNL     1     113.916 126.939 139.968  0.00  0.00    +0.000 A 
ENDBRANCH  25  34
BRANCH  31  40
ATOM     40  O   UNL     1     110.733 125.638 135.266  0.00  0.00    +0.000 OA
ATOM     41  C   UNL     1     110.249 125.785 134.614  0.00  0.00    +0.000 C 
ENDBRANCH  31  40
BRANCH  29  42
ATOM     42  C   UNL     1     111.921 125.467 136.455  0.00  0.00    +0.000 C 
BRANCH  42  43
ATOM     43  C   UNL     1     111.651 124.741 136.739  0.00  0.00    +0.000 C 
ATOM     44  C   UNL     1     112.163 124.094 136.772  0.00  0.00    +0.000 C 
ATOM     45  C   UNL     1     111.892 123.369 137.056  0.00  0.00    +0.000 C 
ATOM     46  C   UNL     1     112.944 124.174 136.521  0.00  0.00    +0.000 C 
ENDBRANCH  42  43
ENDBRANCH  29  42
ENDBRANCH  20  24
ENDBRANCH   8  20
BRANCH   6  47
ATOM     47  C   UNL     1     109.385 127.591 140.179  0.00  0.00    +0.000 C 
BRANCH  47  48
ATOM     48  O   UNL     1     109.622 126.848 140.447  0.00  0.00    +0.000 OA
BRANCH  48  54
ATOM     49  O   UNL     1     108.283 126.264 140.275  0.00  0.00    +0.000 OA
ATOM     50  O   UNL     1     108.845 124.473 141.292  0.00  0.00    +0.000 OA
ATOM     51  O   UNL     1     109.894 125.274 141.267  0.00  0.00    +0.000 OA
ATOM     52  C   UNL     1     108.485 125.095 140.885  0.00  0.00    +0.000 C 
ATOM     53  C   UNL     1     109.189 125.524 140.918  0.00  0.00    +0.000 C 
ATOM     54  C   UNL     1     109.064 126.247 140.541  0.00  0.00    +0.000 C 
ATOM     55  C   UNL     1     107.926 125.552 140.488  0.00  0.00    +0.000 C 
BRANCH  52  57
ATOM     56  O   UNL     1     108.151 123.774 141.317  0.00  0.00    +0.000 OA
ATOM     57  C   UNL     1     107.928 124.494 140.980  0.00  0.00    +0.000 C 
ENDBRANCH  52  57
ENDBRANCH  48  54
ENDBRANCH  47  48
ENDBRANCH   6  47
TORSDOF 12
ENDMDL
MODEL 5
REMARK VINA RESULT:     -10.3      1.215      5.394
REMARK  Name = 44259543
REMARK  12 active torsions:
REMARK  status: ('A' for Active; 'I' for Inactive)
REMARK    1  A    between atoms: O_1  and  C_20
REMARK    2  A    between atoms: O_1  and  C_25
REMARK    3  A    between atoms: O_4  and  C_27
REMARK    4  A    between atoms: O_4  and  C_33
REMARK    5  A    between atoms: O_8  and  C_24
REMARK    6  A    between atoms: O_8  and  C_37
REMARK    7  A    between atoms: O_18  and  C_45
REMARK    8  A    between atoms: C_22  and  C_27
REMARK    9  A    between atoms: C_30  and  C_35
REMARK   10  A    between atoms: C_38  and  C_42
REMARK   11  A    between atoms: C_43  and  C_49
REMARK   12  A    between atoms: C_49  and  C_52
REMARK                            x       y       z     vdW  Elec       q    Type
REMARK                         _______ _______ _______ _____ _____    ______ ____
ROOT
ATOM      1  O   UNL     1     110.828 127.896 137.273  0.00  0.00    +0.000 OA
ATOM      2  O   UNL     1     110.662 125.869 138.066  0.00  0.00    +0.000 OA
ATOM      3  O   UNL     1     111.626 126.820 135.549  0.00  0.00    +0.000 OA
ATOM      4  C   UNL     1     111.144 126.344 136.808  0.00  0.00    +0.000 C 
ATOM      5  C   UNL     1     110.824 126.494 137.554  0.00  0.00    +0.000 C 
ATOM      6  C   UNL     1     110.666 127.270 137.786  0.00  0.00    +0.000 C 
ATOM      7  C   UNL     1     111.306 126.969 136.295  0.00  0.00    +0.000 C 
ATOM      8  C   UNL     1     111.148 127.745 136.528  0.00  0.00    +0.000 C 
ENDROOT
BRANCH   4   9
ATOM      9  O   UNL     1     111.302 125.569 136.575  0.00  0.00    +0.000 OA
BRANCH   9  14
ATOM     10  O   UNL     1     112.662 125.696 136.994  0.00  0.00    +0.000 OA
ATOM     11  O   UNL     1     111.490 123.933 136.463  0.00  0.00    +0.000 OA
ATOM     12  O   UNL     1     112.944 123.243 136.825  0.00  0.00    +0.000 OA
ATOM     13  O   UNL     1     114.211 124.189 137.301  0.00  0.00    +0.000 OA
ATOM     14  C   UNL     1     112.030 125.223 136.757  0.00  0.00    +0.000 C 
ATOM     15  C   UNL     1     112.124 124.406 136.701  0.00  0.00    +0.000 C 
ATOM     16  C   UNL     1     112.850 124.061 136.882  0.00  0.00    +0.000 C 
ATOM     17  C   UNL     1     113.484 124.533 137.120  0.00  0.00    +0.000 C 
ATOM     18  C   UNL     1     113.390 125.351 137.176  0.00  0.00    +0.000 C 
ATOM     19  C   UNL     1     114.022 125.824 137.413  0.00  0.00    +0.000 C 
ENDBRANCH   9  14
ENDBRANCH   4   9
BRANCH   8  20
ATOM     20  O   UNL     1     111.310 128.371 136.014  0.00  0.00    +0.000 OA
BRANCH  20  24
ATOM     21  O   UNL     1     110.743 130.469 136.215  0.00  0.00    +0.000 OA
ATOM     22  O   UNL     1     109.682 128.280 135.764  0.00  0.00    +0.000 OA
ATOM     23  O   UNL     1     108.383 128.898 135.659  0.00  0.00    +0.000 OA
ATOM     24  C   UNL     1     110.850 129.055 136.040  0.00  0.00    +0.000 A 
ATOM     25  C   UNL     1     111.204 129.784 136.190  0.00  0.00    +0.000 A 
ATOM     26  C   UNL     1     110.036 129.009 135.915  0.00  0.00    +0.000 A 
ATOM     27  C   UNL     1     109.575 129.693 135.940  0.00  0.00    +0.000 A 
ATOM     28  C   UNL     1     109.929 130.424 136.090  0.00  0.00    +0.000 A 
ATOM     29  C   UNL     1     109.461 131.143 136.119  0.00  0.00    +0.000 A 
ATOM     30  C   UNL     1     108.728 129.632 135.808  0.00  0.00    +0.000 A 
ATOM     31  C   UNL     1     108.612 131.102 135.990  0.00  0.00    +0.000 A 
ATOM     32  C   UNL     1     108.243 130.342 135.833  0.00  0.00    +0.000 A 
BRANCH  25  34
ATOM     33  O   UNL     1     114.461 129.968 136.689  0.00  0.00    +0.000 OA
ATOM     34  C   UNL     1     112.017 129.830 136.315  0.00  0.00    +0.000 A 
ATOM     35  C   UNL     1     112.537 129.764 135.677  0.00  0.00    +0.000 A 
ATOM     36  C   UNL     1     112.313 129.943 137.077  0.00  0.00    +0.000 A 
ATOM     37  C   UNL     1     113.352 129.810 135.802  0.00  0.00    +0.000 A 
ATOM     38  C   UNL     1     113.126 129.989 137.202  0.00  0.00    +0.000 A 
ATOM     39  C   UNL     1     113.646 129.922 136.564  0.00  0.00    +0.000 A 
ENDBRANCH  25  34
BRANCH  31  40
ATOM     40  O   UNL     1     108.154 131.787 136.016  0.00  0.00    +0.000 OA
ATOM     41  C   UNL     1     107.390 131.785 135.705  0.00  0.00    +0.000 C 
ENDBRANCH  31  40
BRANCH  29  42
ATOM     42  C   UNL     1     109.823 131.868 136.270  0.00  0.00    +0.000 C 
BRANCH  42  43
ATOM     43  C   UNL     1     109.808 132.187 137.031  0.00  0.00    +0.000 C 
ATOM     44  C   UNL     1     110.191 132.901 137.187  0.00  0.00    +0.000 C 
ATOM     45  C   UNL     1     110.175 133.219 137.948  0.00  0.00    +0.000 C 
ATOM     46  C   UNL     1     110.589 133.296 136.582  0.00  0.00    +0.000 C 
ENDBRANCH  42  43
ENDBRANCH  29  42
ENDBRANCH  20  24
ENDBRANCH   8  20
BRANCH   6  47
ATOM     47  C   UNL     1     110.346 127.420 138.531  0.00  0.00    +0.000 C 
BRANCH  47  48
ATOM     48  O   UNL     1     110.750 127.904 139.064  0.00  0.00    +0.000 OA
BRANCH  48  54
ATOM     49  O   UNL     1     109.618 128.027 139.994  0.00  0.00    +0.000 OA
ATOM     50  O   UNL     1     110.896 128.626 141.597  0.00  0.00    +0.000 OA
ATOM     51  O   UNL     1     111.646 128.420 140.531  0.00  0.00    +0.000 OA
ATOM     52  C   UNL     1     110.285 128.411 141.085  0.00  0.00    +0.000 C 
ATOM     53  C   UNL     1     110.831 128.306 140.476  0.00  0.00    +0.000 C 
ATOM     54  C   UNL     1     110.420 128.069 139.802  0.00  0.00    +0.000 C 
ATOM     55  C   UNL     1     109.535 128.238 140.788  0.00  0.00    +0.000 C 
BRANCH  52  57
ATOM     56  O   UNL     1     110.170 128.128 142.481  0.00  0.00    +0.000 OA
ATOM     57  C   UNL     1     109.954 128.577 141.823  0.00  0.00    +0.000 C 
ENDBRANCH  52  57
ENDBRANCH  48  54
ENDBRANCH  47  48
ENDBRANCH   6  47
TORSDOF 12
ENDMDL
MODEL 6
REMARK VINA RESULT:     -10.3      1.756      4.139
REMARK  Name = 44259543
REMARK  12 active torsions:
REMARK  status: ('A' for Active; 'I' for Inactive)
REMARK    1  A    between atoms: O_1  and  C_20
REMARK    2  A    between atoms: O_1  and  C_25
REMARK    3  A    between atoms: O_4  and  C_27
REMARK    4  A    between atoms: O_4  and  C_33
REMARK    5  A    between atoms: O_8  and  C_24
REMARK    6  A    between atoms: O_8  and  C_37
REMARK    7  A    between atoms: O_18  and  C_45
REMARK    8  A    between atoms: C_22  and  C_27
REMARK    9  A    between atoms: C_30  and  C_35
REMARK   10  A    between atoms: C_38  and  C_42
REMARK   11  A    between atoms: C_43  and  C_49
REMARK   12  A    between atoms: C_49  and  C_52
REMARK                            x       y       z     vdW  Elec       q    Type
REMARK                         _______ _______ _______ _____ _____    ______ ____
ROOT
ATOM      1  O   UNL     1     111.370 129.468 137.229  0.00  0.00    +0.000 OA
ATOM      2  O   UNL     1     110.927 131.593 137.005  0.00  0.00    +0.000 OA
ATOM      3  O   UNL     1     109.247 129.398 137.733  0.00  0.00    +0.000 OA
ATOM      4  C   UNL     1     110.087 130.496 137.369  0.00  0.00    +0.000 C 
ATOM      5  C   UNL     1     110.828 130.788 137.152  0.00  0.00    +0.000 C 
ATOM      6  C   UNL     1     111.469 130.274 137.082  0.00  0.00    +0.000 C 
ATOM      7  C   UNL     1     109.988 129.691 137.516  0.00  0.00    +0.000 C 
ATOM      8  C   UNL     1     110.629 129.177 137.446  0.00  0.00    +0.000 C 
ENDROOT
BRANCH   4   9
ATOM      9  O   UNL     1     109.446 131.010 137.439  0.00  0.00    +0.000 OA
BRANCH   9  14
ATOM     10  O   UNL     1     109.228 130.989 136.027  0.00  0.00    +0.000 OA
ATOM     11  O   UNL     1     107.929 131.619 137.664  0.00  0.00    +0.000 OA
ATOM     12  O   UNL     1     106.953 131.902 136.364  0.00  0.00    +0.000 OA
ATOM     13  O   UNL     1     107.494 131.578 134.840  0.00  0.00    +0.000 OA
ATOM     14  C   UNL     1     108.957 131.152 136.789  0.00  0.00    +0.000 C 
ATOM     15  C   UNL     1     108.199 131.456 136.901  0.00  0.00    +0.000 C 
ATOM     16  C   UNL     1     107.711 131.598 136.252  0.00  0.00    +0.000 C 
ATOM     17  C   UNL     1     107.981 131.436 135.489  0.00  0.00    +0.000 C 
ATOM     18  C   UNL     1     108.740 131.131 135.377  0.00  0.00    +0.000 C 
ATOM     19  C   UNL     1     109.011 130.969 134.615  0.00  0.00    +0.000 C 
ENDBRANCH   9  14
ENDBRANCH   4   9
BRANCH   8  20
ATOM     20  O   UNL     1     110.530 128.370 137.593  0.00  0.00    +0.000 OA
BRANCH  20  24
ATOM     21  O   UNL     1     112.049 126.811 137.745  0.00  0.00    +0.000 OA
ATOM     22  O   UNL     1     111.279 128.801 138.999  0.00  0.00    +0.000 OA
ATOM     23  O   UNL     1     112.285 128.589 140.010  0.00  0.00    +0.000 OA
ATOM     24  C   UNL     1     111.162 127.922 137.878  0.00  0.00    +0.000 A 
ATOM     25  C   UNL     1     111.418 127.259 137.460  0.00  0.00    +0.000 A 
ATOM     26  C   UNL     1     111.536 128.138 138.581  0.00  0.00    +0.000 A 
ATOM     27  C   UNL     1     112.167 127.690 138.866  0.00  0.00    +0.000 A 
ATOM     28  C   UNL     1     112.424 127.026 138.448  0.00  0.00    +0.000 A 
ATOM     29  C   UNL     1     113.080 126.551 138.734  0.00  0.00    +0.000 A 
ATOM     30  C   UNL     1     112.549 127.924 139.599  0.00  0.00    +0.000 A 
ATOM     31  C   UNL     1     113.474 126.770 139.466  0.00  0.00    +0.000 A 
ATOM     32  C   UNL     1     113.207 127.461 139.901  0.00  0.00    +0.000 A 
BRANCH  25  34
ATOM     33  O   UNL     1     109.920 126.397 134.649  0.00  0.00    +0.000 OA
ATOM     34  C   UNL     1     111.044 127.044 136.758  0.00  0.00    +0.000 A 
ATOM     35  C   UNL     1     110.326 126.639 136.780  0.00  0.00    +0.000 A 
ATOM     36  C   UNL     1     111.387 127.233 136.032  0.00  0.00    +0.000 A 
ATOM     37  C   UNL     1     109.951 126.423 136.077  0.00  0.00    +0.000 A 
ATOM     38  C   UNL     1     111.013 127.018 135.329  0.00  0.00    +0.000 A 
ATOM     39  C   UNL     1     110.295 126.613 135.352  0.00  0.00    +0.000 A 
ENDBRANCH  25  34
BRANCH  31  40
ATOM     40  O   UNL     1     114.105 126.320 139.748  0.00  0.00    +0.000 OA
ATOM     41  C   UNL     1     114.474 126.527 140.457  0.00  0.00    +0.000 C 
ENDBRANCH  31  40
BRANCH  29  42
ATOM     42  C   UNL     1     113.330 125.890 138.310  0.00  0.00    +0.000 C 
BRANCH  42  43
ATOM     43  C   UNL     1     113.997 125.937 137.827  0.00  0.00    +0.000 C 
ATOM     44  C   UNL     1     114.218 125.291 137.363  0.00  0.00    +0.000 C 
ATOM     45  C   UNL     1     114.885 125.340 136.880  0.00  0.00    +0.000 C 
ATOM     46  C   UNL     1     113.771 124.598 137.383  0.00  0.00    +0.000 C 
ENDBRANCH  42  43
ENDBRANCH  29  42
ENDBRANCH  20  24
ENDBRANCH   8  20
BRANCH   6  47
ATOM     47  C   UNL     1     112.210 130.565 136.865  0.00  0.00    +0.000 C 
BRANCH  47  48
ATOM     48  O   UNL     1     112.605 130.245 136.215  0.00  0.00    +0.000 OA
BRANCH  48  54
ATOM     49  O   UNL     1     113.834 131.004 136.491  0.00  0.00    +0.000 OA
ATOM     50  O   UNL     1     114.889 130.023 134.915  0.00  0.00    +0.000 OA
ATOM     51  O   UNL     1     113.662 129.541 134.946  0.00  0.00    +0.000 OA
ATOM     52  C   UNL     1     114.619 130.481 135.547  0.00  0.00    +0.000 C 
ATOM     53  C   UNL     1     113.878 130.122 135.491  0.00  0.00    +0.000 C 
ATOM     54  C   UNL     1     113.393 130.445 136.073  0.00  0.00    +0.000 C 
ATOM     55  C   UNL     1     114.592 131.026 136.165  0.00  0.00    +0.000 C 
BRANCH  52  57
ATOM     56  O   UNL     1     115.664 130.821 134.634  0.00  0.00    +0.000 OA
ATOM     57  C   UNL     1     115.407 130.680 135.405  0.00  0.00    +0.000 C 
ENDBRANCH  52  57
ENDBRANCH  48  54
ENDBRANCH  47  48
ENDBRANCH   6  47
TORSDOF 12
ENDMDL
MODEL 7
REMARK VINA RESULT:     -10.2      3.397      6.061
REMARK  Name = 44259543
REMARK  12 active torsions:
REMARK  status: ('A' for Active; 'I' for Inactive)
REMARK    1  A    between atoms: O_1  and  C_20
REMARK    2  A    between atoms: O_1  and  C_25
REMARK    3  A    between atoms: O_4  and  C_27
REMARK    4  A    between atoms: O_4  and  C_33
REMARK    5  A    between atoms: O_8  and  C_24
REMARK    6  A    between atoms: O_8  and  C_37
REMARK    7  A    between atoms: O_18  and  C_45
REMARK    8  A    between atoms: C_22  and  C_27
REMARK    9  A    between atoms: C_30  and  C_35
REMARK   10  A    between atoms: C_38  and  C_42
REMARK   11  A    between atoms: C_43  and  C_49
REMARK   12  A    between atoms: C_49  and  C_52
REMARK                            x       y       z     vdW  Elec       q    Type
REMARK                         _______ _______ _______ _____ _____    ______ ____
ROOT
ATOM      1  O   UNL     1     111.758 130.159 140.509  0.00  0.00    +0.000 OA
ATOM      2  O   UNL     1     110.985 131.780 141.749  0.00  0.00    +0.000 OA
ATOM      3  O   UNL     1     113.348 130.193 142.005  0.00  0.00    +0.000 OA
ATOM      4  C   UNL     1     112.166 130.987 141.877  0.00  0.00    +0.000 C 
ATOM      5  C   UNL     1     111.473 131.177 141.471  0.00  0.00    +0.000 C 
ATOM      6  C   UNL     1     111.269 130.763 140.788  0.00  0.00    +0.000 C 
ATOM      7  C   UNL     1     112.655 130.383 141.600  0.00  0.00    +0.000 C 
ATOM      8  C   UNL     1     112.451 129.969 140.916  0.00  0.00    +0.000 C 
ENDROOT
BRANCH   4   9
ATOM      9  O   UNL     1     112.370 131.401 142.561  0.00  0.00    +0.000 OA
BRANCH   9  14
ATOM     10  O   UNL     1     111.808 130.378 143.385  0.00  0.00    +0.000 OA
ATOM     11  O   UNL     1     112.387 132.430 143.850  0.00  0.00    +0.000 OA
ATOM     12  O   UNL     1     111.833 131.922 145.319  0.00  0.00    +0.000 OA
ATOM     13  O   UNL     1     111.262 130.384 145.498  0.00  0.00    +0.000 OA
ATOM     14  C   UNL     1     112.093 131.147 143.296  0.00  0.00    +0.000 C 
ATOM     15  C   UNL     1     112.101 131.661 143.941  0.00  0.00    +0.000 C 
ATOM     16  C   UNL     1     111.824 131.407 144.674  0.00  0.00    +0.000 C 
ATOM     17  C   UNL     1     111.539 130.638 144.765  0.00  0.00    +0.000 C 
ATOM     18  C   UNL     1     111.531 130.123 144.120  0.00  0.00    +0.000 C 
ATOM     19  C   UNL     1     111.246 129.354 144.209  0.00  0.00    +0.000 C 
ENDBRANCH   9  14
ENDBRANCH   4   9
BRANCH   8  20
ATOM     20  O   UNL     1     112.939 129.365 140.638  0.00  0.00    +0.000 OA
BRANCH  20  24
ATOM     21  O   UNL     1     112.881 128.393 138.685  0.00  0.00    +0.000 OA
ATOM     22  O   UNL     1     113.543 130.562 139.675  0.00  0.00    +0.000 OA
ATOM     23  O   UNL     1     113.936 131.065 138.382  0.00  0.00    +0.000 OA
ATOM     24  C   UNL     1     113.020 129.240 139.826  0.00  0.00    +0.000 A 
ATOM     25  C   UNL     1     112.800 128.518 139.496  0.00  0.00    +0.000 A 
ATOM     26  C   UNL     1     113.322 129.839 139.345  0.00  0.00    +0.000 A 
ATOM     27  C   UNL     1     113.403 129.714 138.534  0.00  0.00    +0.000 A 
ATOM     28  C   UNL     1     113.182 128.991 138.203  0.00  0.00    +0.000 A 
ATOM     29  C   UNL     1     113.262 128.849 137.360  0.00  0.00    +0.000 A 
ATOM     30  C   UNL     1     113.718 130.346 138.043  0.00  0.00    +0.000 A 
ATOM     31  C   UNL     1     113.575 129.468 136.853  0.00  0.00    +0.000 A 
ATOM     32  C   UNL     1     113.805 130.221 137.197  0.00  0.00    +0.000 A 
BRANCH  25  34
ATOM     33  O   UNL     1     111.593 126.124 141.421  0.00  0.00    +0.000 OA
ATOM     34  C   UNL     1     112.499 127.919 139.977  0.00  0.00    +0.000 A 
ATOM     35  C   UNL     1     111.691 127.749 139.967  0.00  0.00    +0.000 A 
ATOM     36  C   UNL     1     113.004 127.491 140.469  0.00  0.00    +0.000 A 
ATOM     37  C   UNL     1     111.389 127.150 140.448  0.00  0.00    +0.000 A 
ATOM     38  C   UNL     1     112.702 126.893 140.950  0.00  0.00    +0.000 A 
ATOM     39  C   UNL     1     111.895 126.722 140.939  0.00  0.00    +0.000 A 
ENDBRANCH  25  34
BRANCH  31  40
ATOM     40  O   UNL     1     113.655 129.341 136.042  0.00  0.00    +0.000 OA
ATOM     41  C   UNL     1     113.902 129.955 135.550  0.00  0.00    +0.000 C 
ENDBRANCH  31  40
BRANCH  29  42
ATOM     42  C   UNL     1     113.039 128.123 137.038  0.00  0.00    +0.000 C 
BRANCH  42  43
ATOM     43  C   UNL     1     113.608 127.544 136.890  0.00  0.00    +0.000 C 
ATOM     44  C   UNL     1     113.381 126.805 136.604  0.00  0.00    +0.000 C 
ATOM     45  C   UNL     1     113.951 126.227 136.456  0.00  0.00    +0.000 C 
ATOM     46  C   UNL     1     112.584 126.644 136.466  0.00  0.00    +0.000 C 
ENDBRANCH  42  43
ENDBRANCH  29  42
ENDBRANCH  20  24
ENDBRANCH   8  20
BRANCH   6  47
ATOM     47  C   UNL     1     110.577 130.952 140.381  0.00  0.00    +0.000 C 
BRANCH  47  48
ATOM     48  O   UNL     1     110.612 131.406 139.693  0.00  0.00    +0.000 OA
BRANCH  48  54
ATOM     49  O   UNL     1     109.482 130.759 139.012  0.00  0.00    +0.000 OA
ATOM     50  O   UNL     1     109.045 132.523 137.890  0.00  0.00    +0.000 OA
ATOM     51  O   UNL     1     110.085 132.777 138.662  0.00  0.00    +0.000 OA
ATOM     52  C   UNL     1     109.090 131.779 138.245  0.00  0.00    +0.000 C 
ATOM     53  C   UNL     1     109.739 132.028 138.688  0.00  0.00    +0.000 C 
ATOM     54  C   UNL     1     109.981 131.399 139.162  0.00  0.00    +0.000 C 
ATOM     55  C   UNL     1     108.931 130.995 138.445  0.00  0.00    +0.000 C 
BRANCH  52  57
ATOM     56  O   UNL     1     107.745 132.134 137.916  0.00  0.00    +0.000 OA
ATOM     57  C   UNL     1     108.458 131.771 137.713  0.00  0.00    +0.000 C 
ENDBRANCH  52  57
ENDBRANCH  48  54
ENDBRANCH  47  48
ENDBRANCH   6  47
TORSDOF 12
ENDMDL
MODEL 8
REMARK VINA RESULT:     -10.2      2.047      5.294
REMARK  Name = 44259543
REMARK  12 active torsions:
REMARK  status: ('A' for Active; 'I' for Inactive)
REMARK    1  A    between atoms: O_1  and  C_20
REMARK    2  A    between atoms: O_1  and  C_25
REMARK    3  A    between atoms: O_4  and  C_27
REMARK    4  A    between atoms: O_4  and  C_33
REMARK    5  A    between atoms: O_8  and  C_24
REMARK    6  A    between atoms: O_8  and  C_37
REMARK    7  A    between atoms: O_18  and  C_45
REMARK    8  A    between atoms: C_22  and  C_27
REMARK    9  A    between atoms: C_30  and  C_35
REMARK   10  A    between atoms: C_38  and  C_42
REMARK   11  A    between atoms: C_43  and  C_49
REMARK   12  A    between atoms: C_49  and  C_52
REMARK                            x       y       z     vdW  Elec       q    Type
REMARK                         _______ _______ _______ _____ _____    ______ ____
ROOT
ATOM      1  O   UNL     1     112.282 127.139 139.485  0.00  0.00    +0.000 OA
ATOM      2  O   UNL     1     111.710 127.082 141.591  0.00  0.00    +0.000 OA
ATOM      3  O   UNL     1     110.733 125.607 139.346  0.00  0.00    +0.000 OA
ATOM      4  C   UNL     1     111.221 126.345 140.468  0.00  0.00    +0.000 C 
ATOM      5  C   UNL     1     111.731 126.912 140.784  0.00  0.00    +0.000 C 
ATOM      6  C   UNL     1     112.261 127.309 140.293  0.00  0.00    +0.000 C 
ATOM      7  C   UNL     1     111.242 126.174 139.662  0.00  0.00    +0.000 C 
ATOM      8  C   UNL     1     111.773 126.571 139.170  0.00  0.00    +0.000 C 
ENDROOT
BRANCH   4   9
ATOM      9  O   UNL     1     110.691 125.948 140.960  0.00  0.00    +0.000 OA
BRANCH   9  14
ATOM     10  O   UNL     1     109.761 127.032 141.005  0.00  0.00    +0.000 OA
ATOM     11  O   UNL     1     109.455 124.878 141.187  0.00  0.00    +0.000 OA
ATOM     12  O   UNL     1     107.907 125.428 141.345  0.00  0.00    +0.000 OA
ATOM     13  O   UNL     1     107.596 127.047 141.277  0.00  0.00    +0.000 OA
ATOM     14  C   UNL     1     109.917 126.223 141.040  0.00  0.00    +0.000 C 
ATOM     15  C   UNL     1     109.299 125.688 141.153  0.00  0.00    +0.000 C 
ATOM     16  C   UNL     1     108.525 125.963 141.232  0.00  0.00    +0.000 C 
ATOM     17  C   UNL     1     108.369 126.772 141.198  0.00  0.00    +0.000 C 
ATOM     18  C   UNL     1     108.987 127.307 141.085  0.00  0.00    +0.000 C 
ATOM     19  C   UNL     1     108.831 128.116 141.050  0.00  0.00    +0.000 C 
ENDBRANCH   9  14
ENDBRANCH   4   9
BRANCH   8  20
ATOM     20  O   UNL     1     111.794 126.401 138.363  0.00  0.00    +0.000 OA
BRANCH  20  24
ATOM     21  O   UNL     1     112.656 127.605 136.760  0.00  0.00    +0.000 OA
ATOM     22  O   UNL     1     110.708 127.641 138.285  0.00  0.00    +0.000 OA
ATOM     23  O   UNL     1     110.244 128.880 137.711  0.00  0.00    +0.000 OA
ATOM     24  C   UNL     1     111.900 127.009 137.815  0.00  0.00    +0.000 A 
ATOM     25  C   UNL     1     112.550 126.997 137.308  0.00  0.00    +0.000 A 
ATOM     26  C   UNL     1     111.357 127.629 137.777  0.00  0.00    +0.000 A 
ATOM     27  C   UNL     1     111.464 128.237 137.230  0.00  0.00    +0.000 A 
ATOM     28  C   UNL     1     112.114 128.225 136.721  0.00  0.00    +0.000 A 
ATOM     29  C   UNL     1     112.236 128.852 136.147  0.00  0.00    +0.000 A 
ATOM     30  C   UNL     1     110.891 128.877 137.199  0.00  0.00    +0.000 A 
ATOM     31  C   UNL     1     111.673 129.501 136.101  0.00  0.00    +0.000 A 
ATOM     32  C   UNL     1     110.997 129.513 136.630  0.00  0.00    +0.000 A 
BRANCH  25  34
ATOM     33  O   UNL     1     114.722 124.517 137.463  0.00  0.00    +0.000 OA
ATOM     34  C   UNL     1     113.092 126.378 137.347  0.00  0.00    +0.000 A 
ATOM     35  C   UNL     1     112.911 125.649 137.006  0.00  0.00    +0.000 A 
ATOM     36  C   UNL     1     113.817 126.486 137.726  0.00  0.00    +0.000 A 
ATOM     37  C   UNL     1     113.454 125.028 137.045  0.00  0.00    +0.000 A 
ATOM     38  C   UNL     1     114.360 125.867 137.765  0.00  0.00    +0.000 A 
ATOM     39  C   UNL     1     114.178 125.138 137.424  0.00  0.00    +0.000 A 
ENDBRANCH  25  34
BRANCH  31  40
ATOM     40  O   UNL     1     111.783 130.107 135.553  0.00  0.00    +0.000 OA
ATOM     41  C   UNL     1     111.165 130.627 135.384  0.00  0.00    +0.000 C 
ENDBRANCH  31  40
BRANCH  29  42
ATOM     42  C   UNL     1     112.888 128.832 135.643  0.00  0.00    +0.000 C 
BRANCH  42  43
ATOM     43  C   UNL     1     113.533 129.328 135.782  0.00  0.00    +0.000 C 
ATOM     44  C   UNL     1     114.197 129.288 135.294  0.00  0.00    +0.000 C 
ATOM     45  C   UNL     1     114.841 129.784 135.434  0.00  0.00    +0.000 C 
ATOM     46  C   UNL     1     114.215 128.754 134.666  0.00  0.00    +0.000 C 
ENDBRANCH  42  43
ENDBRANCH  29  42
ENDBRANCH  20  24
ENDBRANCH   8  20
BRANCH   6  47
ATOM     47  C   UNL     1     112.771 127.876 140.607  0.00  0.00    +0.000 C 
BRANCH  47  48
ATOM     48  O   UNL     1     112.749 128.652 140.327  0.00  0.00    +0.000 OA
BRANCH  48  54
ATOM     49  O   UNL     1     114.104 128.946 140.815  0.00  0.00    +0.000 OA
ATOM     50  O   UNL     1     113.991 130.972 140.148  0.00  0.00    +0.000 OA
ATOM     51  O   UNL     1     112.853 130.378 139.844  0.00  0.00    +0.000 OA
ATOM     52  C   UNL     1     114.181 130.229 140.456  0.00  0.00    +0.000 C 
ATOM     53  C   UNL     1     113.441 129.945 140.228  0.00  0.00    +0.000 C 
ATOM     54  C   UNL     1     113.394 129.152 140.449  0.00  0.00    +0.000 C 
ATOM     55  C   UNL     1     114.590 129.613 140.819  0.00  0.00    +0.000 C 
BRANCH  52  57
ATOM     56  O   UNL     1     114.718 131.457 140.952  0.00  0.00    +0.000 OA
ATOM     57  C   UNL     1     114.826 130.730 140.578  0.00  0.00    +0.000 C 
ENDBRANCH  52  57
ENDBRANCH  48  54
ENDBRANCH  47  48
ENDBRANCH   6  47
TORSDOF 12
ENDMDL
MODEL 9
REMARK VINA RESULT:     -10.0      1.378      5.872
REMARK  Name = 44259543
REMARK  12 active torsions:
REMARK  status: ('A' for Active; 'I' for Inactive)
REMARK    1  A    between atoms: O_1  and  C_20
REMARK    2  A    between atoms: O_1  and  C_25
REMARK    3  A    between atoms: O_4  and  C_27
REMARK    4  A    between atoms: O_4  and  C_33
REMARK    5  A    between atoms: O_8  and  C_24
REMARK    6  A    between atoms: O_8  and  C_37
REMARK    7  A    between atoms: O_18  and  C_45
REMARK    8  A    between atoms: C_22  and  C_27
REMARK    9  A    between atoms: C_30  and  C_35
REMARK   10  A    between atoms: C_38  and  C_42
REMARK   11  A    between atoms: C_43  and  C_49
REMARK   12  A    between atoms: C_49  and  C_52
REMARK                            x       y       z     vdW  Elec       q    Type
REMARK                         _______ _______ _______ _____ _____    ______ ____
ROOT
ATOM      1  O   UNL     1     111.477 128.166 137.761  0.00  0.00    +0.000 OA
ATOM      2  O   UNL     1     112.721 126.945 139.075  0.00  0.00    +0.000 OA
ATOM      3  O   UNL     1     112.868 127.409 136.259  0.00  0.00    +0.000 OA
ATOM      4  C   UNL     1     112.795 127.177 137.667  0.00  0.00    +0.000 C 
ATOM      5  C   UNL     1     112.429 127.308 138.395  0.00  0.00    +0.000 C 
ATOM      6  C   UNL     1     111.770 127.802 138.442  0.00  0.00    +0.000 C 
ATOM      7  C   UNL     1     112.503 127.540 136.987  0.00  0.00    +0.000 C 
ATOM      8  C   UNL     1     111.844 128.034 137.034  0.00  0.00    +0.000 C 
ENDROOT
BRANCH   4   9
ATOM      9  O   UNL     1     113.454 126.682 137.620  0.00  0.00    +0.000 OA
BRANCH   9  14
ATOM     10  O   UNL     1     112.612 125.589 137.249  0.00  0.00    +0.000 OA
ATOM     11  O   UNL     1     114.746 125.660 137.703  0.00  0.00    +0.000 OA
ATOM     12  O   UNL     1     114.551 124.055 137.373  0.00  0.00    +0.000 OA
ATOM     13  O   UNL     1     113.064 123.472 136.961  0.00  0.00    +0.000 OA
ATOM     14  C   UNL     1     113.356 125.879 137.455  0.00  0.00    +0.000 C 
ATOM     15  C   UNL     1     114.003 125.368 137.496  0.00  0.00    +0.000 C 
ATOM     16  C   UNL     1     113.905 124.566 137.332  0.00  0.00    +0.000 C 
ATOM     17  C   UNL     1     113.161 124.274 137.125  0.00  0.00    +0.000 C 
ATOM     18  C   UNL     1     112.515 124.785 137.084  0.00  0.00    +0.000 C 
ATOM     19  C   UNL     1     111.771 124.495 136.878  0.00  0.00    +0.000 C 
ENDBRANCH   9  14
ENDBRANCH   4   9
BRANCH   8  20
ATOM     20  O   UNL     1     111.551 128.397 136.352  0.00  0.00    +0.000 OA
BRANCH  20  24
ATOM     21  O   UNL     1     110.038 129.966 136.230  0.00  0.00    +0.000 OA
ATOM     22  O   UNL     1     112.406 129.699 136.898  0.00  0.00    +0.000 OA
ATOM     23  O   UNL     1     112.501 131.099 137.231  0.00  0.00    +0.000 OA
ATOM     24  C   UNL     1     111.189 129.137 136.403  0.00  0.00    +0.000 A 
ATOM     25  C   UNL     1     110.400 129.226 136.180  0.00  0.00    +0.000 A 
ATOM     26  C   UNL     1     111.617 129.788 136.675  0.00  0.00    +0.000 A 
ATOM     27  C   UNL     1     111.256 130.527 136.725  0.00  0.00    +0.000 A 
ATOM     28  C   UNL     1     110.466 130.617 136.503  0.00  0.00    +0.000 A 
ATOM     29  C   UNL     1     110.078 131.382 136.551  0.00  0.00    +0.000 A 
ATOM     30  C   UNL     1     111.712 131.197 137.011  0.00  0.00    +0.000 A 
ATOM     31  C   UNL     1     110.518 132.063 136.834  0.00  0.00    +0.000 A 
ATOM     32  C   UNL     1     111.340 131.971 137.065  0.00  0.00    +0.000 A 
BRANCH  25  34
ATOM     33  O   UNL     1     108.688 126.624 135.091  0.00  0.00    +0.000 OA
ATOM     34  C   UNL     1     109.973 128.576 135.908  0.00  0.00    +0.000 A 
ATOM     35  C   UNL     1     109.386 128.240 136.381  0.00  0.00    +0.000 A 
ATOM     36  C   UNL     1     110.131 128.260 135.162  0.00  0.00    +0.000 A 
ATOM     37  C   UNL     1     108.958 127.589 136.109  0.00  0.00    +0.000 A 
ATOM     38  C   UNL     1     109.703 127.610 134.890  0.00  0.00    +0.000 A 
ATOM     39  C   UNL     1     109.117 127.275 135.363  0.00  0.00    +0.000 A 
ENDBRANCH  25  34
BRANCH  31  40
ATOM     40  O   UNL     1     110.154 132.802 136.883  0.00  0.00    +0.000 OA
ATOM     41  C   UNL     1     110.541 133.429 137.254  0.00  0.00    +0.000 C 
ENDBRANCH  31  40
BRANCH  29  42
ATOM     42  C   UNL     1     109.288 131.462 136.326  0.00  0.00    +0.000 C 
BRANCH  42  43
ATOM     43  C   UNL     1     109.099 131.772 135.586  0.00  0.00    +0.000 C 
ATOM     44  C   UNL     1     108.310 131.832 135.353  0.00  0.00    +0.000 C 
ATOM     45  C   UNL     1     108.122 132.143 134.612  0.00  0.00    +0.000 C 
ATOM     46  C   UNL     1     107.711 131.582 135.860  0.00  0.00    +0.000 C 
ENDBRANCH  42  43
ENDBRANCH  29  42
ENDBRANCH  20  24
ENDBRANCH   8  20
BRANCH   6  47
ATOM     47  C   UNL     1     111.404 127.934 139.169  0.00  0.00    +0.000 C 
BRANCH  47  48
ATOM     48  O   UNL     1     110.606 127.750 139.269  0.00  0.00    +0.000 OA
BRANCH  48  54
ATOM     49  O   UNL     1     110.539 128.374 140.598  0.00  0.00    +0.000 OA
ATOM     50  O   UNL     1     108.600 127.561 140.971  0.00  0.00    +0.000 OA
ATOM     51  O   UNL     1     108.985 127.165 139.772  0.00  0.00    +0.000 OA
ATOM     52  C   UNL     1     109.334 127.939 140.972  0.00  0.00    +0.000 C 
ATOM     53  C   UNL     1     109.488 127.645 140.217  0.00  0.00    +0.000 C 
ATOM     54  C   UNL     1     110.232 127.913 139.986  0.00  0.00    +0.000 C 
ATOM     55  C   UNL     1     109.983 128.390 141.208  0.00  0.00    +0.000 C 
BRANCH  52  57
ATOM     56  O   UNL     1     108.686 127.483 142.161  0.00  0.00    +0.000 OA
ATOM     57  C   UNL     1     108.960 128.102 141.690  0.00  0.00    +0.000 C 
ENDBRANCH  52  57
ENDBRANCH  48  54
ENDBRANCH  47  48
ENDBRANCH   6  47
TORSDOF 12
ENDMDL
MODEL 10
REMARK VINA RESULT:     -10.0      2.054      5.731
REMARK  Name = 44259543
REMARK  12 active torsions:
REMARK  status: ('A' for Active; 'I' for Inactive)
REMARK    1  A    between atoms: O_1  and  C_20
REMARK    2  A    between atoms: O_1  and  C_25
REMARK    3  A    between atoms: O_4  and  C_27
REMARK    4  A    between atoms: O_4  and  C_33
REMARK    5  A    between atoms: O_8  and  C_24
REMARK    6  A    between atoms: O_8  and  C_37
REMARK    7  A    between atoms: O_18  and  C_45
REMARK    8  A    between atoms: C_22  and  C_27
REMARK    9  A    between atoms: C_30  and  C_35
REMARK   10  A    between atoms: C_38  and  C_42
REMARK   11  A    between atoms: C_43  and  C_49
REMARK   12  A    between atoms: C_49  and  C_52
REMARK                            x       y       z     vdW  Elec       q    Type
REMARK                         _______ _______ _______ _____ _____    ______ ____
ROOT
ATOM      1  O   UNL     1     112.774 128.481 137.979  0.00  0.00    +0.000 OA
ATOM      2  O   UNL     1     113.381 126.816 139.254  0.00  0.00    +0.000 OA
ATOM      3  O   UNL     1     113.377 127.090 136.409  0.00  0.00    +0.000 OA
ATOM      4  C   UNL     1     113.379 126.953 137.831  0.00  0.00    +0.000 C 
ATOM      5  C   UNL     1     113.229 127.266 138.580  0.00  0.00    +0.000 C 
ATOM      6  C   UNL     1     112.926 128.030 138.654  0.00  0.00    +0.000 C 
ATOM      7  C   UNL     1     113.227 127.403 137.158  0.00  0.00    +0.000 C 
ATOM      8  C   UNL     1     112.925 128.167 137.231  0.00  0.00    +0.000 C 
ENDROOT
BRANCH   4   9
ATOM      9  O   UNL     1     113.682 126.189 137.757  0.00  0.00    +0.000 OA
BRANCH   9  14
ATOM     10  O   UNL     1     112.380 125.605 137.837  0.00  0.00    +0.000 OA
ATOM     11  O   UNL     1     114.249 124.825 137.023  0.00  0.00    +0.000 OA
ATOM     12  O   UNL     1     113.231 123.559 136.735  0.00  0.00    +0.000 OA
ATOM     13  O   UNL     1     111.646 123.657 137.182  0.00  0.00    +0.000 OA
ATOM     14  C   UNL     1     113.172 125.556 137.613  0.00  0.00    +0.000 C 
ATOM     15  C   UNL     1     113.456 124.873 137.246  0.00  0.00    +0.000 C 
ATOM     16  C   UNL     1     112.948 124.241 137.102  0.00  0.00    +0.000 C 
ATOM     17  C   UNL     1     112.155 124.289 137.325  0.00  0.00    +0.000 C 
ATOM     18  C   UNL     1     111.871 124.971 137.693  0.00  0.00    +0.000 C 
ATOM     19  C   UNL     1     111.078 125.021 137.916  0.00  0.00    +0.000 C 
ENDBRANCH   9  14
ENDBRANCH   4   9
BRANCH   8  20
ATOM     20  O   UNL     1     112.772 128.618 136.557  0.00  0.00    +0.000 OA
BRANCH  20  24
ATOM     21  O   UNL     1     111.674 130.499 136.425  0.00  0.00    +0.000 OA
ATOM     22  O   UNL     1     111.226 128.095 136.801  0.00  0.00    +0.000 OA
ATOM     23  O   UNL     1     109.812 128.348 136.926  0.00  0.00    +0.000 OA
ATOM     24  C   UNL     1     112.149 129.158 136.554  0.00  0.00    +0.000 A 
ATOM     25  C   UNL     1     112.298 129.959 136.428  0.00  0.00    +0.000 A 
ATOM     26  C   UNL     1     111.376 128.896 136.676  0.00  0.00    +0.000 A 
ATOM     27  C   UNL     1     110.752 129.436 136.673  0.00  0.00    +0.000 A 
ATOM     28  C   UNL     1     110.901 130.238 136.547  0.00  0.00    +0.000 A 
ATOM     29  C   UNL     1     110.260 130.811 136.542  0.00  0.00    +0.000 A 
ATOM     30  C   UNL     1     109.952 129.151 136.801  0.00  0.00    +0.000 A 
ATOM     31  C   UNL     1     109.453 130.544 136.668  0.00  0.00    +0.000 A 
ATOM     32  C   UNL     1     109.298 129.710 136.799  0.00  0.00    +0.000 A 
BRANCH  25  34
ATOM     33  O   UNL     1     115.389 131.006 135.939  0.00  0.00    +0.000 OA
ATOM     34  C   UNL     1     113.070 130.221 136.306  0.00  0.00    +0.000 A 
ATOM     35  C   UNL     1     113.457 130.047 135.599  0.00  0.00    +0.000 A 
ATOM     36  C   UNL     1     113.456 130.656 136.891  0.00  0.00    +0.000 A 
ATOM     37  C   UNL     1     114.231 130.308 135.476  0.00  0.00    +0.000 A 
ATOM     38  C   UNL     1     114.228 130.918 136.769  0.00  0.00    +0.000 A 
ATOM     39  C   UNL     1     114.616 130.744 136.061  0.00  0.00    +0.000 A 
ENDBRANCH  25  34
BRANCH  31  40
ATOM     40  O   UNL     1     108.832 131.086 136.665  0.00  0.00    +0.000 OA
ATOM     41  C   UNL     1     108.077 130.847 136.431  0.00  0.00    +0.000 C 
ENDBRANCH  31  40
BRANCH  29  42
ATOM     42  C   UNL     1     110.419 131.610 136.416  0.00  0.00    +0.000 C 
BRANCH  42  43
ATOM     43  C   UNL     1     110.361 132.146 137.040  0.00  0.00    +0.000 C 
ATOM     44  C   UNL     1     110.528 132.944 136.916  0.00  0.00    +0.000 C 
ATOM     45  C   UNL     1     110.469 133.479 137.541  0.00  0.00    +0.000 C 
ATOM     46  C   UNL     1     110.754 133.206 136.167  0.00  0.00    +0.000 C 
ENDBRANCH  42  43
ENDBRANCH  29  42
ENDBRANCH  20  24
ENDBRANCH   8  20
BRANCH   6  47
ATOM     47  C   UNL     1     112.776 128.344 139.402  0.00  0.00    +0.000 C 
BRANCH  47  48
ATOM     48  O   UNL     1     113.128 129.054 139.630  0.00  0.00    +0.000 OA
BRANCH  48  54
ATOM     49  O   UNL     1     112.355 129.123 140.879  0.00  0.00    +0.000 OA
ATOM     50  O   UNL     1     113.312 130.940 141.465  0.00  0.00    +0.000 OA
ATOM     51  O   UNL     1     113.811 130.574 140.300  0.00  0.00    +0.000 OA
ATOM     52  C   UNL     1     112.863 130.253 141.376  0.00  0.00    +0.000 C 
ATOM     53  C   UNL     1     113.231 130.105 140.653  0.00  0.00    +0.000 C 
ATOM     54  C   UNL     1     112.918 129.408 140.345  0.00  0.00    +0.000 C 
ATOM     55  C   UNL     1     112.322 129.646 141.516  0.00  0.00    +0.000 C 
BRANCH  52  57
ATOM     56  O   UNL     1     112.694 131.426 142.175  0.00  0.00    +0.000 OA
ATOM     57  C   UNL     1     112.652 130.606 142.092  0.00  0.00    +0.000 C 
ENDBRANCH  52  57
ENDBRANCH  48  54
ENDBRANCH  47  48
ENDBRANCH   6  47
TORSDOF 12
ENDMDL
