MODEL 1
REMARK VINA RESULT:     -11.4      0.000      0.000
REMARK  Name = 44257920
REMARK  4 active torsions:
REMARK  status: ('A' for Active; 'I' for Inactive)
REMARK    1  A    between atoms: O_2  and  C_20
REMARK    2  A    between atoms: O_2  and  C_21
REMARK    3  A    between atoms: C_19  and  C_24
REMARK    4  A    between atoms: C_34  and  C_35
REMARK                            x       y       z     vdW  Elec       q    Type
REMARK                         _______ _______ _______ _____ _____    ______ ____
ROOT
ATOM      1  O   UNL     1     106.352 124.442 141.088  0.00  0.00    +0.000 OA
ATOM      2  O   UNL     1     105.076 126.996 140.966  0.00  0.00    +0.000 OA
ATOM      3  O   UNL     1     104.168 124.875 139.240  0.00  0.00    +0.000 OA
ATOM      4  O   UNL     1     105.927 123.354 140.241  0.00  0.00    +0.000 OA
ATOM      5  C   UNL     1     105.714 125.719 141.027  0.00  0.00    +0.000 A 
ATOM      6  C   UNL     1     105.780 124.940 140.764  0.00  0.00    +0.000 A 
ATOM      7  C   UNL     1     105.142 126.216 140.703  0.00  0.00    +0.000 A 
ATOM      8  C   UNL     1     105.274 124.658 140.177  0.00  0.00    +0.000 A 
ATOM      9  C   UNL     1     104.635 125.936 140.115  0.00  0.00    +0.000 A 
ATOM     10  C   UNL     1     104.701 125.156 139.852  0.00  0.00    +0.000 A 
ATOM     11  C   UNL     1     105.352 123.845 139.911  0.00  0.00    +0.000 A 
ATOM     12  C   UNL     1     104.827 123.546 139.300  0.00  0.00    +0.000 A 
ATOM     13  C   UNL     1     104.231 124.064 138.962  0.00  0.00    +0.000 A 
ENDROOT
BRANCH   5  21
ATOM     14  O   UNL     1     106.910 126.403 141.407  0.00  0.00    +0.000 OA
ATOM     15  O   UNL     1     106.359 126.039 143.793  0.00  0.00    +0.000 OA
ATOM     16  O   UNL     1     105.347 125.476 142.617  0.00  0.00    +0.000 OA
ATOM     17  O   UNL     1     107.738 126.845 143.378  0.00  0.00    +0.000 OA
ATOM     18  C   UNL     1     106.542 126.161 142.998  0.00  0.00    +0.000 C 
ATOM     19  C   UNL     1     106.037 125.879 142.409  0.00  0.00    +0.000 C 
ATOM     20  C   UNL     1     107.232 126.564 142.790  0.00  0.00    +0.000 C 
ATOM     21  C   UNL     1     106.221 126.001 141.614  0.00  0.00    +0.000 C 
ATOM     22  C   UNL     1     107.416 126.685 141.995  0.00  0.00    +0.000 C 
BRANCH  22  23
ATOM     23  O   UNL     1     108.105 127.088 141.788  0.00  0.00    +0.000 OA
BRANCH  23  28
ATOM     24  O   UNL     1     108.918 125.972 141.421  0.00  0.00    +0.000 OA
ATOM     25  O   UNL     1     108.659 127.921 140.476  0.00  0.00    +0.000 OA
ATOM     26  O   UNL     1     109.749 127.221 139.454  0.00  0.00    +0.000 OA
ATOM     27  O   UNL     1     110.285 125.688 139.744  0.00  0.00    +0.000 OA
ATOM     28  C   UNL     1     108.650 126.738 141.276  0.00  0.00    +0.000 C 
ATOM     29  C   UNL     1     108.927 127.154 140.621  0.00  0.00    +0.000 C 
ATOM     30  C   UNL     1     109.471 126.805 140.110  0.00  0.00    +0.000 C 
ATOM     31  C   UNL     1     109.740 126.038 140.255  0.00  0.00    +0.000 C 
ATOM     32  C   UNL     1     109.463 125.621 140.911  0.00  0.00    +0.000 C 
ENDBRANCH  23  28
ENDBRANCH  22  23
ENDBRANCH   5  21
BRANCH  13  35
ATOM     33  O   UNL     1     101.585 123.499 138.042  0.00  0.00    +0.000 OA
ATOM     34  O   UNL     1     102.199 122.952 136.612  0.00  0.00    +0.000 OA
ATOM     35  C   UNL     1     103.723 123.786 138.374  0.00  0.00    +0.000 A 
ATOM     36  C   UNL     1     102.908 123.782 138.502  0.00  0.00    +0.000 A 
ATOM     37  C   UNL     1     104.030 123.513 137.659  0.00  0.00    +0.000 A 
ATOM     38  C   UNL     1     102.400 123.504 137.914  0.00  0.00    +0.000 A 
ATOM     39  C   UNL     1     103.523 123.235 137.072  0.00  0.00    +0.000 A 
ATOM     40  C   UNL     1     102.708 123.230 137.199  0.00  0.00    +0.000 A 
ENDBRANCH  13  35
TORSDOF 4
ENDMDL
MODEL 2
REMARK VINA RESULT:     -11.0      7.524     10.445
REMARK  Name = 44257920
REMARK  4 active torsions:
REMARK  status: ('A' for Active; 'I' for Inactive)
REMARK    1  A    between atoms: O_2  and  C_20
REMARK    2  A    between atoms: O_2  and  C_21
REMARK    3  A    between atoms: C_19  and  C_24
REMARK    4  A    between atoms: C_34  and  C_35
REMARK                            x       y       z     vdW  Elec       q    Type
REMARK                         _______ _______ _______ _____ _____    ______ ____
ROOT
ATOM      1  O   UNL     1     111.653 132.522 142.681  0.00  0.00    +0.000 OA
ATOM      2  O   UNL     1     111.228 129.753 143.246  0.00  0.00    +0.000 OA
ATOM      3  O   UNL     1     111.912 131.548 145.394  0.00  0.00    +0.000 OA
ATOM      4  O   UNL     1     111.998 133.454 143.729  0.00  0.00    +0.000 OA
ATOM      5  C   UNL     1     111.441 131.139 142.964  0.00  0.00    +0.000 A 
ATOM      6  C   UNL     1     111.625 131.900 143.222  0.00  0.00    +0.000 A 
ATOM      7  C   UNL     1     111.412 130.516 143.504  0.00  0.00    +0.000 A 
ATOM      8  C   UNL     1     111.780 132.039 144.020  0.00  0.00    +0.000 A 
ATOM      9  C   UNL     1     111.567 130.654 144.302  0.00  0.00    +0.000 A 
ATOM     10  C   UNL     1     111.752 131.416 144.560  0.00  0.00    +0.000 A 
ATOM     11  C   UNL     1     111.971 132.837 144.276  0.00  0.00    +0.000 A 
ATOM     12  C   UNL     1     112.134 132.988 145.106  0.00  0.00    +0.000 A 
ATOM     13  C   UNL     1     112.104 132.339 145.669  0.00  0.00    +0.000 A 
ENDROOT
BRANCH   5  21
ATOM     14  O   UNL     1     111.907 130.880 141.638  0.00  0.00    +0.000 OA
ATOM     15  O   UNL     1     109.570 130.819 140.827  0.00  0.00    +0.000 OA
ATOM     16  O   UNL     1     109.882 131.098 142.423  0.00  0.00    +0.000 OA
ATOM     17  O   UNL     1     110.815 130.580 139.772  0.00  0.00    +0.000 OA
ATOM     18  C   UNL     1     110.349 130.839 141.097  0.00  0.00    +0.000 C 
ATOM     19  C   UNL     1     110.506 130.979 141.895  0.00  0.00    +0.000 C 
ATOM     20  C   UNL     1     110.972 130.720 140.569  0.00  0.00    +0.000 C 
ATOM     21  C   UNL     1     111.285 130.999 142.165  0.00  0.00    +0.000 C 
ATOM     22  C   UNL     1     111.752 130.740 140.840  0.00  0.00    +0.000 C 
BRANCH  22  23
ATOM     23  O   UNL     1     112.374 130.621 140.312  0.00  0.00    +0.000 OA
BRANCH  23  28
ATOM     24  O   UNL     1     112.680 129.255 140.599  0.00  0.00    +0.000 OA
ATOM     25  O   UNL     1     113.984 130.981 140.314  0.00  0.00    +0.000 OA
ATOM     26  O   UNL     1     115.095 129.795 140.602  0.00  0.00    +0.000 OA
ATOM     27  O   UNL     1     114.595 128.248 140.888  0.00  0.00    +0.000 OA
ATOM     28  C   UNL     1     112.930 130.028 140.456  0.00  0.00    +0.000 C 
ATOM     29  C   UNL     1     113.734 130.208 140.457  0.00  0.00    +0.000 C 
ATOM     30  C   UNL     1     114.289 129.615 140.601  0.00  0.00    +0.000 C 
ATOM     31  C   UNL     1     114.039 128.842 140.744  0.00  0.00    +0.000 C 
ATOM     32  C   UNL     1     113.234 128.661 140.743  0.00  0.00    +0.000 C 
ENDBRANCH  23  28
ENDBRANCH  22  23
ENDBRANCH   5  21
BRANCH  13  35
ATOM     33  O   UNL     1     111.342 133.466 148.183  0.00  0.00    +0.000 OA
ATOM     34  O   UNL     1     112.725 132.880 148.865  0.00  0.00    +0.000 OA
ATOM     35  C   UNL     1     112.259 132.475 146.468  0.00  0.00    +0.000 A 
ATOM     36  C   UNL     1     111.722 132.903 146.926  0.00  0.00    +0.000 A 
ATOM     37  C   UNL     1     112.951 132.182 146.809  0.00  0.00    +0.000 A 
ATOM     38  C   UNL     1     111.878 133.038 147.724  0.00  0.00    +0.000 A 
ATOM     39  C   UNL     1     113.106 132.317 147.607  0.00  0.00    +0.000 A 
ATOM     40  C   UNL     1     112.570 132.745 148.065  0.00  0.00    +0.000 A 
ENDBRANCH  13  35
TORSDOF 4
ENDMDL
MODEL 3
REMARK VINA RESULT:     -10.9      1.317      3.169
REMARK  Name = 44257920
REMARK  4 active torsions:
REMARK  status: ('A' for Active; 'I' for Inactive)
REMARK    1  A    between atoms: O_2  and  C_20
REMARK    2  A    between atoms: O_2  and  C_21
REMARK    3  A    between atoms: C_19  and  C_24
REMARK    4  A    between atoms: C_34  and  C_35
REMARK                            x       y       z     vdW  Elec       q    Type
REMARK                         _______ _______ _______ _____ _____    ______ ____
ROOT
ATOM      1  O   UNL     1     106.425 124.749 141.548  0.00  0.00    +0.000 OA
ATOM      2  O   UNL     1     105.194 127.308 141.220  0.00  0.00    +0.000 OA
ATOM      3  O   UNL     1     104.358 125.111 139.554  0.00  0.00    +0.000 OA
ATOM      4  O   UNL     1     106.034 123.623 140.733  0.00  0.00    +0.000 OA
ATOM      5  C   UNL     1     105.810 126.028 141.384  0.00  0.00    +0.000 A 
ATOM      6  C   UNL     1     105.879 125.236 141.165  0.00  0.00    +0.000 A 
ATOM      7  C   UNL     1     105.264 126.515 141.001  0.00  0.00    +0.000 A 
ATOM      8  C   UNL     1     105.404 124.930 140.564  0.00  0.00    +0.000 A 
ATOM      9  C   UNL     1     104.789 126.210 140.400  0.00  0.00    +0.000 A 
ATOM     10  C   UNL     1     104.859 125.417 140.181  0.00  0.00    +0.000 A 
ATOM     11  C   UNL     1     105.487 124.103 140.346  0.00  0.00    +0.000 A 
ATOM     12  C   UNL     1     104.994 123.779 139.720  0.00  0.00    +0.000 A 
ATOM     13  C   UNL     1     104.426 124.286 139.322  0.00  0.00    +0.000 A 
ENDROOT
BRANCH   5  21
ATOM     14  O   UNL     1     106.005 126.359 142.760  0.00  0.00    +0.000 OA
ATOM     15  O   UNL     1     108.272 127.202 142.235  0.00  0.00    +0.000 OA
ATOM     16  O   UNL     1     107.321 126.590 141.034  0.00  0.00    +0.000 OA
ATOM     17  O   UNL     1     107.712 127.253 143.786  0.00  0.00    +0.000 OA
ATOM     18  C   UNL     1     107.516 126.921 142.410  0.00  0.00    +0.000 C 
ATOM     19  C   UNL     1     107.040 126.615 141.810  0.00  0.00    +0.000 C 
ATOM     20  C   UNL     1     107.236 126.946 143.186  0.00  0.00    +0.000 C 
ATOM     21  C   UNL     1     106.285 126.334 141.985  0.00  0.00    +0.000 C 
ATOM     22  C   UNL     1     106.480 126.665 143.361  0.00  0.00    +0.000 C 
BRANCH  22  23
ATOM     23  O   UNL     1     106.200 126.690 144.136  0.00  0.00    +0.000 OA
BRANCH  23  28
ATOM     24  O   UNL     1     106.414 125.307 144.423  0.00  0.00    +0.000 OA
ATOM     25  O   UNL     1     104.844 126.674 145.077  0.00  0.00    +0.000 OA
ATOM     26  O   UNL     1     104.381 125.283 145.833  0.00  0.00    +0.000 OA
ATOM     27  O   UNL     1     105.274 123.908 145.649  0.00  0.00    +0.000 OA
ATOM     28  C   UNL     1     105.968 125.995 144.515  0.00  0.00    +0.000 C 
ATOM     29  C   UNL     1     105.291 125.987 144.985  0.00  0.00    +0.000 C 
ATOM     30  C   UNL     1     105.059 125.292 145.363  0.00  0.00    +0.000 C 
ATOM     31  C   UNL     1     105.505 124.604 145.271  0.00  0.00    +0.000 C 
ATOM     32  C   UNL     1     106.183 124.611 144.801  0.00  0.00    +0.000 C 
ENDBRANCH  23  28
ENDBRANCH  22  23
ENDBRANCH   5  21
BRANCH  13  35
ATOM     33  O   UNL     1     101.832 123.672 138.291  0.00  0.00    +0.000 OA
ATOM     34  O   UNL     1     102.520 123.077 136.914  0.00  0.00    +0.000 OA
ATOM     35  C   UNL     1     103.949 123.983 138.720  0.00  0.00    +0.000 A 
ATOM     36  C   UNL     1     103.129 123.979 138.807  0.00  0.00    +0.000 A 
ATOM     37  C   UNL     1     104.294 123.686 138.031  0.00  0.00    +0.000 A 
ATOM     38  C   UNL     1     102.653 123.677 138.205  0.00  0.00    +0.000 A 
ATOM     39  C   UNL     1     103.818 123.384 137.430  0.00  0.00    +0.000 A 
ATOM     40  C   UNL     1     102.997 123.379 137.516  0.00  0.00    +0.000 A 
ENDBRANCH  13  35
TORSDOF 4
ENDMDL
MODEL 4
REMARK VINA RESULT:     -10.9      6.055      8.080
REMARK  Name = 44257920
REMARK  4 active torsions:
REMARK  status: ('A' for Active; 'I' for Inactive)
REMARK    1  A    between atoms: O_2  and  C_20
REMARK    2  A    between atoms: O_2  and  C_21
REMARK    3  A    between atoms: C_19  and  C_24
REMARK    4  A    between atoms: C_34  and  C_35
REMARK                            x       y       z     vdW  Elec       q    Type
REMARK                         _______ _______ _______ _____ _____    ______ ____
ROOT
ATOM      1  O   UNL     1     111.210 129.294 136.238  0.00  0.00    +0.000 OA
ATOM      2  O   UNL     1     109.346 127.923 137.916  0.00  0.00    +0.000 OA
ATOM      3  O   UNL     1     111.911 126.728 137.377  0.00  0.00    +0.000 OA
ATOM      4  O   UNL     1     112.505 128.730 135.944  0.00  0.00    +0.000 OA
ATOM      5  C   UNL     1     110.278 128.609 137.077  0.00  0.00    +0.000 A 
ATOM      6  C   UNL     1     111.014 128.643 136.706  0.00  0.00    +0.000 A 
ATOM      7  C   UNL     1     110.082 127.958 137.544  0.00  0.00    +0.000 A 
ATOM      8  C   UNL     1     111.554 128.027 136.801  0.00  0.00    +0.000 A 
ATOM      9  C   UNL     1     110.622 127.341 137.640  0.00  0.00    +0.000 A 
ATOM     10  C   UNL     1     111.358 127.376 137.269  0.00  0.00    +0.000 A 
ATOM     11  C   UNL     1     112.317 128.075 136.410  0.00  0.00    +0.000 A 
ATOM     12  C   UNL     1     112.884 127.436 136.506  0.00  0.00    +0.000 A 
ATOM     13  C   UNL     1     112.680 126.758 136.992  0.00  0.00    +0.000 A 
ENDROOT
BRANCH   5  21
ATOM     14  O   UNL     1     109.795 129.901 137.449  0.00  0.00    +0.000 OA
ATOM     15  O   UNL     1     108.000 129.718 135.755  0.00  0.00    +0.000 OA
ATOM     16  O   UNL     1     109.081 128.487 135.948  0.00  0.00    +0.000 OA
ATOM     17  O   UNL     1     108.116 131.072 136.692  0.00  0.00    +0.000 OA
ATOM     18  C   UNL     1     108.598 129.779 136.320  0.00  0.00    +0.000 C 
ATOM     19  C   UNL     1     109.139 129.164 136.417  0.00  0.00    +0.000 C 
ATOM     20  C   UNL     1     108.656 130.456 136.789  0.00  0.00    +0.000 C 
ATOM     21  C   UNL     1     109.738 129.225 136.981  0.00  0.00    +0.000 C 
ATOM     22  C   UNL     1     109.255 130.517 137.353  0.00  0.00    +0.000 C 
BRANCH  22  23
ATOM     23  O   UNL     1     109.313 131.194 137.821  0.00  0.00    +0.000 OA
BRANCH  23  28
ATOM     24  O   UNL     1     108.733 130.699 139.030  0.00  0.00    +0.000 OA
ATOM     25  O   UNL     1     110.512 131.918 138.694  0.00  0.00    +0.000 OA
ATOM     26  O   UNL     1     110.530 131.785 140.338  0.00  0.00    +0.000 OA
ATOM     27  O   UNL     1     109.350 130.928 141.110  0.00  0.00    +0.000 OA
ATOM     28  C   UNL     1     109.323 131.128 138.644  0.00  0.00    +0.000 C 
ATOM     29  C   UNL     1     109.922 131.489 139.080  0.00  0.00    +0.000 C 
ATOM     30  C   UNL     1     109.931 131.423 139.901  0.00  0.00    +0.000 C 
ATOM     31  C   UNL     1     109.341 130.995 140.287  0.00  0.00    +0.000 C 
ATOM     32  C   UNL     1     108.742 130.633 139.852  0.00  0.00    +0.000 C 
ENDBRANCH  23  28
ENDBRANCH  22  23
ENDBRANCH   5  21
BRANCH  13  35
ATOM     33  O   UNL     1     114.828 125.551 138.441  0.00  0.00    +0.000 OA
ATOM     34  O   UNL     1     114.829 124.285 137.384  0.00  0.00    +0.000 OA
ATOM     35  C   UNL     1     113.218 126.139 137.090  0.00  0.00    +0.000 A 
ATOM     36  C   UNL     1     113.754 126.155 137.717  0.00  0.00    +0.000 A 
ATOM     37  C   UNL     1     113.218 125.506 136.562  0.00  0.00    +0.000 A 
ATOM     38  C   UNL     1     114.291 125.537 137.815  0.00  0.00    +0.000 A 
ATOM     39  C   UNL     1     113.755 124.889 136.659  0.00  0.00    +0.000 A 
ATOM     40  C   UNL     1     114.291 124.903 137.286  0.00  0.00    +0.000 A 
ENDBRANCH  13  35
TORSDOF 4
ENDMDL
MODEL 5
REMARK VINA RESULT:     -10.9      4.376      7.447
REMARK  Name = 44257920
REMARK  4 active torsions:
REMARK  status: ('A' for Active; 'I' for Inactive)
REMARK    1  A    between atoms: O_2  and  C_20
REMARK    2  A    between atoms: O_2  and  C_21
REMARK    3  A    between atoms: C_19  and  C_24
REMARK    4  A    between atoms: C_34  and  C_35
REMARK                            x       y       z     vdW  Elec       q    Type
REMARK                         _______ _______ _______ _____ _____    ______ ____
ROOT
ATOM      1  O   UNL     1     106.313 124.834 145.763  0.00  0.00    +0.000 OA
ATOM      2  O   UNL     1     106.685 127.148 147.399  0.00  0.00    +0.000 OA
ATOM      3  O   UNL     1     106.191 127.472 144.579  0.00  0.00    +0.000 OA
ATOM      4  O   UNL     1     106.063 124.954 144.347  0.00  0.00    +0.000 OA
ATOM      5  C   UNL     1     106.499 125.991 146.581  0.00  0.00    +0.000 A 
ATOM      6  C   UNL     1     106.355 125.654 145.842  0.00  0.00    +0.000 A 
ATOM      7  C   UNL     1     106.541 126.811 146.659  0.00  0.00    +0.000 A 
ATOM      8  C   UNL     1     106.253 126.137 145.181  0.00  0.00    +0.000 A 
ATOM      9  C   UNL     1     106.439 127.295 145.999  0.00  0.00    +0.000 A 
ATOM     10  C   UNL     1     106.295 126.958 145.259  0.00  0.00    +0.000 A 
ATOM     11  C   UNL     1     106.104 125.775 144.417  0.00  0.00    +0.000 A 
ATOM     12  C   UNL     1     105.997 126.273 143.724  0.00  0.00    +0.000 A 
ATOM     13  C   UNL     1     106.041 127.127 143.806  0.00  0.00    +0.000 A 
ENDROOT
BRANCH   5  21
ATOM     14  O   UNL     1     105.944 125.194 147.630  0.00  0.00    +0.000 OA
ATOM     15  O   UNL     1     108.224 124.687 148.450  0.00  0.00    +0.000 OA
ATOM     16  O   UNL     1     108.018 125.652 147.127  0.00  0.00    +0.000 OA
ATOM     17  O   UNL     1     106.909 124.059 149.225  0.00  0.00    +0.000 OA
ATOM     18  C   UNL     1     107.464 124.856 148.176  0.00  0.00    +0.000 C 
ATOM     19  C   UNL     1     107.361 125.338 147.515  0.00  0.00    +0.000 C 
ATOM     20  C   UNL     1     106.806 124.542 148.564  0.00  0.00    +0.000 C 
ATOM     21  C   UNL     1     106.601 125.508 147.242  0.00  0.00    +0.000 C 
ATOM     22  C   UNL     1     106.046 124.711 148.291  0.00  0.00    +0.000 C 
BRANCH  22  23
ATOM     23  O   UNL     1     105.390 124.398 148.678  0.00  0.00    +0.000 OA
BRANCH  23  28
ATOM     24  O   UNL     1     104.928 125.555 149.377  0.00  0.00    +0.000 OA
ATOM     25  O   UNL     1     103.842 124.063 148.213  0.00  0.00    +0.000 OA
ATOM     26  O   UNL     1     102.608 125.054 148.680  0.00  0.00    +0.000 OA
ATOM     27  O   UNL     1     102.921 126.379 149.612  0.00  0.00    +0.000 OA
ATOM     28  C   UNL     1     104.772 124.893 148.912  0.00  0.00    +0.000 C 
ATOM     29  C   UNL     1     103.999 124.726 148.679  0.00  0.00    +0.000 C 
ATOM     30  C   UNL     1     103.382 125.220 148.912  0.00  0.00    +0.000 C 
ATOM     31  C   UNL     1     103.538 125.883 149.378  0.00  0.00    +0.000 C 
ATOM     32  C   UNL     1     104.312 126.051 149.611  0.00  0.00    +0.000 C 
ENDBRANCH  23  28
ENDBRANCH  22  23
ENDBRANCH   5  21
BRANCH  13  35
ATOM     33  O   UNL     1     107.140 128.533 141.574  0.00  0.00    +0.000 OA
ATOM     34  O   UNL     1     105.634 129.073 141.172  0.00  0.00    +0.000 OA
ATOM     35  C   UNL     1     105.939 127.614 143.147  0.00  0.00    +0.000 A 
ATOM     36  C   UNL     1     106.591 127.830 142.690  0.00  0.00    +0.000 A 
ATOM     37  C   UNL     1     105.186 127.883 142.946  0.00  0.00    +0.000 A 
ATOM     38  C   UNL     1     106.489 128.317 142.032  0.00  0.00    +0.000 A 
ATOM     39  C   UNL     1     105.084 128.369 142.289  0.00  0.00    +0.000 A 
ATOM     40  C   UNL     1     105.736 128.586 141.831  0.00  0.00    +0.000 A 
ENDBRANCH  13  35
TORSDOF 4
ENDMDL
MODEL 6
REMARK VINA RESULT:     -10.9      6.791      8.498
REMARK  Name = 44257920
REMARK  4 active torsions:
REMARK  status: ('A' for Active; 'I' for Inactive)
REMARK    1  A    between atoms: O_2  and  C_20
REMARK    2  A    between atoms: O_2  and  C_21
REMARK    3  A    between atoms: C_19  and  C_24
REMARK    4  A    between atoms: C_34  and  C_35
REMARK                            x       y       z     vdW  Elec       q    Type
REMARK                         _______ _______ _______ _____ _____    ______ ____
ROOT
ATOM      1  O   UNL     1     114.180 128.331 140.969  0.00  0.00    +0.000 OA
ATOM      2  O   UNL     1     112.933 130.125 139.127  0.00  0.00    +0.000 OA
ATOM      3  O   UNL     1     113.164 127.334 138.451  0.00  0.00    +0.000 OA
ATOM      4  O   UNL     1     114.315 126.926 140.668  0.00  0.00    +0.000 OA
ATOM      5  C   UNL     1     113.557 129.228 140.048  0.00  0.00    +0.000 A 
ATOM      6  C   UNL     1     113.805 128.467 140.247  0.00  0.00    +0.000 A 
ATOM      7  C   UNL     1     113.181 129.363 139.327  0.00  0.00    +0.000 A 
ATOM      8  C   UNL     1     113.678 127.841 139.725  0.00  0.00    +0.000 A 
ATOM      9  C   UNL     1     113.054 128.738 138.804  0.00  0.00    +0.000 A 
ATOM     10  C   UNL     1     113.302 127.977 139.003  0.00  0.00    +0.000 A 
ATOM     11  C   UNL     1     113.941 127.053 139.944  0.00  0.00    +0.000 A 
ATOM     12  C   UNL     1     113.811 126.397 139.404  0.00  0.00    +0.000 A 
ATOM     13  C   UNL     1     113.420 126.538 138.652  0.00  0.00    +0.000 A 
ENDROOT
BRANCH   5  21
ATOM     14  O   UNL     1     113.172 129.972 141.206  0.00  0.00    +0.000 OA
ATOM     15  O   UNL     1     115.093 131.496 140.865  0.00  0.00    +0.000 OA
ATOM     16  O   UNL     1     114.837 130.243 139.821  0.00  0.00    +0.000 OA
ATOM     17  O   UNL     1     114.068 131.732 142.136  0.00  0.00    +0.000 OA
ATOM     18  C   UNL     1     114.452 130.988 140.978  0.00  0.00    +0.000 C 
ATOM     19  C   UNL     1     114.324 130.362 140.457  0.00  0.00    +0.000 C 
ATOM     20  C   UNL     1     113.939 131.106 141.614  0.00  0.00    +0.000 C 
ATOM     21  C   UNL     1     113.684 129.854 140.571  0.00  0.00    +0.000 C 
ATOM     22  C   UNL     1     113.299 130.598 141.728  0.00  0.00    +0.000 C 
BRANCH  22  23
ATOM     23  O   UNL     1     112.787 130.717 142.363  0.00  0.00    +0.000 OA
BRANCH  23  28
ATOM     24  O   UNL     1     111.673 131.282 141.669  0.00  0.00    +0.000 OA
ATOM     25  O   UNL     1     111.759 129.767 143.238  0.00  0.00    +0.000 OA
ATOM     26  O   UNL     1     110.132 129.858 142.981  0.00  0.00    +0.000 OA
ATOM     27  O   UNL     1     109.532 130.899 141.849  0.00  0.00    +0.000 OA
ATOM     28  C   UNL     1     111.973 130.762 142.235  0.00  0.00    +0.000 C 
ATOM     29  C   UNL     1     111.460 130.288 142.672  0.00  0.00    +0.000 C 
ATOM     30  C   UNL     1     110.647 130.333 142.544  0.00  0.00    +0.000 C 
ATOM     31  C   UNL     1     110.347 130.853 141.978  0.00  0.00    +0.000 C 
ATOM     32  C   UNL     1     110.860 131.328 141.540  0.00  0.00    +0.000 C 
ENDBRANCH  23  28
ENDBRANCH  22  23
ENDBRANCH   5  21
BRANCH  13  35
ATOM     33  O   UNL     1     111.663 124.616 137.476  0.00  0.00    +0.000 OA
ATOM     34  O   UNL     1     112.905 124.046 136.552  0.00  0.00    +0.000 OA
ATOM     35  C   UNL     1     113.291 125.915 138.127  0.00  0.00    +0.000 A 
ATOM     36  C   UNL     1     112.541 125.577 138.064  0.00  0.00    +0.000 A 
ATOM     37  C   UNL     1     113.912 125.630 137.665  0.00  0.00    +0.000 A 
ATOM     38  C   UNL     1     112.412 124.954 137.539  0.00  0.00    +0.000 A 
ATOM     39  C   UNL     1     113.784 125.008 137.140  0.00  0.00    +0.000 A 
ATOM     40  C   UNL     1     113.034 124.669 137.077  0.00  0.00    +0.000 A 
ENDBRANCH  13  35
TORSDOF 4
ENDMDL
MODEL 7
REMARK VINA RESULT:     -10.9      5.698      7.399
REMARK  Name = 44257920
REMARK  4 active torsions:
REMARK  status: ('A' for Active; 'I' for Inactive)
REMARK    1  A    between atoms: O_2  and  C_20
REMARK    2  A    between atoms: O_2  and  C_21
REMARK    3  A    between atoms: C_19  and  C_24
REMARK    4  A    between atoms: C_34  and  C_35
REMARK                            x       y       z     vdW  Elec       q    Type
REMARK                         _______ _______ _______ _____ _____    ______ ____
ROOT
ATOM      1  O   UNL     1     108.942 128.319 137.498  0.00  0.00    +0.000 OA
ATOM      2  O   UNL     1     110.657 129.703 135.678  0.00  0.00    +0.000 OA
ATOM      3  O   UNL     1     111.259 126.979 136.398  0.00  0.00    +0.000 OA
ATOM      4  O   UNL     1     109.209 126.954 137.884  0.00  0.00    +0.000 OA
ATOM      5  C   UNL     1     109.799 129.011 136.589  0.00  0.00    +0.000 A 
ATOM      6  C   UNL     1     109.609 128.330 137.013  0.00  0.00    +0.000 A 
ATOM      7  C   UNL     1     110.466 129.022 136.104  0.00  0.00    +0.000 A 
ATOM      8  C   UNL     1     110.087 127.659 136.954  0.00  0.00    +0.000 A 
ATOM      9  C   UNL     1     110.944 128.352 136.044  0.00  0.00    +0.000 A 
ATOM     10  C   UNL     1     110.754 127.671 136.469  0.00  0.00    +0.000 A 
ATOM     11  C   UNL     1     109.878 126.957 137.401  0.00  0.00    +0.000 A 
ATOM     12  C   UNL     1     110.372 126.255 137.343  0.00  0.00    +0.000 A 
ATOM     13  C   UNL     1     111.067 126.267 136.839  0.00  0.00    +0.000 A 
ENDROOT
BRANCH   5  21
ATOM     14  O   UNL     1     109.500 130.267 137.200  0.00  0.00    +0.000 OA
ATOM     15  O   UNL     1     107.533 130.519 135.719  0.00  0.00    +0.000 OA
ATOM     16  O   UNL     1     108.488 129.179 135.601  0.00  0.00    +0.000 OA
ATOM     17  O   UNL     1     107.889 131.692 136.824  0.00  0.00    +0.000 OA
ATOM     18  C   UNL     1     108.189 130.435 136.212  0.00  0.00    +0.000 C 
ATOM     19  C   UNL     1     108.666 129.765 136.154  0.00  0.00    +0.000 C 
ATOM     20  C   UNL     1     108.367 131.022 136.766  0.00  0.00    +0.000 C 
ATOM     21  C   UNL     1     109.322 129.681 136.648  0.00  0.00    +0.000 C 
ATOM     22  C   UNL     1     109.022 130.938 137.259  0.00  0.00    +0.000 C 
BRANCH  22  23
ATOM     23  O   UNL     1     109.200 131.523 137.812  0.00  0.00    +0.000 OA
BRANCH  23  28
ATOM     24  O   UNL     1     108.683 130.899 138.988  0.00  0.00    +0.000 OA
ATOM     25  O   UNL     1     110.539 131.995 138.652  0.00  0.00    +0.000 OA
ATOM     26  O   UNL     1     110.691 131.607 140.248  0.00  0.00    +0.000 OA
ATOM     27  O   UNL     1     109.503 130.746 141.004  0.00  0.00    +0.000 OA
ATOM     28  C   UNL     1     109.276 131.329 138.610  0.00  0.00    +0.000 C 
ATOM     29  C   UNL     1     109.946 131.565 139.030  0.00  0.00    +0.000 C 
ATOM     30  C   UNL     1     110.021 131.371 139.827  0.00  0.00    +0.000 C 
ATOM     31  C   UNL     1     109.428 130.941 140.206  0.00  0.00    +0.000 C 
ATOM     32  C   UNL     1     108.758 130.705 139.786  0.00  0.00    +0.000 C 
ENDBRANCH  23  28
ENDBRANCH  22  23
ENDBRANCH   5  21
BRANCH  13  35
ATOM     33  O   UNL     1     113.452 124.857 137.540  0.00  0.00    +0.000 OA
ATOM     34  O   UNL     1     112.985 123.593 136.589  0.00  0.00    +0.000 OA
ATOM     35  C   UNL     1     111.547 125.598 136.776  0.00  0.00    +0.000 A 
ATOM     36  C   UNL     1     112.260 125.562 137.190  0.00  0.00    +0.000 A 
ATOM     37  C   UNL     1     111.313 124.966 136.301  0.00  0.00    +0.000 A 
ATOM     38  C   UNL     1     112.739 124.894 137.127  0.00  0.00    +0.000 A 
ATOM     39  C   UNL     1     111.792 124.298 136.238  0.00  0.00    +0.000 A 
ATOM     40  C   UNL     1     112.505 124.262 136.651  0.00  0.00    +0.000 A 
ENDBRANCH  13  35
TORSDOF 4
ENDMDL
MODEL 8
REMARK VINA RESULT:     -10.8      6.782      8.461
REMARK  Name = 44257920
REMARK  4 active torsions:
REMARK  status: ('A' for Active; 'I' for Inactive)
REMARK    1  A    between atoms: O_2  and  C_20
REMARK    2  A    between atoms: O_2  and  C_21
REMARK    3  A    between atoms: C_19  and  C_24
REMARK    4  A    between atoms: C_34  and  C_35
REMARK                            x       y       z     vdW  Elec       q    Type
REMARK                         _______ _______ _______ _____ _____    ______ ____
ROOT
ATOM      1  O   UNL     1     111.314 129.380 138.037  0.00  0.00    +0.000 OA
ATOM      2  O   UNL     1     111.441 129.982 135.246  0.00  0.00    +0.000 OA
ATOM      3  O   UNL     1     111.694 127.247 136.119  0.00  0.00    +0.000 OA
ATOM      4  O   UNL     1     111.436 128.024 138.515  0.00  0.00    +0.000 OA
ATOM      5  C   UNL     1     111.377 129.681 136.642  0.00  0.00    +0.000 A 
ATOM      6  C   UNL     1     111.398 129.130 137.255  0.00  0.00    +0.000 A 
ATOM      7  C   UNL     1     111.461 129.430 135.861  0.00  0.00    +0.000 A 
ATOM      8  C   UNL     1     111.501 128.329 137.088  0.00  0.00    +0.000 A 
ATOM      9  C   UNL     1     111.565 128.630 135.692  0.00  0.00    +0.000 A 
ATOM     10  C   UNL     1     111.585 128.078 136.306  0.00  0.00    +0.000 A 
ATOM     11  C   UNL     1     111.521 127.765 137.736  0.00  0.00    +0.000 A 
ATOM     12  C   UNL     1     111.629 126.929 137.568  0.00  0.00    +0.000 A 
ATOM     13  C   UNL     1     111.716 126.668 136.754  0.00  0.00    +0.000 A 
ENDROOT
BRANCH   5  21
ATOM     14  O   UNL     1     110.514 130.791 136.894  0.00  0.00    +0.000 OA
ATOM     15  O   UNL     1     112.486 132.267 137.142  0.00  0.00    +0.000 OA
ATOM     16  O   UNL     1     112.692 130.664 136.807  0.00  0.00    +0.000 OA
ATOM     17  O   UNL     1     110.965 132.886 137.311  0.00  0.00    +0.000 OA
ATOM     18  C   UNL     1     111.828 131.775 137.059  0.00  0.00    +0.000 C 
ATOM     19  C   UNL     1     111.931 130.974 136.892  0.00  0.00    +0.000 C 
ATOM     20  C   UNL     1     111.068 132.084 137.144  0.00  0.00    +0.000 C 
ATOM     21  C   UNL     1     111.274 130.482 136.810  0.00  0.00    +0.000 C 
ATOM     22  C   UNL     1     110.411 131.593 137.062  0.00  0.00    +0.000 C 
BRANCH  22  23
ATOM     23  O   UNL     1     109.651 131.902 137.146  0.00  0.00    +0.000 OA
BRANCH  23  28
ATOM     24  O   UNL     1     109.348 132.172 135.776  0.00  0.00    +0.000 OA
ATOM     25  O   UNL     1     108.142 131.267 137.354  0.00  0.00    +0.000 OA
ATOM     26  O   UNL     1     107.086 131.219 136.087  0.00  0.00    +0.000 OA
ATOM     27  O   UNL     1     107.538 131.807 134.614  0.00  0.00    +0.000 OA
ATOM     28  C   UNL     1     109.122 131.878 136.513  0.00  0.00    +0.000 C 
ATOM     29  C   UNL     1     108.368 131.561 136.617  0.00  0.00    +0.000 C 
ATOM     30  C   UNL     1     107.840 131.537 135.984  0.00  0.00    +0.000 C 
ATOM     31  C   UNL     1     108.066 131.831 135.247  0.00  0.00    +0.000 C 
ATOM     32  C   UNL     1     108.820 132.149 135.143  0.00  0.00    +0.000 C 
ENDBRANCH  23  28
ENDBRANCH  22  23
ENDBRANCH   5  21
BRANCH  13  35
ATOM     33  O   UNL     1     113.418 124.382 136.543  0.00  0.00    +0.000 OA
ATOM     34  O   UNL     1     112.130 123.467 136.067  0.00  0.00    +0.000 OA
ATOM     35  C   UNL     1     111.820 125.868 136.582  0.00  0.00    +0.000 A 
ATOM     36  C   UNL     1     112.567 125.525 136.648  0.00  0.00    +0.000 A 
ATOM     37  C   UNL     1     111.175 125.410 136.344  0.00  0.00    +0.000 A 
ATOM     38  C   UNL     1     112.670 124.725 136.477  0.00  0.00    +0.000 A 
ATOM     39  C   UNL     1     111.279 124.611 136.173  0.00  0.00    +0.000 A 
ATOM     40  C   UNL     1     112.026 124.268 136.239  0.00  0.00    +0.000 A 
ENDBRANCH  13  35
TORSDOF 4
ENDMDL
MODEL 9
REMARK VINA RESULT:     -10.8      6.771      8.564
REMARK  Name = 44257920
REMARK  4 active torsions:
REMARK  status: ('A' for Active; 'I' for Inactive)
REMARK    1  A    between atoms: O_2  and  C_20
REMARK    2  A    between atoms: O_2  and  C_21
REMARK    3  A    between atoms: C_19  and  C_24
REMARK    4  A    between atoms: C_34  and  C_35
REMARK                            x       y       z     vdW  Elec       q    Type
REMARK                         _______ _______ _______ _____ _____    ______ ____
ROOT
ATOM      1  O   UNL     1     112.011 129.753 136.861  0.00  0.00    +0.000 OA
ATOM      2  O   UNL     1     111.603 128.006 134.636  0.00  0.00    +0.000 OA
ATOM      3  O   UNL     1     109.722 130.132 135.131  0.00  0.00    +0.000 OA
ATOM      4  O   UNL     1     111.092 130.830 137.143  0.00  0.00    +0.000 OA
ATOM      5  C   UNL     1     111.807 128.880 135.749  0.00  0.00    +0.000 A 
ATOM      6  C   UNL     1     111.566 129.523 136.205  0.00  0.00    +0.000 A 
ATOM      7  C   UNL     1     111.362 128.650 135.093  0.00  0.00    +0.000 A 
ATOM      8  C   UNL     1     110.881 129.938 136.005  0.00  0.00    +0.000 A 
ATOM      9  C   UNL     1     110.678 129.064 134.893  0.00  0.00    +0.000 A 
ATOM     10  C   UNL     1     110.437 129.709 135.349  0.00  0.00    +0.000 A 
ATOM     11  C   UNL     1     110.642 130.607 136.489  0.00  0.00    +0.000 A 
ATOM     12  C   UNL     1     109.929 131.043 136.286  0.00  0.00    +0.000 A 
ATOM     13  C   UNL     1     109.466 130.804 135.603  0.00  0.00    +0.000 A 
ENDROOT
BRANCH   5  21
ATOM     14  O   UNL     1     112.464 127.872 136.519  0.00  0.00    +0.000 OA
ATOM     15  O   UNL     1     114.604 128.411 135.400  0.00  0.00    +0.000 OA
ATOM     16  O   UNL     1     113.234 129.239 135.003  0.00  0.00    +0.000 OA
ATOM     17  O   UNL     1     114.548 127.222 136.544  0.00  0.00    +0.000 OA
ATOM     18  C   UNL     1     113.891 128.231 135.773  0.00  0.00    +0.000 C 
ATOM     19  C   UNL     1     113.205 128.645 135.575  0.00  0.00    +0.000 C 
ATOM     20  C   UNL     1     113.862 127.636 136.345  0.00  0.00    +0.000 C 
ATOM     21  C   UNL     1     112.492 128.465 135.948  0.00  0.00    +0.000 C 
ATOM     22  C   UNL     1     113.149 127.457 136.718  0.00  0.00    +0.000 C 
BRANCH  22  23
ATOM     23  O   UNL     1     113.120 126.863 137.290  0.00  0.00    +0.000 OA
BRANCH  23  28
ATOM     24  O   UNL     1     112.722 125.776 136.452  0.00  0.00    +0.000 OA
ATOM     25  O   UNL     1     112.080 126.342 138.460  0.00  0.00    +0.000 OA
ATOM     26  O   UNL     1     111.161 124.995 138.206  0.00  0.00    +0.000 OA
ATOM     27  O   UNL     1     111.283 124.169 136.783  0.00  0.00    +0.000 OA
ATOM     28  C   UNL     1     112.661 126.189 137.164  0.00  0.00    +0.000 C 
ATOM     29  C   UNL     1     112.141 125.929 137.748  0.00  0.00    +0.000 C 
ATOM     30  C   UNL     1     111.682 125.256 137.622  0.00  0.00    +0.000 C 
ATOM     31  C   UNL     1     111.743 124.843 136.910  0.00  0.00    +0.000 C 
ATOM     32  C   UNL     1     112.263 125.103 136.325  0.00  0.00    +0.000 C 
ENDBRANCH  23  28
ENDBRANCH  22  23
ENDBRANCH   5  21
BRANCH  13  35
ATOM     33  O   UNL     1     106.673 131.290 135.961  0.00  0.00    +0.000 OA
ATOM     34  O   UNL     1     106.725 132.452 134.791  0.00  0.00    +0.000 OA
ATOM     35  C   UNL     1     108.780 131.216 135.400  0.00  0.00    +0.000 A 
ATOM     36  C   UNL     1     108.069 131.046 135.782  0.00  0.00    +0.000 A 
ATOM     37  C   UNL     1     108.807 131.797 134.815  0.00  0.00    +0.000 A 
ATOM     38  C   UNL     1     107.384 131.459 135.579  0.00  0.00    +0.000 A 
ATOM     39  C   UNL     1     108.123 132.209 134.612  0.00  0.00    +0.000 A 
ATOM     40  C   UNL     1     107.411 132.040 134.994  0.00  0.00    +0.000 A 
ENDBRANCH  13  35
TORSDOF 4
ENDMDL
MODEL 10
REMARK VINA RESULT:     -10.7      6.185      7.725
REMARK  Name = 44257920
REMARK  4 active torsions:
REMARK  status: ('A' for Active; 'I' for Inactive)
REMARK    1  A    between atoms: O_2  and  C_20
REMARK    2  A    between atoms: O_2  and  C_21
REMARK    3  A    between atoms: C_19  and  C_24
REMARK    4  A    between atoms: C_34  and  C_35
REMARK                            x       y       z     vdW  Elec       q    Type
REMARK                         _______ _______ _______ _____ _____    ______ ____
ROOT
ATOM      1  O   UNL     1     111.667 129.895 137.442  0.00  0.00    +0.000 OA
ATOM      2  O   UNL     1     109.064 129.377 138.503  0.00  0.00    +0.000 OA
ATOM      3  O   UNL     1     110.610 127.201 137.419  0.00  0.00    +0.000 OA
ATOM      4  O   UNL     1     112.473 128.832 136.890  0.00  0.00    +0.000 OA
ATOM      5  C   UNL     1     110.366 129.636 137.972  0.00  0.00    +0.000 A 
ATOM      6  C   UNL     1     111.058 129.365 137.615  0.00  0.00    +0.000 A 
ATOM      7  C   UNL     1     109.757 129.106 138.146  0.00  0.00    +0.000 A 
ATOM      8  C   UNL     1     111.143 128.565 137.432  0.00  0.00    +0.000 A 
ATOM      9  C   UNL     1     109.841 128.306 137.962  0.00  0.00    +0.000 A 
ATOM     10  C   UNL     1     110.535 128.036 137.605  0.00  0.00    +0.000 A 
ATOM     11  C   UNL     1     111.869 128.296 137.060  0.00  0.00    +0.000 A 
ATOM     12  C   UNL     1     111.963 127.464 136.866  0.00  0.00    +0.000 A 
ATOM     13  C   UNL     1     111.330 126.913 137.047  0.00  0.00    +0.000 A 
ENDROOT
BRANCH   5  21
ATOM     14  O   UNL     1     110.036 130.969 137.577  0.00  0.00    +0.000 OA
ATOM     15  O   UNL     1     110.518 131.768 139.870  0.00  0.00    +0.000 OA
ATOM     16  O   UNL     1     110.688 130.168 139.500  0.00  0.00    +0.000 OA
ATOM     17  O   UNL     1     110.027 132.834 138.710  0.00  0.00    +0.000 OA
ATOM     18  C   UNL     1     110.357 131.501 139.105  0.00  0.00    +0.000 C 
ATOM     19  C   UNL     1     110.442 130.702 138.920  0.00  0.00    +0.000 C 
ATOM     20  C   UNL     1     110.111 132.035 138.525  0.00  0.00    +0.000 C 
ATOM     21  C   UNL     1     110.281 130.436 138.156  0.00  0.00    +0.000 C 
ATOM     22  C   UNL     1     109.951 131.769 137.761  0.00  0.00    +0.000 C 
BRANCH  22  23
ATOM     23  O   UNL     1     109.705 132.302 137.182  0.00  0.00    +0.000 OA
BRANCH  23  28
ATOM     24  O   UNL     1     108.337 131.902 137.078  0.00  0.00    +0.000 OA
ATOM     25  O   UNL     1     109.794 132.426 135.539  0.00  0.00    +0.000 OA
ATOM     26  O   UNL     1     108.470 132.089 134.614  0.00  0.00    +0.000 OA
ATOM     27  O   UNL     1     107.058 131.627 135.331  0.00  0.00    +0.000 OA
ATOM     28  C   UNL     1     109.044 132.133 136.719  0.00  0.00    +0.000 C 
ATOM     29  C   UNL     1     109.088 132.195 135.898  0.00  0.00    +0.000 C 
ATOM     30  C   UNL     1     108.426 132.027 135.436  0.00  0.00    +0.000 C 
ATOM     31  C   UNL     1     107.720 131.796 135.794  0.00  0.00    +0.000 C 
ATOM     32  C   UNL     1     107.675 131.734 136.616  0.00  0.00    +0.000 C 
ENDBRANCH  23  28
ENDBRANCH  22  23
ENDBRANCH   5  21
BRANCH  13  35
ATOM     33  O   UNL     1     111.743 124.212 137.886  0.00  0.00    +0.000 OA
ATOM     34  O   UNL     1     111.653 123.711 136.317  0.00  0.00    +0.000 OA
ATOM     35  C   UNL     1     111.410 126.112 136.864  0.00  0.00    +0.000 A 
ATOM     36  C   UNL     1     111.536 125.562 137.467  0.00  0.00    +0.000 A 
ATOM     37  C   UNL     1     111.365 125.861 136.079  0.00  0.00    +0.000 A 
ATOM     38  C   UNL     1     111.617 124.762 137.284  0.00  0.00    +0.000 A 
ATOM     39  C   UNL     1     111.446 125.062 135.897  0.00  0.00    +0.000 A 
ATOM     40  C   UNL     1     111.572 124.512 136.499  0.00  0.00    +0.000 A 
ENDBRANCH  13  35
TORSDOF 4
ENDMDL
