MODEL 1
REMARK VINA RESULT:     -10.5      0.000      0.000
REMARK  Name = 44259073
REMARK  13 active torsions:
REMARK  status: ('A' for Active; 'I' for Inactive)
REMARK    1  A    between atoms: O_1  and  C_21
REMARK    2  A    between atoms: O_1  and  C_26
REMARK    3  A    between atoms: O_3  and  C_22
REMARK    4  A    between atoms: O_3  and  C_38
REMARK    5  A    between atoms: O_5  and  C_25
REMARK    6  A    between atoms: O_5  and  C_37
REMARK    7  A    between atoms: O_11  and  C_36
REMARK    8  A    between atoms: O_11  and  C_43
REMARK    9  A    between atoms: O_20  and  C_57
REMARK   10  A    between atoms: C_35  and  C_39
REMARK   11  A    between atoms: C_41  and  C_50
REMARK   12  A    between atoms: C_45  and  C_49
REMARK   13  A    between atoms: C_49  and  C_51
REMARK                            x       y       z     vdW  Elec       q    Type
REMARK                         _______ _______ _______ _____ _____    ______ ____
ROOT
ATOM      1  O   UNL     1     111.434 129.038 137.361  0.00  0.00    +0.000 OA
ATOM      2  O   UNL     1     111.579 128.443 139.759  0.00  0.00    +0.000 OA
ATOM      3  O   UNL     1     111.651 127.038 139.435  0.00  0.00    +0.000 OA
ATOM      4  C   UNL     1     111.471 129.432 138.734  0.00  0.00    +0.000 A 
ATOM      5  C   UNL     1     111.531 128.641 138.960  0.00  0.00    +0.000 A 
ATOM      6  C   UNL     1     111.423 129.631 137.935  0.00  0.00    +0.000 A 
ATOM      7  C   UNL     1     111.541 128.048 138.386  0.00  0.00    +0.000 A 
ATOM      8  C   UNL     1     111.565 126.813 137.209  0.00  0.00    +0.000 A 
ATOM      9  C   UNL     1     111.493 128.247 137.586  0.00  0.00    +0.000 A 
ATOM     10  C   UNL     1     111.504 127.638 136.980  0.00  0.00    +0.000 A 
ATOM     11  C   UNL     1     111.603 127.228 138.634  0.00  0.00    +0.000 A 
ATOM     12  C   UNL     1     111.615 126.605 138.041  0.00  0.00    +0.000 A 
ENDROOT
BRANCH   6  13
ATOM     13  C   UNL     1     111.364 130.422 137.708  0.00  0.00    +0.000 A 
ATOM     14  C   UNL     1     112.017 130.807 137.381  0.00  0.00    +0.000 A 
ATOM     15  C   UNL     1     110.654 130.829 137.809  0.00  0.00    +0.000 A 
ATOM     16  C   UNL     1     111.959 131.598 137.154  0.00  0.00    +0.000 A 
ATOM     17  C   UNL     1     110.595 131.620 137.583  0.00  0.00    +0.000 A 
ATOM     18  C   UNL     1     111.248 132.004 137.255  0.00  0.00    +0.000 A 
BRANCH  18  19
ATOM     19  O   UNL     1     111.190 132.795 137.028  0.00  0.00    +0.000 OA
ATOM     20  C   UNL     1     110.459 133.107 136.803  0.00  0.00    +0.000 C 
ENDBRANCH  18  19
ENDBRANCH   6  13
BRANCH   4  21
ATOM     21  O   UNL     1     111.461 130.025 139.307  0.00  0.00    +0.000 OA
BRANCH  21  28
ATOM     22  O   UNL     1     112.864 129.926 139.556  0.00  0.00    +0.000 OA
ATOM     23  O   UNL     1     111.231 130.610 140.833  0.00  0.00    +0.000 OA
ATOM     24  C   UNL     1     112.635 130.510 141.082  0.00  0.00    +0.000 C 
ATOM     25  C   UNL     1     113.394 130.314 140.826  0.00  0.00    +0.000 C 
ATOM     26  C   UNL     1     111.991 130.414 140.577  0.00  0.00    +0.000 C 
ATOM     27  C   UNL     1     113.509 130.022 140.063  0.00  0.00    +0.000 C 
ATOM     28  C   UNL     1     112.105 130.122 139.814  0.00  0.00    +0.000 C 
ATOM     29  C   UNL     1     114.268 129.826 139.806  0.00  0.00    +0.000 C 
BRANCH  24  30
ATOM     30  O   UNL     1     112.520 130.802 141.845  0.00  0.00    +0.000 OA
BRANCH  30  35
ATOM     31  O   UNL     1     112.272 129.483 142.335  0.00  0.00    +0.000 OA
ATOM     32  O   UNL     1     111.949 131.434 143.258  0.00  0.00    +0.000 OA
ATOM     33  O   UNL     1     111.415 130.431 144.454  0.00  0.00    +0.000 OA
ATOM     34  O   UNL     1     111.452 128.796 144.238  0.00  0.00    +0.000 OA
ATOM     35  C   UNL     1     112.253 130.300 142.444  0.00  0.00    +0.000 C 
ATOM     36  C   UNL     1     111.967 130.616 143.150  0.00  0.00    +0.000 C 
ATOM     37  C   UNL     1     111.700 130.115 143.748  0.00  0.00    +0.000 C 
ATOM     38  C   UNL     1     111.719 129.298 143.640  0.00  0.00    +0.000 C 
ATOM     39  C   UNL     1     112.005 128.982 142.933  0.00  0.00    +0.000 C 
ENDBRANCH  30  35
ENDBRANCH  24  30
BRANCH  25  40
ATOM     40  O   UNL     1     114.038 130.410 141.332  0.00  0.00    +0.000 OA
BRANCH  40  42
ATOM     41  O   UNL     1     114.539 131.736 141.156  0.00  0.00    +0.000 OA
ATOM     42  C   UNL     1     114.652 130.920 141.125  0.00  0.00    +0.000 C 
ATOM     43  C   UNL     1     115.381 130.614 140.887  0.00  0.00    +0.000 C 
ENDBRANCH  40  42
ENDBRANCH  25  40
ENDBRANCH  21  28
ENDBRANCH   4  21
BRANCH   8  44
ATOM     44  O   UNL     1     111.576 126.222 136.633  0.00  0.00    +0.000 OA
BRANCH  44  53
ATOM     45  O   UNL     1     112.907 125.723 136.782  0.00  0.00    +0.000 OA
ATOM     46  O   UNL     1     112.039 123.404 136.756  0.00  0.00    +0.000 OA
ATOM     47  O   UNL     1     113.658 123.678 136.913  0.00  0.00    +0.000 OA
ATOM     48  O   UNL     1     110.998 124.677 136.616  0.00  0.00    +0.000 OA
ATOM     49  C   UNL     1     112.328 124.178 136.764  0.00  0.00    +0.000 C 
ATOM     50  C   UNL     1     113.138 124.314 136.843  0.00  0.00    +0.000 C 
ATOM     51  C   UNL     1     111.808 124.813 136.695  0.00  0.00    +0.000 C 
ATOM     52  C   UNL     1     113.427 125.087 136.852  0.00  0.00    +0.000 C 
ATOM     53  C   UNL     1     112.097 125.586 136.703  0.00  0.00    +0.000 C 
BRANCH  52  55
ATOM     54  O   UNL     1     114.619 125.748 136.420  0.00  0.00    +0.000 OA
ATOM     55  C   UNL     1     114.237 125.223 136.930  0.00  0.00    +0.000 C 
ENDBRANCH  52  55
ENDBRANCH  44  53
ENDBRANCH   8  44
BRANCH  10  56
ATOM     56  C   UNL     1     111.455 127.846 136.183  0.00  0.00    +0.000 C 
BRANCH  56  57
ATOM     57  C   UNL     1     110.725 127.843 135.800  0.00  0.00    +0.000 C 
ATOM     58  C   UNL     1     110.669 128.094 135.016  0.00  0.00    +0.000 C 
ATOM     59  C   UNL     1     109.938 128.091 134.632  0.00  0.00    +0.000 C 
ATOM     60  C   UNL     1     111.343 128.349 134.615  0.00  0.00    +0.000 C 
ENDBRANCH  56  57
ENDBRANCH  10  56
TORSDOF 13
ENDMDL
MODEL 2
REMARK VINA RESULT:      -9.9      1.940      2.514
REMARK  Name = 44259073
REMARK  13 active torsions:
REMARK  status: ('A' for Active; 'I' for Inactive)
REMARK    1  A    between atoms: O_1  and  C_21
REMARK    2  A    between atoms: O_1  and  C_26
REMARK    3  A    between atoms: O_3  and  C_22
REMARK    4  A    between atoms: O_3  and  C_38
REMARK    5  A    between atoms: O_5  and  C_25
REMARK    6  A    between atoms: O_5  and  C_37
REMARK    7  A    between atoms: O_11  and  C_36
REMARK    8  A    between atoms: O_11  and  C_43
REMARK    9  A    between atoms: O_20  and  C_57
REMARK   10  A    between atoms: C_35  and  C_39
REMARK   11  A    between atoms: C_41  and  C_50
REMARK   12  A    between atoms: C_45  and  C_49
REMARK   13  A    between atoms: C_49  and  C_51
REMARK                            x       y       z     vdW  Elec       q    Type
REMARK                         _______ _______ _______ _____ _____    ______ ____
ROOT
ATOM      1  O   UNL     1     111.614 129.410 137.169  0.00  0.00    +0.000 OA
ATOM      2  O   UNL     1     110.417 128.605 139.179  0.00  0.00    +0.000 OA
ATOM      3  O   UNL     1     110.986 127.288 139.025  0.00  0.00    +0.000 OA
ATOM      4  C   UNL     1     110.728 129.655 138.261  0.00  0.00    +0.000 A 
ATOM      5  C   UNL     1     110.816 128.873 138.509  0.00  0.00    +0.000 A 
ATOM      6  C   UNL     1     111.126 129.924 137.591  0.00  0.00    +0.000 A 
ATOM      7  C   UNL     1     111.304 128.360 138.087  0.00  0.00    +0.000 A 
ATOM      8  C   UNL     1     112.311 127.288 137.220  0.00  0.00    +0.000 A 
ATOM      9  C   UNL     1     111.704 128.628 137.416  0.00  0.00    +0.000 A 
ATOM     10  C   UNL     1     112.215 128.103 136.967  0.00  0.00    +0.000 A 
ATOM     11  C   UNL     1     111.388 127.548 138.354  0.00  0.00    +0.000 A 
ATOM     12  C   UNL     1     111.896 127.008 137.918  0.00  0.00    +0.000 A 
ENDROOT
BRANCH   6  13
ATOM     13  C   UNL     1     111.038 130.706 137.343  0.00  0.00    +0.000 A 
ATOM     14  C   UNL     1     111.629 131.258 137.504  0.00  0.00    +0.000 A 
ATOM     15  C   UNL     1     110.360 130.935 136.935  0.00  0.00    +0.000 A 
ATOM     16  C   UNL     1     111.542 132.040 137.256  0.00  0.00    +0.000 A 
ATOM     17  C   UNL     1     110.271 131.717 136.687  0.00  0.00    +0.000 A 
ATOM     18  C   UNL     1     110.862 132.270 136.848  0.00  0.00    +0.000 A 
BRANCH  18  19
ATOM     19  O   UNL     1     110.775 133.052 136.600  0.00  0.00    +0.000 OA
ATOM     20  C   UNL     1     110.458 133.614 137.115  0.00  0.00    +0.000 C 
ENDBRANCH  18  19
ENDBRANCH   6  13
BRANCH   4  21
ATOM     21  O   UNL     1     110.240 130.169 138.684  0.00  0.00    +0.000 OA
BRANCH  21  28
ATOM     22  O   UNL     1     111.150 130.233 139.783  0.00  0.00    +0.000 OA
ATOM     23  O   UNL     1     109.004 130.617 139.681  0.00  0.00    +0.000 OA
ATOM     24  C   UNL     1     109.914 130.681 140.781  0.00  0.00    +0.000 C 
ATOM     25  C   UNL     1     110.679 130.602 141.082  0.00  0.00    +0.000 C 
ATOM     26  C   UNL     1     109.768 130.537 139.982  0.00  0.00    +0.000 C 
ATOM     27  C   UNL     1     111.296 130.378 140.583  0.00  0.00    +0.000 C 
ATOM     28  C   UNL     1     110.386 130.313 139.483  0.00  0.00    +0.000 C 
ATOM     29  C   UNL     1     112.061 130.298 140.883  0.00  0.00    +0.000 C 
BRANCH  24  30
ATOM     30  O   UNL     1     109.297 130.905 141.279  0.00  0.00    +0.000 OA
BRANCH  30  35
ATOM     31  O   UNL     1     108.989 129.536 141.549  0.00  0.00    +0.000 OA
ATOM     32  O   UNL     1     107.863 131.361 141.958  0.00  0.00    +0.000 OA
ATOM     33  O   UNL     1     106.839 130.219 142.567  0.00  0.00    +0.000 OA
ATOM     34  O   UNL     1     107.248 128.622 142.497  0.00  0.00    +0.000 OA
ATOM     35  C   UNL     1     108.784 130.334 141.584  0.00  0.00    +0.000 C 
ATOM     36  C   UNL     1     108.067 130.562 141.923  0.00  0.00    +0.000 C 
ATOM     37  C   UNL     1     107.556 129.992 142.227  0.00  0.00    +0.000 C 
ATOM     38  C   UNL     1     107.760 129.194 142.193  0.00  0.00    +0.000 C 
ATOM     39  C   UNL     1     108.477 128.966 141.853  0.00  0.00    +0.000 C 
ENDBRANCH  30  35
ENDBRANCH  24  30
BRANCH  25  40
ATOM     40  O   UNL     1     110.825 130.746 141.880  0.00  0.00    +0.000 OA
BRANCH  40  42
ATOM     41  O   UNL     1     111.208 132.119 141.797  0.00  0.00    +0.000 OA
ATOM     42  C   UNL     1     111.325 131.362 142.103  0.00  0.00    +0.000 C 
ATOM     43  C   UNL     1     111.942 131.223 142.633  0.00  0.00    +0.000 C 
ENDBRANCH  40  42
ENDBRANCH  25  40
ENDBRANCH  21  28
ENDBRANCH   4  21
BRANCH   8  44
ATOM     44  O   UNL     1     112.800 126.776 136.796  0.00  0.00    +0.000 OA
BRANCH  44  53
ATOM     45  O   UNL     1     111.816 125.883 136.268  0.00  0.00    +0.000 OA
ATOM     46  O   UNL     1     113.260 123.956 136.846  0.00  0.00    +0.000 OA
ATOM     47  O   UNL     1     111.796 123.705 136.126  0.00  0.00    +0.000 OA
ATOM     48  O   UNL     1     113.761 125.492 137.180  0.00  0.00    +0.000 OA
ATOM     49  C   UNL     1     112.779 124.599 136.653  0.00  0.00    +0.000 C 
ATOM     50  C   UNL     1     112.047 124.473 136.294  0.00  0.00    +0.000 C 
ATOM     51  C   UNL     1     113.029 125.366 136.821  0.00  0.00    +0.000 C 
ATOM     52  C   UNL     1     111.566 125.115 136.101  0.00  0.00    +0.000 C 
ATOM     53  C   UNL     1     112.548 126.008 136.628  0.00  0.00    +0.000 C 
BRANCH  52  55
ATOM     54  O   UNL     1     110.579 125.491 135.138  0.00  0.00    +0.000 OA
ATOM     55  C   UNL     1     110.834 124.989 135.742  0.00  0.00    +0.000 C 
ENDBRANCH  52  55
ENDBRANCH  44  53
ENDBRANCH   8  44
BRANCH  10  56
ATOM     56  C   UNL     1     112.610 128.380 136.298  0.00  0.00    +0.000 C 
BRANCH  56  57
ATOM     57  C   UNL     1     113.389 128.643 136.359  0.00  0.00    +0.000 C 
ATOM     58  C   UNL     1     113.770 128.961 135.700  0.00  0.00    +0.000 C 
ATOM     59  C   UNL     1     114.550 129.224 135.760  0.00  0.00    +0.000 C 
ATOM     60  C   UNL     1     113.372 129.015 134.979  0.00  0.00    +0.000 C 
ENDBRANCH  56  57
ENDBRANCH  10  56
TORSDOF 13
ENDMDL
MODEL 3
REMARK VINA RESULT:      -9.7      6.644     10.185
REMARK  Name = 44259073
REMARK  13 active torsions:
REMARK  status: ('A' for Active; 'I' for Inactive)
REMARK    1  A    between atoms: O_1  and  C_21
REMARK    2  A    between atoms: O_1  and  C_26
REMARK    3  A    between atoms: O_3  and  C_22
REMARK    4  A    between atoms: O_3  and  C_38
REMARK    5  A    between atoms: O_5  and  C_25
REMARK    6  A    between atoms: O_5  and  C_37
REMARK    7  A    between atoms: O_11  and  C_36
REMARK    8  A    between atoms: O_11  and  C_43
REMARK    9  A    between atoms: O_20  and  C_57
REMARK   10  A    between atoms: C_35  and  C_39
REMARK   11  A    between atoms: C_41  and  C_50
REMARK   12  A    between atoms: C_45  and  C_49
REMARK   13  A    between atoms: C_49  and  C_51
REMARK                            x       y       z     vdW  Elec       q    Type
REMARK                         _______ _______ _______ _____ _____    ______ ____
ROOT
ATOM      1  O   UNL     1     105.970 127.301 144.423  0.00  0.00    +0.000 OA
ATOM      2  O   UNL     1     106.038 124.979 143.571  0.00  0.00    +0.000 OA
ATOM      3  O   UNL     1     106.482 124.491 144.854  0.00  0.00    +0.000 OA
ATOM      4  C   UNL     1     105.784 126.369 143.357  0.00  0.00    +0.000 A 
ATOM      5  C   UNL     1     106.015 125.753 143.855  0.00  0.00    +0.000 A 
ATOM      6  C   UNL     1     105.762 127.143 143.641  0.00  0.00    +0.000 A 
ATOM      7  C   UNL     1     106.223 125.911 144.637  0.00  0.00    +0.000 A 
ATOM      8  C   UNL     1     106.657 126.227 146.258  0.00  0.00    +0.000 A 
ATOM      9  C   UNL     1     106.201 126.686 144.922  0.00  0.00    +0.000 A 
ATOM     10  C   UNL     1     106.415 126.864 145.734  0.00  0.00    +0.000 A 
ATOM     11  C   UNL     1     106.462 125.262 145.146  0.00  0.00    +0.000 A 
ATOM     12  C   UNL     1     106.680 125.421 145.962  0.00  0.00    +0.000 A 
ENDROOT
BRANCH   6  13
ATOM     13  C   UNL     1     105.531 127.759 143.143  0.00  0.00    +0.000 A 
ATOM     14  C   UNL     1     104.734 127.861 142.956  0.00  0.00    +0.000 A 
ATOM     15  C   UNL     1     106.096 128.273 142.832  0.00  0.00    +0.000 A 
ATOM     16  C   UNL     1     104.502 128.477 142.458  0.00  0.00    +0.000 A 
ATOM     17  C   UNL     1     105.865 128.889 142.335  0.00  0.00    +0.000 A 
ATOM     18  C   UNL     1     105.068 128.991 142.148  0.00  0.00    +0.000 A 
BRANCH  18  19
ATOM     19  O   UNL     1     104.836 129.607 141.650  0.00  0.00    +0.000 OA
ATOM     20  C   UNL     1     104.039 129.701 141.455  0.00  0.00    +0.000 C 
ENDBRANCH  18  19
ENDBRANCH   6  13
BRANCH   4  21
ATOM     21  O   UNL     1     105.576 126.211 142.574  0.00  0.00    +0.000 OA
BRANCH  21  28
ATOM     22  O   UNL     1     106.876 126.179 141.982  0.00  0.00    +0.000 OA
ATOM     23  O   UNL     1     105.156 124.860 141.726  0.00  0.00    +0.000 OA
ATOM     24  C   UNL     1     106.456 124.828 141.133  0.00  0.00    +0.000 C 
ATOM     25  C   UNL     1     107.212 125.149 141.049  0.00  0.00    +0.000 C 
ATOM     26  C   UNL     1     105.912 125.181 141.641  0.00  0.00    +0.000 C 
ATOM     27  C   UNL     1     107.422 125.825 141.473  0.00  0.00    +0.000 C 
ATOM     28  C   UNL     1     106.121 125.857 142.066  0.00  0.00    +0.000 C 
ATOM     29  C   UNL     1     108.176 126.147 141.390  0.00  0.00    +0.000 C 
BRANCH  24  30
ATOM     30  O   UNL     1     106.246 124.152 140.709  0.00  0.00    +0.000 OA
BRANCH  30  35
ATOM     31  O   UNL     1     105.600 124.959 139.721  0.00  0.00    +0.000 OA
ATOM     32  O   UNL     1     105.596 122.797 140.027  0.00  0.00    +0.000 OA
ATOM     33  O   UNL     1     104.625 122.926 138.700  0.00  0.00    +0.000 OA
ATOM     34  O   UNL     1     104.304 124.410 138.053  0.00  0.00    +0.000 OA
ATOM     35  C   UNL     1     105.760 124.217 140.044  0.00  0.00    +0.000 C 
ATOM     36  C   UNL     1     105.435 123.539 139.704  0.00  0.00    +0.000 C 
ATOM     37  C   UNL     1     104.950 123.604 139.040  0.00  0.00    +0.000 C 
ATOM     38  C   UNL     1     104.790 124.345 138.717  0.00  0.00    +0.000 C 
ATOM     39  C   UNL     1     105.115 125.022 139.058  0.00  0.00    +0.000 C 
ENDBRANCH  30  35
ENDBRANCH  24  30
BRANCH  25  40
ATOM     40  O   UNL     1     107.756 124.796 140.541  0.00  0.00    +0.000 OA
BRANCH  40  42
ATOM     41  O   UNL     1     108.530 123.914 141.354  0.00  0.00    +0.000 OA
ATOM     42  C   UNL     1     108.488 124.548 140.828  0.00  0.00    +0.000 C 
ATOM     43  C   UNL     1     109.178 124.933 140.591  0.00  0.00    +0.000 C 
ENDBRANCH  40  42
ENDBRANCH  25  40
ENDBRANCH  21  28
ENDBRANCH   4  21
BRANCH   8  44
ATOM     44  O   UNL     1     106.864 126.388 147.040  0.00  0.00    +0.000 OA
BRANCH  44  53
ATOM     45  O   UNL     1     105.865 125.719 147.813  0.00  0.00    +0.000 OA
ATOM     46  O   UNL     1     107.637 124.553 149.090  0.00  0.00    +0.000 OA
ATOM     47  O   UNL     1     106.048 124.273 149.437  0.00  0.00    +0.000 OA
ATOM     48  O   UNL     1     108.044 125.611 147.891  0.00  0.00    +0.000 OA
ATOM     49  C   UNL     1     107.046 124.942 148.664  0.00  0.00    +0.000 C 
ATOM     50  C   UNL     1     106.252 124.802 148.838  0.00  0.00    +0.000 C 
ATOM     51  C   UNL     1     107.250 125.470 148.065  0.00  0.00    +0.000 C 
ATOM     52  C   UNL     1     105.662 125.190 148.412  0.00  0.00    +0.000 C 
ATOM     53  C   UNL     1     106.660 125.859 147.640  0.00  0.00    +0.000 C 
BRANCH  52  55
ATOM     54  O   UNL     1     104.316 125.660 148.520  0.00  0.00    +0.000 OA
ATOM     55  C   UNL     1     104.867 125.050 148.586  0.00  0.00    +0.000 C 
ENDBRANCH  52  55
ENDBRANCH  44  53
ENDBRANCH   8  44
BRANCH  10  56
ATOM     56  C   UNL     1     106.390 127.641 146.010  0.00  0.00    +0.000 C 
BRANCH  56  57
ATOM     57  C   UNL     1     107.061 128.118 145.961  0.00  0.00    +0.000 C 
ATOM     58  C   UNL     1     107.026 128.905 146.206  0.00  0.00    +0.000 C 
ATOM     59  C   UNL     1     107.697 129.383 146.158  0.00  0.00    +0.000 C 
ATOM     60  C   UNL     1     106.320 129.216 146.500  0.00  0.00    +0.000 C 
ENDBRANCH  56  57
ENDBRANCH  10  56
TORSDOF 13
ENDMDL
MODEL 4
REMARK VINA RESULT:      -9.7      1.198      2.037
REMARK  Name = 44259073
REMARK  13 active torsions:
REMARK  status: ('A' for Active; 'I' for Inactive)
REMARK    1  A    between atoms: O_1  and  C_21
REMARK    2  A    between atoms: O_1  and  C_26
REMARK    3  A    between atoms: O_3  and  C_22
REMARK    4  A    between atoms: O_3  and  C_38
REMARK    5  A    between atoms: O_5  and  C_25
REMARK    6  A    between atoms: O_5  and  C_37
REMARK    7  A    between atoms: O_11  and  C_36
REMARK    8  A    between atoms: O_11  and  C_43
REMARK    9  A    between atoms: O_20  and  C_57
REMARK   10  A    between atoms: C_35  and  C_39
REMARK   11  A    between atoms: C_41  and  C_50
REMARK   12  A    between atoms: C_45  and  C_49
REMARK   13  A    between atoms: C_49  and  C_51
REMARK                            x       y       z     vdW  Elec       q    Type
REMARK                         _______ _______ _______ _____ _____    ______ ____
ROOT
ATOM      1  O   UNL     1     111.517 129.053 137.324  0.00  0.00    +0.000 OA
ATOM      2  O   UNL     1     111.658 128.565 139.746  0.00  0.00    +0.000 OA
ATOM      3  O   UNL     1     111.755 127.149 139.484  0.00  0.00    +0.000 OA
ATOM      4  C   UNL     1     111.540 129.507 138.678  0.00  0.00    +0.000 A 
ATOM      5  C   UNL     1     111.611 128.727 138.939  0.00  0.00    +0.000 A 
ATOM      6  C   UNL     1     111.493 129.670 137.872  0.00  0.00    +0.000 A 
ATOM      7  C   UNL     1     111.634 128.111 138.392  0.00  0.00    +0.000 A 
ATOM      8  C   UNL     1     111.684 126.826 137.269  0.00  0.00    +0.000 A 
ATOM      9  C   UNL     1     111.587 128.273 137.584  0.00  0.00    +0.000 A 
ATOM     10  C   UNL     1     111.611 127.640 137.004  0.00  0.00    +0.000 A 
ATOM     11  C   UNL     1     111.708 127.303 138.675  0.00  0.00    +0.000 A 
ATOM     12  C   UNL     1     111.733 126.656 138.109  0.00  0.00    +0.000 A 
ENDROOT
BRANCH   6  13
ATOM     13  C   UNL     1     111.423 130.450 137.611  0.00  0.00    +0.000 A 
ATOM     14  C   UNL     1     112.089 130.936 137.580  0.00  0.00    +0.000 A 
ATOM     15  C   UNL     1     110.687 130.743 137.381  0.00  0.00    +0.000 A 
ATOM     16  C   UNL     1     112.019 131.715 137.319  0.00  0.00    +0.000 A 
ATOM     17  C   UNL     1     110.617 131.523 137.120  0.00  0.00    +0.000 A 
ATOM     18  C   UNL     1     111.283 132.009 137.089  0.00  0.00    +0.000 A 
BRANCH  18  19
ATOM     19  O   UNL     1     111.213 132.789 136.829  0.00  0.00    +0.000 OA
ATOM     20  C   UNL     1     110.503 133.196 136.933  0.00  0.00    +0.000 C 
ENDBRANCH  18  19
ENDBRANCH   6  13
BRANCH   4  21
ATOM     21  O   UNL     1     111.517 130.124 139.226  0.00  0.00    +0.000 OA
BRANCH  21  28
ATOM     22  O   UNL     1     110.184 129.799 139.626  0.00  0.00    +0.000 OA
ATOM     23  O   UNL     1     111.757 130.905 140.659  0.00  0.00    +0.000 OA
ATOM     24  C   UNL     1     110.424 130.581 141.059  0.00  0.00    +0.000 C 
ATOM     25  C   UNL     1     109.697 130.223 140.902  0.00  0.00    +0.000 C 
ATOM     26  C   UNL     1     111.030 130.548 140.501  0.00  0.00    +0.000 C 
ATOM     27  C   UNL     1     109.577 129.833 140.185  0.00  0.00    +0.000 C 
ATOM     28  C   UNL     1     110.910 130.157 139.785  0.00  0.00    +0.000 C 
ATOM     29  C   UNL     1     108.851 129.475 140.026  0.00  0.00    +0.000 C 
BRANCH  24  30
ATOM     30  O   UNL     1     110.544 130.971 141.776  0.00  0.00    +0.000 OA
BRANCH  30  35
ATOM     31  O   UNL     1     111.055 129.768 142.353  0.00  0.00    +0.000 OA
ATOM     32  O   UNL     1     110.963 131.802 143.138  0.00  0.00    +0.000 OA
ATOM     33  O   UNL     1     111.683 131.014 144.397  0.00  0.00    +0.000 OA
ATOM     34  O   UNL     1     111.984 129.395 144.293  0.00  0.00    +0.000 OA
ATOM     35  C   UNL     1     110.904 130.577 142.406  0.00  0.00    +0.000 C 
ATOM     36  C   UNL     1     111.114 130.993 143.087  0.00  0.00    +0.000 C 
ATOM     37  C   UNL     1     111.473 130.599 143.716  0.00  0.00    +0.000 C 
ATOM     38  C   UNL     1     111.624 129.790 143.664  0.00  0.00    +0.000 C 
ATOM     39  C   UNL     1     111.414 129.374 142.983  0.00  0.00    +0.000 C 
ENDBRANCH  30  35
ENDBRANCH  24  30
BRANCH  25  40
ATOM     40  O   UNL     1     109.091 130.256 141.460  0.00  0.00    +0.000 OA
BRANCH  40  42
ATOM     41  O   UNL     1     108.360 131.365 140.934  0.00  0.00    +0.000 OA
ATOM     42  C   UNL     1     108.372 130.610 141.267  0.00  0.00    +0.000 C 
ATOM     43  C   UNL     1     107.664 130.211 141.408  0.00  0.00    +0.000 C 
ENDBRANCH  40  42
ENDBRANCH  25  40
ENDBRANCH  21  28
ENDBRANCH   4  21
BRANCH   8  44
ATOM     44  O   UNL     1     111.707 126.211 136.719  0.00  0.00    +0.000 OA
BRANCH  44  53
ATOM     45  O   UNL     1     113.050 125.746 136.873  0.00  0.00    +0.000 OA
ATOM     46  O   UNL     1     112.226 123.414 136.995  0.00  0.00    +0.000 OA
ATOM     47  O   UNL     1     113.843 123.726 137.109  0.00  0.00    +0.000 OA
ATOM     48  O   UNL     1     111.159 124.657 136.801  0.00  0.00    +0.000 OA
ATOM     49  C   UNL     1     112.501 124.192 136.955  0.00  0.00    +0.000 C 
ATOM     50  C   UNL     1     113.309 124.347 137.011  0.00  0.00    +0.000 C 
ATOM     51  C   UNL     1     111.967 124.812 136.857  0.00  0.00    +0.000 C 
ATOM     52  C   UNL     1     113.584 125.124 136.971  0.00  0.00    +0.000 C 
ATOM     53  C   UNL     1     112.242 125.589 136.817  0.00  0.00    +0.000 C 
BRANCH  52  55
ATOM     54  O   UNL     1     114.753 125.788 136.487  0.00  0.00    +0.000 OA
ATOM     55  C   UNL     1     114.392 125.279 137.028  0.00  0.00    +0.000 C 
ENDBRANCH  52  55
ENDBRANCH  44  53
ENDBRANCH   8  44
BRANCH  10  56
ATOM     56  C   UNL     1     111.563 127.812 136.199  0.00  0.00    +0.000 C 
BRANCH  56  57
ATOM     57  C   UNL     1     110.841 127.745 135.804  0.00  0.00    +0.000 C 
ATOM     58  C   UNL     1     110.783 127.965 135.012  0.00  0.00    +0.000 C 
ATOM     59  C   UNL     1     110.061 127.899 134.617  0.00  0.00    +0.000 C 
ATOM     60  C   UNL     1     111.445 128.252 134.612  0.00  0.00    +0.000 C 
ENDBRANCH  56  57
ENDBRANCH  10  56
TORSDOF 13
ENDMDL
MODEL 5
REMARK VINA RESULT:      -9.7      1.802      3.043
REMARK  Name = 44259073
REMARK  13 active torsions:
REMARK  status: ('A' for Active; 'I' for Inactive)
REMARK    1  A    between atoms: O_1  and  C_21
REMARK    2  A    between atoms: O_1  and  C_26
REMARK    3  A    between atoms: O_3  and  C_22
REMARK    4  A    between atoms: O_3  and  C_38
REMARK    5  A    between atoms: O_5  and  C_25
REMARK    6  A    between atoms: O_5  and  C_37
REMARK    7  A    between atoms: O_11  and  C_36
REMARK    8  A    between atoms: O_11  and  C_43
REMARK    9  A    between atoms: O_20  and  C_57
REMARK   10  A    between atoms: C_35  and  C_39
REMARK   11  A    between atoms: C_41  and  C_50
REMARK   12  A    between atoms: C_45  and  C_49
REMARK   13  A    between atoms: C_49  and  C_51
REMARK                            x       y       z     vdW  Elec       q    Type
REMARK                         _______ _______ _______ _____ _____    ______ ____
ROOT
ATOM      1  O   UNL     1     112.951 128.297 139.056  0.00  0.00    +0.000 OA
ATOM      2  O   UNL     1     111.718 127.068 140.815  0.00  0.00    +0.000 OA
ATOM      3  O   UNL     1     111.274 126.085 139.858  0.00  0.00    +0.000 OA
ATOM      4  C   UNL     1     112.548 128.162 140.420  0.00  0.00    +0.000 A 
ATOM      5  C   UNL     1     112.129 127.477 140.229  0.00  0.00    +0.000 A 
ATOM      6  C   UNL     1     112.959 128.572 139.834  0.00  0.00    +0.000 A 
ATOM      7  C   UNL     1     112.121 127.202 139.452  0.00  0.00    +0.000 A 
ATOM      8  C   UNL     1     112.098 126.623 137.846  0.00  0.00    +0.000 A 
ATOM      9  C   UNL     1     112.532 127.612 138.865  0.00  0.00    +0.000 A 
ATOM     10  C   UNL     1     112.532 127.336 138.051  0.00  0.00    +0.000 A 
ATOM     11  C   UNL     1     111.682 126.489 139.265  0.00  0.00    +0.000 A 
ATOM     12  C   UNL     1     111.670 126.196 138.456  0.00  0.00    +0.000 A 
ENDROOT
BRANCH   6  13
ATOM     13  C   UNL     1     113.378 129.257 140.025  0.00  0.00    +0.000 A 
ATOM     14  C   UNL     1     114.109 129.200 140.401  0.00  0.00    +0.000 A 
ATOM     15  C   UNL     1     113.066 129.997 139.839  0.00  0.00    +0.000 A 
ATOM     16  C   UNL     1     114.529 129.884 140.592  0.00  0.00    +0.000 A 
ATOM     17  C   UNL     1     113.485 130.682 140.029  0.00  0.00    +0.000 A 
ATOM     18  C   UNL     1     114.216 130.625 140.406  0.00  0.00    +0.000 A 
BRANCH  18  19
ATOM     19  O   UNL     1     114.636 131.309 140.597  0.00  0.00    +0.000 OA
ATOM     20  C   UNL     1     115.369 131.252 140.974  0.00  0.00    +0.000 C 
ENDBRANCH  18  19
ENDBRANCH   6  13
BRANCH   4  21
ATOM     21  O   UNL     1     112.556 128.438 141.198  0.00  0.00    +0.000 OA
BRANCH  21  28
ATOM     22  O   UNL     1     111.193 128.860 141.125  0.00  0.00    +0.000 OA
ATOM     23  O   UNL     1     112.450 128.380 142.843  0.00  0.00    +0.000 OA
ATOM     24  C   UNL     1     111.087 128.803 142.771  0.00  0.00    +0.000 C 
ATOM     25  C   UNL     1     110.431 129.029 142.323  0.00  0.00    +0.000 C 
ATOM     26  C   UNL     1     111.794 128.606 142.396  0.00  0.00    +0.000 C 
ATOM     27  C   UNL     1     110.484 129.057 141.500  0.00  0.00    +0.000 C 
ATOM     28  C   UNL     1     111.847 128.635 141.573  0.00  0.00    +0.000 C 
ATOM     29  C   UNL     1     109.830 129.283 141.052  0.00  0.00    +0.000 C 
BRANCH  24  30
ATOM     30  O   UNL     1     111.034 128.774 143.593  0.00  0.00    +0.000 OA
BRANCH  30  35
ATOM     31  O   UNL     1     111.411 130.148 143.709  0.00  0.00    +0.000 OA
ATOM     32  O   UNL     1     111.425 128.534 145.178  0.00  0.00    +0.000 OA
ATOM     33  O   UNL     1     111.996 129.788 146.086  0.00  0.00    +0.000 OA
ATOM     34  O   UNL     1     112.177 131.282 145.409  0.00  0.00    +0.000 OA
ATOM     35  C   UNL     1     111.320 129.401 144.048  0.00  0.00    +0.000 C 
ATOM     36  C   UNL     1     111.515 129.281 144.840  0.00  0.00    +0.000 C 
ATOM     37  C   UNL     1     111.801 129.908 145.294  0.00  0.00    +0.000 C 
ATOM     38  C   UNL     1     111.892 130.654 144.955  0.00  0.00    +0.000 C 
ATOM     39  C   UNL     1     111.696 130.774 144.163  0.00  0.00    +0.000 C 
ENDBRANCH  30  35
ENDBRANCH  24  30
BRANCH  25  40
ATOM     40  O   UNL     1     109.724 129.226 142.698  0.00  0.00    +0.000 OA
BRANCH  40  42
ATOM     41  O   UNL     1     109.082 127.949 142.683  0.00  0.00    +0.000 OA
ATOM     42  C   UNL     1     109.050 128.767 142.574  0.00  0.00    +0.000 C 
ATOM     43  C   UNL     1     108.344 129.124 142.342  0.00  0.00    +0.000 C 
ENDBRANCH  40  42
ENDBRANCH  25  40
ENDBRANCH  21  28
ENDBRANCH   4  21
BRANCH   8  44
ATOM     44  O   UNL     1     112.092 126.350 137.068  0.00  0.00    +0.000 OA
BRANCH  44  53
ATOM     45  O   UNL     1     112.935 125.201 137.172  0.00  0.00    +0.000 OA
ATOM     46  O   UNL     1     111.280 123.872 135.897  0.00  0.00    +0.000 OA
ATOM     47  O   UNL     1     112.674 123.166 136.427  0.00  0.00    +0.000 OA
ATOM     48  O   UNL     1     110.989 125.465 136.218  0.00  0.00    +0.000 OA
ATOM     49  C   UNL     1     111.832 124.316 136.323  0.00  0.00    +0.000 C 
ATOM     50  C   UNL     1     112.528 123.962 136.587  0.00  0.00    +0.000 C 
ATOM     51  C   UNL     1     111.686 125.111 136.483  0.00  0.00    +0.000 C 
ATOM     52  C   UNL     1     113.080 124.405 137.012  0.00  0.00    +0.000 C 
ATOM     53  C   UNL     1     112.238 125.554 136.908  0.00  0.00    +0.000 C 
BRANCH  52  55
ATOM     54  O   UNL     1     114.477 124.488 137.303  0.00  0.00    +0.000 OA
ATOM     55  C   UNL     1     113.777 124.051 137.277  0.00  0.00    +0.000 C 
ENDBRANCH  52  55
ENDBRANCH  44  53
ENDBRANCH   8  44
BRANCH  10  56
ATOM     56  C   UNL     1     112.945 127.751 137.471  0.00  0.00    +0.000 C 
BRANCH  56  57
ATOM     57  C   UNL     1     112.553 128.302 136.999  0.00  0.00    +0.000 C 
ATOM     58  C   UNL     1     112.967 128.722 136.422  0.00  0.00    +0.000 C 
ATOM     59  C   UNL     1     112.575 129.272 135.950  0.00  0.00    +0.000 C 
ATOM     60  C   UNL     1     113.775 128.592 136.318  0.00  0.00    +0.000 C 
ENDBRANCH  56  57
ENDBRANCH  10  56
TORSDOF 13
ENDMDL
MODEL 6
REMARK VINA RESULT:      -9.6      4.608      6.391
REMARK  Name = 44259073
REMARK  13 active torsions:
REMARK  status: ('A' for Active; 'I' for Inactive)
REMARK    1  A    between atoms: O_1  and  C_21
REMARK    2  A    between atoms: O_1  and  C_26
REMARK    3  A    between atoms: O_3  and  C_22
REMARK    4  A    between atoms: O_3  and  C_38
REMARK    5  A    between atoms: O_5  and  C_25
REMARK    6  A    between atoms: O_5  and  C_37
REMARK    7  A    between atoms: O_11  and  C_36
REMARK    8  A    between atoms: O_11  and  C_43
REMARK    9  A    between atoms: O_20  and  C_57
REMARK   10  A    between atoms: C_35  and  C_39
REMARK   11  A    between atoms: C_41  and  C_50
REMARK   12  A    between atoms: C_45  and  C_49
REMARK   13  A    between atoms: C_49  and  C_51
REMARK                            x       y       z     vdW  Elec       q    Type
REMARK                         _______ _______ _______ _____ _____    ______ ____
ROOT
ATOM      1  O   UNL     1     107.774 127.349 141.758  0.00  0.00    +0.000 OA
ATOM      2  O   UNL     1     109.547 125.700 141.248  0.00  0.00    +0.000 OA
ATOM      3  O   UNL     1     108.577 124.634 141.184  0.00  0.00    +0.000 OA
ATOM      4  C   UNL     1     109.151 127.043 141.531  0.00  0.00    +0.000 A 
ATOM      5  C   UNL     1     108.956 126.249 141.418  0.00  0.00    +0.000 A 
ATOM      6  C   UNL     1     108.560 127.593 141.701  0.00  0.00    +0.000 A 
ATOM      7  C   UNL     1     108.170 126.005 141.474  0.00  0.00    +0.000 A 
ATOM      8  C   UNL     1     106.547 125.489 141.588  0.00  0.00    +0.000 A 
ATOM      9  C   UNL     1     107.578 126.556 141.644  0.00  0.00    +0.000 A 
ATOM     10  C   UNL     1     106.756 126.314 141.705  0.00  0.00    +0.000 A 
ATOM     11  C   UNL     1     107.980 125.177 141.354  0.00  0.00    +0.000 A 
ATOM     12  C   UNL     1     107.162 124.916 141.411  0.00  0.00    +0.000 A 
ENDROOT
BRANCH   6  13
ATOM     13  C   UNL     1     108.755 128.386 141.815  0.00  0.00    +0.000 A 
ATOM     14  C   UNL     1     108.592 128.939 141.225  0.00  0.00    +0.000 A 
ATOM     15  C   UNL     1     109.111 128.628 142.518  0.00  0.00    +0.000 A 
ATOM     16  C   UNL     1     108.786 129.733 141.337  0.00  0.00    +0.000 A 
ATOM     17  C   UNL     1     109.305 129.421 142.632  0.00  0.00    +0.000 A 
ATOM     18  C   UNL     1     109.143 129.974 142.042  0.00  0.00    +0.000 A 
BRANCH  18  19
ATOM     19  O   UNL     1     109.337 130.768 142.154  0.00  0.00    +0.000 OA
ATOM     20  C   UNL     1     109.252 131.111 142.900  0.00  0.00    +0.000 C 
ENDBRANCH  18  19
ENDBRANCH   6  13
BRANCH   4  21
ATOM     21  O   UNL     1     109.937 127.287 141.475  0.00  0.00    +0.000 OA
BRANCH  21  28
ATOM     22  O   UNL     1     109.977 127.158 140.052  0.00  0.00    +0.000 OA
ATOM     23  O   UNL     1     111.559 126.996 141.547  0.00  0.00    +0.000 OA
ATOM     24  C   UNL     1     111.599 126.867 140.124  0.00  0.00    +0.000 C 
ATOM     25  C   UNL     1     111.214 126.876 139.394  0.00  0.00    +0.000 C 
ATOM     26  C   UNL     1     111.174 127.004 140.817  0.00  0.00    +0.000 C 
ATOM     27  C   UNL     1     110.403 127.021 139.359  0.00  0.00    +0.000 C 
ATOM     28  C   UNL     1     110.363 127.150 140.781  0.00  0.00    +0.000 C 
ATOM     29  C   UNL     1     110.017 127.029 138.630  0.00  0.00    +0.000 C 
BRANCH  24  30
ATOM     30  O   UNL     1     112.411 126.722 140.160  0.00  0.00    +0.000 OA
BRANCH  30  35
ATOM     31  O   UNL     1     112.697 128.122 140.137  0.00  0.00    +0.000 OA
ATOM     32  O   UNL     1     113.942 126.418 140.694  0.00  0.00    +0.000 OA
ATOM     33  O   UNL     1     114.994 127.666 140.938  0.00  0.00    +0.000 OA
ATOM     34  O   UNL     1     114.514 129.218 140.647  0.00  0.00    +0.000 OA
ATOM     35  C   UNL     1     112.937 127.347 140.282  0.00  0.00    +0.000 C 
ATOM     36  C   UNL     1     113.703 127.195 140.549  0.00  0.00    +0.000 C 
ATOM     37  C   UNL     1     114.228 127.818 140.671  0.00  0.00    +0.000 C 
ATOM     38  C   UNL     1     113.988 128.594 140.526  0.00  0.00    +0.000 C 
ATOM     39  C   UNL     1     113.223 128.746 140.259  0.00  0.00    +0.000 C 
ENDBRANCH  30  35
ENDBRANCH  24  30
BRANCH  25  40
ATOM     40  O   UNL     1     111.639 126.739 138.702  0.00  0.00    +0.000 OA
BRANCH  40  42
ATOM     41  O   UNL     1     111.474 125.323 138.607  0.00  0.00    +0.000 OA
ATOM     42  C   UNL     1     111.486 126.067 138.249  0.00  0.00    +0.000 C 
ATOM     43  C   UNL     1     111.344 126.137 137.440  0.00  0.00    +0.000 C 
ENDBRANCH  40  42
ENDBRANCH  25  40
ENDBRANCH  21  28
ENDBRANCH   4  21
BRANCH   8  44
ATOM     44  O   UNL     1     105.760 125.248 141.645  0.00  0.00    +0.000 OA
BRANCH  44  53
ATOM     45  O   UNL     1     105.477 124.863 140.298  0.00  0.00    +0.000 OA
ATOM     46  O   UNL     1     104.496 122.741 141.113  0.00  0.00    +0.000 OA
ATOM     47  O   UNL     1     104.540 123.062 139.495  0.00  0.00    +0.000 OA
ATOM     48  O   UNL     1     105.106 123.834 142.188  0.00  0.00    +0.000 OA
ATOM     49  C   UNL     1     104.824 123.449 140.842  0.00  0.00    +0.000 C 
ATOM     50  C   UNL     1     104.845 123.609 140.033  0.00  0.00    +0.000 C 
ATOM     51  C   UNL     1     105.128 123.994 141.379  0.00  0.00    +0.000 C 
ATOM     52  C   UNL     1     105.172 124.316 139.761  0.00  0.00    +0.000 C 
ATOM     53  C   UNL     1     105.455 124.702 141.107  0.00  0.00    +0.000 C 
BRANCH  52  55
ATOM     54  O   UNL     1     104.991 125.227 138.674  0.00  0.00    +0.000 OA
ATOM     55  C   UNL     1     105.194 124.477 138.952  0.00  0.00    +0.000 C 
ENDBRANCH  52  55
ENDBRANCH  44  53
ENDBRANCH   8  44
BRANCH  10  56
ATOM     56  C   UNL     1     106.172 126.871 141.876  0.00  0.00    +0.000 C 
BRANCH  56  57
ATOM     57  C   UNL     1     105.976 127.037 142.660  0.00  0.00    +0.000 C 
ATOM     58  C   UNL     1     105.410 127.611 142.831  0.00  0.00    +0.000 C 
ATOM     59  C   UNL     1     105.214 127.777 143.615  0.00  0.00    +0.000 C 
ATOM     60  C   UNL     1     105.038 128.021 142.219  0.00  0.00    +0.000 C 
ENDBRANCH  56  57
ENDBRANCH  10  56
TORSDOF 13
ENDMDL
MODEL 7
REMARK VINA RESULT:      -9.5      6.858     10.154
REMARK  Name = 44259073
REMARK  13 active torsions:
REMARK  status: ('A' for Active; 'I' for Inactive)
REMARK    1  A    between atoms: O_1  and  C_21
REMARK    2  A    between atoms: O_1  and  C_26
REMARK    3  A    between atoms: O_3  and  C_22
REMARK    4  A    between atoms: O_3  and  C_38
REMARK    5  A    between atoms: O_5  and  C_25
REMARK    6  A    between atoms: O_5  and  C_37
REMARK    7  A    between atoms: O_11  and  C_36
REMARK    8  A    between atoms: O_11  and  C_43
REMARK    9  A    between atoms: O_20  and  C_57
REMARK   10  A    between atoms: C_35  and  C_39
REMARK   11  A    between atoms: C_41  and  C_50
REMARK   12  A    between atoms: C_45  and  C_49
REMARK   13  A    between atoms: C_49  and  C_51
REMARK                            x       y       z     vdW  Elec       q    Type
REMARK                         _______ _______ _______ _____ _____    ______ ____
ROOT
ATOM      1  O   UNL     1     105.032 129.155 144.398  0.00  0.00    +0.000 OA
ATOM      2  O   UNL     1     104.775 127.763 142.368  0.00  0.00    +0.000 OA
ATOM      3  O   UNL     1     103.873 128.726 141.787  0.00  0.00    +0.000 OA
ATOM      4  C   UNL     1     105.349 127.974 143.660  0.00  0.00    +0.000 A 
ATOM      5  C   UNL     1     104.861 128.227 143.045  0.00  0.00    +0.000 A 
ATOM      6  C   UNL     1     105.435 128.438 144.336  0.00  0.00    +0.000 A 
ATOM      7  C   UNL     1     104.458 128.944 143.106  0.00  0.00    +0.000 A 
ATOM      8  C   UNL     1     103.619 130.426 143.222  0.00  0.00    +0.000 A 
ATOM      9  C   UNL     1     104.544 129.409 143.783  0.00  0.00    +0.000 A 
ATOM     10  C   UNL     1     104.129 130.158 143.859  0.00  0.00    +0.000 A 
ATOM     11  C   UNL     1     103.953 129.197 142.460  0.00  0.00    +0.000 A 
ATOM     12  C   UNL     1     103.530 129.943 142.518  0.00  0.00    +0.000 A 
ENDROOT
BRANCH   6  13
ATOM     13  C   UNL     1     105.923 128.185 144.951  0.00  0.00    +0.000 A 
ATOM     14  C   UNL     1     105.671 127.584 145.457  0.00  0.00    +0.000 A 
ATOM     15  C   UNL     1     106.663 128.533 145.061  0.00  0.00    +0.000 A 
ATOM     16  C   UNL     1     106.159 127.331 146.072  0.00  0.00    +0.000 A 
ATOM     17  C   UNL     1     107.151 128.281 145.677  0.00  0.00    +0.000 A 
ATOM     18  C   UNL     1     106.899 127.679 146.182  0.00  0.00    +0.000 A 
BRANCH  18  19
ATOM     19  O   UNL     1     107.386 127.426 146.798  0.00  0.00    +0.000 OA
ATOM     20  C   UNL     1     107.412 126.626 147.000  0.00  0.00    +0.000 C 
ENDBRANCH  18  19
ENDBRANCH   6  13
BRANCH   4  21
ATOM     21  O   UNL     1     105.752 127.257 143.598  0.00  0.00    +0.000 OA
BRANCH  21  28
ATOM     22  O   UNL     1     106.701 127.797 142.676  0.00  0.00    +0.000 OA
ATOM     23  O   UNL     1     106.082 125.737 143.047  0.00  0.00    +0.000 OA
ATOM     24  C   UNL     1     107.031 126.276 142.125  0.00  0.00    +0.000 C 
ATOM     25  C   UNL     1     107.423 126.926 141.802  0.00  0.00    +0.000 C 
ATOM     26  C   UNL     1     106.474 126.386 142.724  0.00  0.00    +0.000 C 
ATOM     27  C   UNL     1     107.258 127.686 142.077  0.00  0.00    +0.000 C 
ATOM     28  C   UNL     1     106.309 127.146 142.999  0.00  0.00    +0.000 C 
ATOM     29  C   UNL     1     107.650 128.336 141.754  0.00  0.00    +0.000 C 
BRANCH  24  30
ATOM     30  O   UNL     1     107.196 125.516 141.850  0.00  0.00    +0.000 OA
BRANCH  30  35
ATOM     31  O   UNL     1     106.119 125.602 140.914  0.00  0.00    +0.000 OA
ATOM     32  O   UNL     1     107.318 123.897 141.561  0.00  0.00    +0.000 OA
ATOM     33  O   UNL     1     106.303 123.172 140.480  0.00  0.00    +0.000 OA
ATOM     34  O   UNL     1     105.165 124.068 139.689  0.00  0.00    +0.000 OA
ATOM     35  C   UNL     1     106.688 125.154 141.309  0.00  0.00    +0.000 C 
ATOM     36  C   UNL     1     106.749 124.344 141.165  0.00  0.00    +0.000 C 
ATOM     37  C   UNL     1     106.242 123.982 140.625  0.00  0.00    +0.000 C 
ATOM     38  C   UNL     1     105.673 124.430 140.230  0.00  0.00    +0.000 C 
ATOM     39  C   UNL     1     105.612 125.239 140.374  0.00  0.00    +0.000 C 
ENDBRANCH  30  35
ENDBRANCH  24  30
BRANCH  25  40
ATOM     40  O   UNL     1     107.980 126.816 141.204  0.00  0.00    +0.000 OA
BRANCH  40  42
ATOM     41  O   UNL     1     109.157 126.725 142.007  0.00  0.00    +0.000 OA
ATOM     42  C   UNL     1     108.770 127.008 141.335  0.00  0.00    +0.000 C 
ATOM     43  C   UNL     1     109.176 127.484 140.796  0.00  0.00    +0.000 C 
ENDBRANCH  40  42
ENDBRANCH  25  40
ENDBRANCH  21  28
ENDBRANCH   4  21
BRANCH   8  44
ATOM     44  O   UNL     1     103.218 131.144 143.287  0.00  0.00    +0.000 OA
BRANCH  44  53
ATOM     45  O   UNL     1     103.872 131.901 142.266  0.00  0.00    +0.000 OA
ATOM     46  O   UNL     1     101.673 132.696 141.450  0.00  0.00    +0.000 OA
ATOM     47  O   UNL     1     103.059 133.188 140.701  0.00  0.00    +0.000 OA
ATOM     48  O   UNL     1     101.753 131.674 142.743  0.00  0.00    +0.000 OA
ATOM     49  C   UNL     1     102.406 132.431 141.722  0.00  0.00    +0.000 C 
ATOM     50  C   UNL     1     103.099 132.677 141.348  0.00  0.00    +0.000 C 
ATOM     51  C   UNL     1     102.446 131.920 142.368  0.00  0.00    +0.000 C 
ATOM     52  C   UNL     1     103.831 132.412 141.619  0.00  0.00    +0.000 C 
ATOM     53  C   UNL     1     103.178 131.655 142.640  0.00  0.00    +0.000 C 
BRANCH  52  55
ATOM     54  O   UNL     1     105.177 132.886 141.694  0.00  0.00    +0.000 OA
ATOM     55  C   UNL     1     104.524 132.658 141.245  0.00  0.00    +0.000 C 
ENDBRANCH  52  55
ENDBRANCH  44  53
ENDBRANCH   8  44
BRANCH  10  56
ATOM     56  C   UNL     1     104.221 130.615 144.539  0.00  0.00    +0.000 C 
BRANCH  56  57
ATOM     57  C   UNL     1     103.677 130.551 145.157  0.00  0.00    +0.000 C 
ATOM     58  C   UNL     1     103.782 130.990 145.847  0.00  0.00    +0.000 C 
ATOM     59  C   UNL     1     103.238 130.926 146.464  0.00  0.00    +0.000 C 
ATOM     60  C   UNL     1     104.431 131.494 145.921  0.00  0.00    +0.000 C 
ENDBRANCH  56  57
ENDBRANCH  10  56
TORSDOF 13
ENDMDL
MODEL 8
REMARK VINA RESULT:      -9.4      2.318      6.541
REMARK  Name = 44259073
REMARK  13 active torsions:
REMARK  status: ('A' for Active; 'I' for Inactive)
REMARK    1  A    between atoms: O_1  and  C_21
REMARK    2  A    between atoms: O_1  and  C_26
REMARK    3  A    between atoms: O_3  and  C_22
REMARK    4  A    between atoms: O_3  and  C_38
REMARK    5  A    between atoms: O_5  and  C_25
REMARK    6  A    between atoms: O_5  and  C_37
REMARK    7  A    between atoms: O_11  and  C_36
REMARK    8  A    between atoms: O_11  and  C_43
REMARK    9  A    between atoms: O_20  and  C_57
REMARK   10  A    between atoms: C_35  and  C_39
REMARK   11  A    between atoms: C_41  and  C_50
REMARK   12  A    between atoms: C_45  and  C_49
REMARK   13  A    between atoms: C_49  and  C_51
REMARK                            x       y       z     vdW  Elec       q    Type
REMARK                         _______ _______ _______ _____ _____    ______ ____
ROOT
ATOM      1  O   UNL     1     111.830 128.613 141.317  0.00  0.00    +0.000 OA
ATOM      2  O   UNL     1     111.369 126.754 139.750  0.00  0.00    +0.000 OA
ATOM      3  O   UNL     1     110.092 126.506 140.373  0.00  0.00    +0.000 OA
ATOM      4  C   UNL     1     112.229 127.796 140.216  0.00  0.00    +0.000 A 
ATOM      5  C   UNL     1     111.523 127.373 140.272  0.00  0.00    +0.000 A 
ATOM      6  C   UNL     1     112.383 128.415 140.738  0.00  0.00    +0.000 A 
ATOM      7  C   UNL     1     110.969 127.571 140.851  0.00  0.00    +0.000 A 
ATOM      8  C   UNL     1     109.817 127.970 142.045  0.00  0.00    +0.000 A 
ATOM      9  C   UNL     1     111.123 128.191 141.374  0.00  0.00    +0.000 A 
ATOM     10  C   UNL     1     110.555 128.406 141.982  0.00  0.00    +0.000 A 
ATOM     11  C   UNL     1     110.238 127.124 140.900  0.00  0.00    +0.000 A 
ATOM     12  C   UNL     1     109.657 127.325 141.501  0.00  0.00    +0.000 A 
ENDROOT
BRANCH   6  13
ATOM     13  C   UNL     1     113.089 128.837 140.682  0.00  0.00    +0.000 A 
ATOM     14  C   UNL     1     113.799 128.485 140.912  0.00  0.00    +0.000 A 
ATOM     15  C   UNL     1     113.087 129.611 140.397  0.00  0.00    +0.000 A 
ATOM     16  C   UNL     1     114.506 128.906 140.856  0.00  0.00    +0.000 A 
ATOM     17  C   UNL     1     113.793 130.033 140.341  0.00  0.00    +0.000 A 
ATOM     18  C   UNL     1     114.503 129.681 140.571  0.00  0.00    +0.000 A 
BRANCH  18  19
ATOM     19  O   UNL     1     115.210 130.102 140.515  0.00  0.00    +0.000 OA
ATOM     20  C   UNL     1     115.211 130.921 140.617  0.00  0.00    +0.000 C 
ENDBRANCH  18  19
ENDBRANCH   6  13
BRANCH   4  21
ATOM     21  O   UNL     1     112.783 127.598 139.637  0.00  0.00    +0.000 OA
BRANCH  21  28
ATOM     22  O   UNL     1     112.026 128.187 138.577  0.00  0.00    +0.000 OA
ATOM     23  O   UNL     1     113.458 126.540 138.567  0.00  0.00    +0.000 OA
ATOM     24  C   UNL     1     112.702 127.128 137.507  0.00  0.00    +0.000 C 
ATOM     25  C   UNL     1     112.155 127.687 137.243  0.00  0.00    +0.000 C 
ATOM     26  C   UNL     1     112.911 127.099 138.303  0.00  0.00    +0.000 C 
ATOM     27  C   UNL     1     111.817 128.217 137.779  0.00  0.00    +0.000 C 
ATOM     28  C   UNL     1     112.573 127.628 138.838  0.00  0.00    +0.000 C 
ATOM     29  C   UNL     1     111.270 128.776 137.517  0.00  0.00    +0.000 C 
BRANCH  24  30
ATOM     30  O   UNL     1     113.040 126.599 136.971  0.00  0.00    +0.000 OA
BRANCH  30  35
ATOM     31  O   UNL     1     112.000 125.645 137.197  0.00  0.00    +0.000 OA
ATOM     32  O   UNL     1     113.985 125.415 136.318  0.00  0.00    +0.000 OA
ATOM     33  O   UNL     1     113.417 123.869 136.217  0.00  0.00    +0.000 OA
ATOM     34  O   UNL     1     111.905 123.507 136.769  0.00  0.00    +0.000 OA
ATOM     35  C   UNL     1     112.756 125.825 136.921  0.00  0.00    +0.000 C 
ATOM     36  C   UNL     1     113.229 125.233 136.594  0.00  0.00    +0.000 C 
ATOM     37  C   UNL     1     112.945 124.461 136.544  0.00  0.00    +0.000 C 
ATOM     38  C   UNL     1     112.190 124.280 136.820  0.00  0.00    +0.000 C 
ATOM     39  C   UNL     1     111.717 124.872 137.146  0.00  0.00    +0.000 C 
ENDBRANCH  30  35
ENDBRANCH  24  30
BRANCH  25  40
ATOM     40  O   UNL     1     111.946 127.717 136.447  0.00  0.00    +0.000 OA
BRANCH  40  42
ATOM     41  O   UNL     1     112.902 128.693 136.029  0.00  0.00    +0.000 OA
ATOM     42  C   UNL     1     112.140 128.378 135.994  0.00  0.00    +0.000 C 
ATOM     43  C   UNL     1     111.573 128.726 135.505  0.00  0.00    +0.000 C 
ENDBRANCH  40  42
ENDBRANCH  25  40
ENDBRANCH  21  28
ENDBRANCH   4  21
BRANCH   8  44
ATOM     44  O   UNL     1     109.265 128.170 142.626  0.00  0.00    +0.000 OA
BRANCH  44  53
ATOM     45  O   UNL     1     108.310 128.958 141.912  0.00  0.00    +0.000 OA
ATOM     46  O   UNL     1     106.483 127.539 142.794  0.00  0.00    +0.000 OA
ATOM     47  O   UNL     1     106.137 128.799 141.786  0.00  0.00    +0.000 OA
ATOM     48  O   UNL     1     108.048 127.225 143.213  0.00  0.00    +0.000 OA
ATOM     49  C   UNL     1     107.093 128.012 142.500  0.00  0.00    +0.000 C 
ATOM     50  C   UNL     1     106.919 128.642 141.996  0.00  0.00    +0.000 C 
ATOM     51  C   UNL     1     107.874 127.855 142.709  0.00  0.00    +0.000 C 
ATOM     52  C   UNL     1     107.528 129.115 141.702  0.00  0.00    +0.000 C 
ATOM     53  C   UNL     1     108.483 128.328 142.415  0.00  0.00    +0.000 C 
BRANCH  52  55
ATOM     54  O   UNL     1     107.777 129.841 140.496  0.00  0.00    +0.000 OA
ATOM     55  C   UNL     1     107.354 129.745 141.198  0.00  0.00    +0.000 C 
ENDBRANCH  52  55
ENDBRANCH  44  53
ENDBRANCH   8  44
BRANCH  10  56
ATOM     56  C   UNL     1     110.716 129.027 142.500  0.00  0.00    +0.000 C 
BRANCH  56  57
ATOM     57  C   UNL     1     111.061 128.873 143.234  0.00  0.00    +0.000 C 
ATOM     58  C   UNL     1     111.259 129.497 143.735  0.00  0.00    +0.000 C 
ATOM     59  C   UNL     1     111.604 129.343 144.469  0.00  0.00    +0.000 C 
ATOM     60  C   UNL     1     111.114 130.275 143.504  0.00  0.00    +0.000 C 
ENDBRANCH  56  57
ENDBRANCH  10  56
TORSDOF 13
ENDMDL
MODEL 9
REMARK VINA RESULT:      -9.4      5.450      9.438
REMARK  Name = 44259073
REMARK  13 active torsions:
REMARK  status: ('A' for Active; 'I' for Inactive)
REMARK    1  A    between atoms: O_1  and  C_21
REMARK    2  A    between atoms: O_1  and  C_26
REMARK    3  A    between atoms: O_3  and  C_22
REMARK    4  A    between atoms: O_3  and  C_38
REMARK    5  A    between atoms: O_5  and  C_25
REMARK    6  A    between atoms: O_5  and  C_37
REMARK    7  A    between atoms: O_11  and  C_36
REMARK    8  A    between atoms: O_11  and  C_43
REMARK    9  A    between atoms: O_20  and  C_57
REMARK   10  A    between atoms: C_35  and  C_39
REMARK   11  A    between atoms: C_41  and  C_50
REMARK   12  A    between atoms: C_45  and  C_49
REMARK   13  A    between atoms: C_49  and  C_51
REMARK                            x       y       z     vdW  Elec       q    Type
REMARK                         _______ _______ _______ _____ _____    ______ ____
ROOT
ATOM      1  O   UNL     1     107.824 130.859 145.686  0.00  0.00    +0.000 OA
ATOM      2  O   UNL     1     108.689 128.561 145.376  0.00  0.00    +0.000 OA
ATOM      3  O   UNL     1     109.976 129.069 144.970  0.00  0.00    +0.000 OA
ATOM      4  C   UNL     1     107.624 129.445 145.731  0.00  0.00    +0.000 A 
ATOM      5  C   UNL     1     108.401 129.326 145.479  0.00  0.00    +0.000 A 
ATOM      6  C   UNL     1     107.336 130.211 145.834  0.00  0.00    +0.000 A 
ATOM      7  C   UNL     1     108.889 129.974 145.331  0.00  0.00    +0.000 A 
ATOM      8  C   UNL     1     109.911 131.307 145.022  0.00  0.00    +0.000 A 
ATOM      9  C   UNL     1     108.601 130.741 145.435  0.00  0.00    +0.000 A 
ATOM     10  C   UNL     1     109.101 131.424 145.284  0.00  0.00    +0.000 A 
ATOM     11  C   UNL     1     109.696 129.838 145.070  0.00  0.00    +0.000 A 
ATOM     12  C   UNL     1     110.211 130.509 144.914  0.00  0.00    +0.000 A 
ENDROOT
BRANCH   6  13
ATOM     13  C   UNL     1     106.559 130.330 146.085  0.00  0.00    +0.000 A 
ATOM     14  C   UNL     1     106.349 130.169 146.867  0.00  0.00    +0.000 A 
ATOM     15  C   UNL     1     105.992 130.608 145.556  0.00  0.00    +0.000 A 
ATOM     16  C   UNL     1     105.573 130.288 147.119  0.00  0.00    +0.000 A 
ATOM     17  C   UNL     1     105.215 130.727 145.807  0.00  0.00    +0.000 A 
ATOM     18  C   UNL     1     105.005 130.567 146.589  0.00  0.00    +0.000 A 
BRANCH  18  19
ATOM     19  O   UNL     1     104.229 130.686 146.841  0.00  0.00    +0.000 OA
ATOM     20  C   UNL     1     103.771 130.042 147.081  0.00  0.00    +0.000 C 
ENDBRANCH  18  19
ENDBRANCH   6  13
BRANCH   4  21
ATOM     21  O   UNL     1     107.135 128.797 145.878  0.00  0.00    +0.000 OA
BRANCH  21  28
ATOM     22  O   UNL     1     106.824 128.544 144.507  0.00  0.00    +0.000 OA
ATOM     23  O   UNL     1     107.050 127.180 146.196  0.00  0.00    +0.000 OA
ATOM     24  C   UNL     1     106.739 126.928 144.824  0.00  0.00    +0.000 C 
ATOM     25  C   UNL     1     106.605 127.205 144.058  0.00  0.00    +0.000 C 
ATOM     26  C   UNL     1     106.916 127.458 145.430  0.00  0.00    +0.000 C 
ATOM     27  C   UNL     1     106.648 128.013 143.900  0.00  0.00    +0.000 C 
ATOM     28  C   UNL     1     106.958 128.266 145.271  0.00  0.00    +0.000 C 
ATOM     29  C   UNL     1     106.514 128.292 143.135  0.00  0.00    +0.000 C 
BRANCH  24  30
ATOM     30  O   UNL     1     106.697 126.119 144.982  0.00  0.00    +0.000 OA
BRANCH  30  35
ATOM     31  O   UNL     1     105.388 126.294 145.529  0.00  0.00    +0.000 OA
ATOM     32  O   UNL     1     106.644 124.516 145.372  0.00  0.00    +0.000 OA
ATOM     33  O   UNL     1     105.310 123.890 146.113  0.00  0.00    +0.000 OA
ATOM     34  O   UNL     1     104.027 124.867 146.465  0.00  0.00    +0.000 OA
ATOM     35  C   UNL     1     106.029 125.806 145.353  0.00  0.00    +0.000 C 
ATOM     36  C   UNL     1     106.003 125.004 145.548  0.00  0.00    +0.000 C 
ATOM     37  C   UNL     1     105.336 124.692 145.918  0.00  0.00    +0.000 C 
ATOM     38  C   UNL     1     104.695 125.179 146.094  0.00  0.00    +0.000 C 
ATOM     39  C   UNL     1     104.721 125.981 145.900  0.00  0.00    +0.000 C 
ENDBRANCH  30  35
ENDBRANCH  24  30
BRANCH  25  40
ATOM     40  O   UNL     1     106.429 126.675 143.452  0.00  0.00    +0.000 OA
BRANCH  40  42
ATOM     41  O   UNL     1     107.734 126.521 142.892  0.00  0.00    +0.000 OA
ATOM     42  C   UNL     1     106.921 126.623 142.793  0.00  0.00    +0.000 C 
ATOM     43  C   UNL     1     106.602 126.674 142.034  0.00  0.00    +0.000 C 
ENDBRANCH  40  42
ENDBRANCH  25  40
ENDBRANCH  21  28
ENDBRANCH   4  21
BRANCH   8  44
ATOM     44  O   UNL     1     110.397 131.956 144.875  0.00  0.00    +0.000 OA
BRANCH  44  53
ATOM     45  O   UNL     1     110.761 131.655 143.526  0.00  0.00    +0.000 OA
ATOM     46  O   UNL     1     113.092 132.337 144.004  0.00  0.00    +0.000 OA
ATOM     47  O   UNL     1     112.679 131.808 142.496  0.00  0.00    +0.000 OA
ATOM     48  O   UNL     1     111.951 132.411 145.193  0.00  0.00    +0.000 OA
ATOM     49  C   UNL     1     112.314 132.110 143.845  0.00  0.00    +0.000 C 
ATOM     50  C   UNL     1     112.108 131.845 143.091  0.00  0.00    +0.000 C 
ATOM     51  C   UNL     1     111.745 132.147 144.439  0.00  0.00    +0.000 C 
ATOM     52  C   UNL     1     111.331 131.618 142.931  0.00  0.00    +0.000 C 
ATOM     53  C   UNL     1     110.968 131.919 144.279  0.00  0.00    +0.000 C 
BRANCH  52  55
ATOM     54  O   UNL     1     110.589 131.784 141.722  0.00  0.00    +0.000 OA
ATOM     55  C   UNL     1     111.125 131.353 142.178  0.00  0.00    +0.000 C 
ENDBRANCH  52  55
ENDBRANCH  44  53
ENDBRANCH   8  44
BRANCH  10  56
ATOM     56  C   UNL     1     108.804 132.186 145.390  0.00  0.00    +0.000 C 
BRANCH  56  57
ATOM     57  C   UNL     1     108.902 132.570 146.113  0.00  0.00    +0.000 C 
ATOM     58  C   UNL     1     108.577 133.319 146.230  0.00  0.00    +0.000 C 
ATOM     59  C   UNL     1     108.675 133.703 146.954  0.00  0.00    +0.000 C 
ATOM     60  C   UNL     1     108.153 133.685 145.624  0.00  0.00    +0.000 C 
ENDBRANCH  56  57
ENDBRANCH  10  56
TORSDOF 13
ENDMDL
MODEL 10
REMARK VINA RESULT:      -9.3      7.461      9.777
REMARK  Name = 44259073
REMARK  13 active torsions:
REMARK  status: ('A' for Active; 'I' for Inactive)
REMARK    1  A    between atoms: O_1  and  C_21
REMARK    2  A    between atoms: O_1  and  C_26
REMARK    3  A    between atoms: O_3  and  C_22
REMARK    4  A    between atoms: O_3  and  C_38
REMARK    5  A    between atoms: O_5  and  C_25
REMARK    6  A    between atoms: O_5  and  C_37
REMARK    7  A    between atoms: O_11  and  C_36
REMARK    8  A    between atoms: O_11  and  C_43
REMARK    9  A    between atoms: O_20  and  C_57
REMARK   10  A    between atoms: C_35  and  C_39
REMARK   11  A    between atoms: C_41  and  C_50
REMARK   12  A    between atoms: C_45  and  C_49
REMARK   13  A    between atoms: C_49  and  C_51
REMARK                            x       y       z     vdW  Elec       q    Type
REMARK                         _______ _______ _______ _____ _____    ______ ____
ROOT
ATOM      1  O   UNL     1     106.267 127.150 143.969  0.00  0.00    +0.000 OA
ATOM      2  O   UNL     1     105.033 125.323 145.092  0.00  0.00    +0.000 OA
ATOM      3  O   UNL     1     105.248 124.447 143.967  0.00  0.00    +0.000 OA
ATOM      4  C   UNL     1     105.537 126.661 145.094  0.00  0.00    +0.000 A 
ATOM      5  C   UNL     1     105.444 125.932 144.718  0.00  0.00    +0.000 A 
ATOM      6  C   UNL     1     105.948 127.270 144.720  0.00  0.00    +0.000 A 
ATOM      7  C   UNL     1     105.763 125.813 143.967  0.00  0.00    +0.000 A 
ATOM      8  C   UNL     1     106.420 125.554 142.412  0.00  0.00    +0.000 A 
ATOM      9  C   UNL     1     106.175 126.422 143.592  0.00  0.00    +0.000 A 
ATOM     10  C   UNL     1     106.512 126.311 142.809  0.00  0.00    +0.000 A 
ATOM     11  C   UNL     1     105.661 125.051 143.585  0.00  0.00    +0.000 A 
ATOM     12  C   UNL     1     105.991 124.920 142.802  0.00  0.00    +0.000 A 
ENDROOT
BRANCH   6  13
ATOM     13  C   UNL     1     106.040 127.998 145.096  0.00  0.00    +0.000 A 
ATOM     14  C   UNL     1     105.418 128.540 145.103  0.00  0.00    +0.000 A 
ATOM     15  C   UNL     1     106.753 128.185 145.464  0.00  0.00    +0.000 A 
ATOM     16  C   UNL     1     105.509 129.269 145.479  0.00  0.00    +0.000 A 
ATOM     17  C   UNL     1     106.846 128.914 145.841  0.00  0.00    +0.000 A 
ATOM     18  C   UNL     1     106.224 129.456 145.848  0.00  0.00    +0.000 A 
BRANCH  18  19
ATOM     19  O   UNL     1     106.315 130.184 146.223  0.00  0.00    +0.000 OA
ATOM     20  C   UNL     1     105.941 130.325 146.946  0.00  0.00    +0.000 C 
ENDBRANCH  18  19
ENDBRANCH   6  13
BRANCH   4  21
ATOM     21  O   UNL     1     105.217 126.780 145.846  0.00  0.00    +0.000 OA
BRANCH  21  28
ATOM     22  O   UNL     1     106.192 125.953 146.483  0.00  0.00    +0.000 OA
ATOM     23  O   UNL     1     104.156 126.474 147.071  0.00  0.00    +0.000 OA
ATOM     24  C   UNL     1     105.131 125.646 147.709  0.00  0.00    +0.000 C 
ATOM     25  C   UNL     1     105.884 125.309 147.722  0.00  0.00    +0.000 C 
ATOM     26  C   UNL     1     104.909 126.136 147.084  0.00  0.00    +0.000 C 
ATOM     27  C   UNL     1     106.415 125.462 147.109  0.00  0.00    +0.000 C 
ATOM     28  C   UNL     1     105.439 126.289 146.471  0.00  0.00    +0.000 C 
ATOM     29  C   UNL     1     107.167 125.125 147.121  0.00  0.00    +0.000 C 
BRANCH  24  30
ATOM     30  O   UNL     1     104.600 125.493 148.322  0.00  0.00    +0.000 OA
BRANCH  30  35
ATOM     31  O   UNL     1     104.014 124.429 147.569  0.00  0.00    +0.000 OA
ATOM     32  O   UNL     1     103.361 125.409 149.407  0.00  0.00    +0.000 OA
ATOM     33  O   UNL     1     102.155 124.302 149.198  0.00  0.00    +0.000 OA
ATOM     34  O   UNL     1     102.188 123.280 147.902  0.00  0.00    +0.000 OA
ATOM     35  C   UNL     1     103.997 124.940 148.217  0.00  0.00    +0.000 C 
ATOM     36  C   UNL     1     103.377 124.897 148.760  0.00  0.00    +0.000 C 
ATOM     37  C   UNL     1     102.775 124.344 148.655  0.00  0.00    +0.000 C 
ATOM     38  C   UNL     1     102.791 123.834 148.008  0.00  0.00    +0.000 C 
ATOM     39  C   UNL     1     103.411 123.876 147.465  0.00  0.00    +0.000 C 
ENDBRANCH  30  35
ENDBRANCH  24  30
BRANCH  25  40
ATOM     40  O   UNL     1     106.106 124.819 148.347  0.00  0.00    +0.000 OA
BRANCH  40  42
ATOM     41  O   UNL     1     106.699 125.782 149.219  0.00  0.00    +0.000 OA
ATOM     42  C   UNL     1     106.719 125.044 148.850  0.00  0.00    +0.000 C 
ATOM     43  C   UNL     1     107.352 124.533 148.985  0.00  0.00    +0.000 C 
ENDBRANCH  40  42
ENDBRANCH  25  40
ENDBRANCH  21  28
ENDBRANCH   4  21
BRANCH   8  44
ATOM     44  O   UNL     1     106.740 125.438 141.661  0.00  0.00    +0.000 OA
BRANCH  44  53
ATOM     45  O   UNL     1     105.646 125.280 140.755  0.00  0.00    +0.000 OA
ATOM     46  O   UNL     1     106.488 123.037 140.131  0.00  0.00    +0.000 OA
ATOM     47  O   UNL     1     105.114 123.627 139.433  0.00  0.00    +0.000 OA
ATOM     48  O   UNL     1     107.300 123.943 141.245  0.00  0.00    +0.000 OA
ATOM     49  C   UNL     1     106.207 123.785 140.340  0.00  0.00    +0.000 C 
ATOM     50  C   UNL     1     105.520 124.080 139.990  0.00  0.00    +0.000 C 
ATOM     51  C   UNL     1     106.614 124.238 140.896  0.00  0.00    +0.000 C 
ATOM     52  C   UNL     1     105.240 124.827 140.198  0.00  0.00    +0.000 C 
ATOM     53  C   UNL     1     106.333 124.985 141.104  0.00  0.00    +0.000 C 
BRANCH  52  55
ATOM     54  O   UNL     1     104.513 125.914 139.620  0.00  0.00    +0.000 OA
ATOM     55  C   UNL     1     104.553 125.122 139.849  0.00  0.00    +0.000 C 
ENDBRANCH  52  55
ENDBRANCH  44  53
ENDBRANCH   8  44
BRANCH  10  56
ATOM     56  C   UNL     1     106.922 126.925 142.442  0.00  0.00    +0.000 C 
BRANCH  56  57
ATOM     57  C   UNL     1     107.747 126.936 142.454  0.00  0.00    +0.000 C 
ATOM     58  C   UNL     1     108.156 127.564 142.110  0.00  0.00    +0.000 C 
ATOM     59  C   UNL     1     108.981 127.575 142.121  0.00  0.00    +0.000 C 
ATOM     60  C   UNL     1     107.741 128.182 141.754  0.00  0.00    +0.000 C 
ENDBRANCH  56  57
ENDBRANCH  10  56
TORSDOF 13
ENDMDL
