MODEL 1
REMARK VINA RESULT:      -8.8      0.000      0.000
REMARK  Name = 42608079
REMARK  9 active torsions:
REMARK  status: ('A' for Active; 'I' for Inactive)
REMARK    1  A    between atoms: O_1  and  C_16
REMARK    2  A    between atoms: O_1  and  C_20
REMARK    3  A    between atoms: O_5  and  C_22
REMARK    4  A    between atoms: O_5  and  C_27
REMARK    5  A    between atoms: O_12  and  C_28
REMARK    6  A    between atoms: O_15  and  C_41
REMARK    7  A    between atoms: C_17  and  C_25
REMARK    8  A    between atoms: C_23  and  C_26
REMARK    9  A    between atoms: C_30  and  C_31
REMARK                            x       y       z     vdW  Elec       q    Type
REMARK                         _______ _______ _______ _____ _____    ______ ____
ROOT
ATOM      1  C   UNL     1     111.752 128.070 140.220  0.00  0.00    +0.000 A 
ATOM      2  C   UNL     1     111.879 128.233 139.422  0.00  0.00    +0.000 A 
ATOM      3  C   UNL     1     112.006 127.352 140.540  0.00  0.00    +0.000 A 
ATOM      4  C   UNL     1     112.513 126.963 139.261  0.00  0.00    +0.000 A 
ATOM      5  C   UNL     1     112.260 127.680 138.943  0.00  0.00    +0.000 A 
ATOM      6  C   UNL     1     112.386 126.799 140.060  0.00  0.00    +0.000 A 
ENDROOT
BRANCH   4  10
ATOM      7  O   UNL     1     112.453 125.936 138.270  0.00  0.00    +0.000 OA
ATOM      8  O   UNL     1     114.915 125.697 138.368  0.00  0.00    +0.000 OA
ATOM      9  O   UNL     1     114.882 124.658 137.368  0.00  0.00    +0.000 OA
ATOM     10  C   UNL     1     112.893 126.409 138.782  0.00  0.00    +0.000 C 
ATOM     11  C   UNL     1     113.713 126.330 138.815  0.00  0.00    +0.000 C 
ATOM     12  C   UNL     1     114.094 125.777 138.335  0.00  0.00    +0.000 C 
ATOM     13  C   UNL     1     113.654 125.303 137.823  0.00  0.00    +0.000 A 
ATOM     14  C   UNL     1     112.833 125.382 137.791  0.00  0.00    +0.000 A 
ATOM     15  C   UNL     1     114.062 124.730 137.329  0.00  0.00    +0.000 A 
ATOM     16  C   UNL     1     112.363 124.894 137.261  0.00  0.00    +0.000 A 
ATOM     17  C   UNL     1     112.754 124.317 136.760  0.00  0.00    +0.000 A 
ATOM     18  C   UNL     1     113.608 124.234 136.794  0.00  0.00    +0.000 A 
BRANCH  17  19
ATOM     19  O   UNL     1     112.311 123.844 136.249  0.00  0.00    +0.000 OA
ATOM     20  C   UNL     1     111.885 123.202 136.545  0.00  0.00    +0.000 C 
ENDBRANCH  17  19
ENDBRANCH   4  10
BRANCH   2  21
ATOM     21  O   UNL     1     111.626 128.951 139.103  0.00  0.00    +0.000 OA
ATOM     22  C   UNL     1     112.037 129.290 138.473  0.00  0.00    +0.000 C 
ENDBRANCH   2  21
BRANCH   1  23
ATOM     23  O   UNL     1     111.372 128.623 140.699  0.00  0.00    +0.000 OA
BRANCH  23  30
ATOM     24  O   UNL     1     110.166 127.877 140.875  0.00  0.00    +0.000 OA
ATOM     25  O   UNL     1     109.979 128.725 143.193  0.00  0.00    +0.000 OA
ATOM     26  O   UNL     1     108.836 127.698 142.596  0.00  0.00    +0.000 OA
ATOM     27  C   UNL     1     110.676 128.675 141.946  0.00  0.00    +0.000 C 
ATOM     28  C   UNL     1     110.041 128.443 142.420  0.00  0.00    +0.000 C 
ATOM     29  C   UNL     1     109.470 127.929 142.122  0.00  0.00    +0.000 C 
ATOM     30  C   UNL     1     110.738 128.392 141.174  0.00  0.00    +0.000 C 
ATOM     31  C   UNL     1     109.532 127.646 141.349  0.00  0.00    +0.000 C 
BRANCH  31  33
ATOM     32  O   UNL     1     108.612 127.284 140.317  0.00  0.00    +0.000 OA
ATOM     33  C   UNL     1     108.960 127.132 141.050  0.00  0.00    +0.000 C 
ENDBRANCH  31  33
BRANCH  27  34
ATOM     34  O   UNL     1     111.248 129.188 142.244  0.00  0.00    +0.000 OA
BRANCH  34  40
ATOM     35  O   UNL     1     110.485 130.386 141.861  0.00  0.00    +0.000 OA
ATOM     36  O   UNL     1     111.165 132.134 142.352  0.00  0.00    +0.000 OA
ATOM     37  O   UNL     1     112.327 130.442 142.942  0.00  0.00    +0.000 OA
ATOM     38  C   UNL     1     111.287 131.319 142.380  0.00  0.00    +0.000 C 
ATOM     39  C   UNL     1     111.620 130.580 142.536  0.00  0.00    +0.000 C 
ATOM     40  C   UNL     1     111.126 130.004 142.216  0.00  0.00    +0.000 C 
ATOM     41  C   UNL     1     110.586 131.198 141.963  0.00  0.00    +0.000 C 
BRANCH  38  43
ATOM     42  O   UNL     1     111.974 132.507 142.777  0.00  0.00    +0.000 OA
ATOM     43  C   UNL     1     111.917 131.685 142.768  0.00  0.00    +0.000 C 
ENDBRANCH  38  43
ENDBRANCH  34  40
ENDBRANCH  27  34
ENDBRANCH  23  30
ENDBRANCH   1  23
TORSDOF 9
ENDMDL
MODEL 2
REMARK VINA RESULT:      -8.8      6.512      9.724
REMARK  Name = 42608079
REMARK  9 active torsions:
REMARK  status: ('A' for Active; 'I' for Inactive)
REMARK    1  A    between atoms: O_1  and  C_16
REMARK    2  A    between atoms: O_1  and  C_20
REMARK    3  A    between atoms: O_5  and  C_22
REMARK    4  A    between atoms: O_5  and  C_27
REMARK    5  A    between atoms: O_12  and  C_28
REMARK    6  A    between atoms: O_15  and  C_41
REMARK    7  A    between atoms: C_17  and  C_25
REMARK    8  A    between atoms: C_23  and  C_26
REMARK    9  A    between atoms: C_30  and  C_31
REMARK                            x       y       z     vdW  Elec       q    Type
REMARK                         _______ _______ _______ _____ _____    ______ ____
ROOT
ATOM      1  C   UNL     1     106.519 126.709 146.301  0.00  0.00    +0.000 A 
ATOM      2  C   UNL     1     106.780 126.870 145.535  0.00  0.00    +0.000 A 
ATOM      3  C   UNL     1     106.614 127.273 146.897  0.00  0.00    +0.000 A 
ATOM      4  C   UNL     1     107.231 128.159 145.959  0.00  0.00    +0.000 A 
ATOM      5  C   UNL     1     107.136 127.595 145.364  0.00  0.00    +0.000 A 
ATOM      6  C   UNL     1     106.970 127.997 146.726  0.00  0.00    +0.000 A 
ENDROOT
BRANCH   4  10
ATOM      7  O   UNL     1     108.378 128.909 145.555  0.00  0.00    +0.000 OA
ATOM      8  O   UNL     1     107.072 131.004 145.743  0.00  0.00    +0.000 OA
ATOM      9  O   UNL     1     108.215 131.785 145.337  0.00  0.00    +0.000 OA
ATOM     10  C   UNL     1     107.587 128.883 145.788  0.00  0.00    +0.000 C 
ATOM     11  C   UNL     1     107.152 129.581 145.851  0.00  0.00    +0.000 C 
ATOM     12  C   UNL     1     107.507 130.305 145.680  0.00  0.00    +0.000 C 
ATOM     13  C   UNL     1     108.298 130.332 145.447  0.00  0.00    +0.000 A 
ATOM     14  C   UNL     1     108.733 129.633 145.384  0.00  0.00    +0.000 A 
ATOM     15  C   UNL     1     108.657 131.093 145.271  0.00  0.00    +0.000 A 
ATOM     16  C   UNL     1     109.558 129.647 145.141  0.00  0.00    +0.000 A 
ATOM     17  C   UNL     1     109.933 130.399 144.962  0.00  0.00    +0.000 A 
ATOM     18  C   UNL     1     109.480 131.126 145.028  0.00  0.00    +0.000 A 
BRANCH  17  19
ATOM     19  O   UNL     1     110.724 130.422 144.729  0.00  0.00    +0.000 OA
ATOM     20  C   UNL     1     111.317 130.540 145.291  0.00  0.00    +0.000 C 
ENDBRANCH  17  19
ENDBRANCH   4  10
BRANCH   2  21
ATOM     21  O   UNL     1     106.685 126.306 144.940  0.00  0.00    +0.000 OA
ATOM     22  C   UNL     1     106.451 126.541 144.184  0.00  0.00    +0.000 C 
ENDBRANCH   2  21
BRANCH   1  23
ATOM     23  O   UNL     1     106.164 125.985 146.472  0.00  0.00    +0.000 OA
BRANCH  23  30
ATOM     24  O   UNL     1     107.202 125.472 147.308  0.00  0.00    +0.000 OA
ATOM     25  O   UNL     1     105.504 124.436 148.781  0.00  0.00    +0.000 OA
ATOM     26  O   UNL     1     107.108 124.268 149.126  0.00  0.00    +0.000 OA
ATOM     27  C   UNL     1     105.833 125.211 147.626  0.00  0.00    +0.000 C 
ATOM     28  C   UNL     1     106.070 124.781 148.290  0.00  0.00    +0.000 C 
ATOM     29  C   UNL     1     106.872 124.697 148.463  0.00  0.00    +0.000 C 
ATOM     30  C   UNL     1     106.399 125.556 147.135  0.00  0.00    +0.000 C 
ATOM     31  C   UNL     1     107.438 125.042 147.972  0.00  0.00    +0.000 C 
BRANCH  31  33
ATOM     32  O   UNL     1     108.796 124.974 147.534  0.00  0.00    +0.000 OA
ATOM     33  C   UNL     1     108.240 124.959 148.144  0.00  0.00    +0.000 C 
ENDBRANCH  31  33
BRANCH  27  34
ATOM     34  O   UNL     1     105.032 125.295 147.453  0.00  0.00    +0.000 OA
BRANCH  34  40
ATOM     35  O   UNL     1     104.985 124.047 146.677  0.00  0.00    +0.000 OA
ATOM     36  O   UNL     1     103.280 123.418 146.002  0.00  0.00    +0.000 OA
ATOM     37  O   UNL     1     103.268 125.237 147.121  0.00  0.00    +0.000 OA
ATOM     38  C   UNL     1     103.674 124.003 146.429  0.00  0.00    +0.000 C 
ATOM     39  C   UNL     1     103.828 124.682 146.873  0.00  0.00    +0.000 C 
ATOM     40  C   UNL     1     104.637 124.709 147.026  0.00  0.00    +0.000 C 
ATOM     41  C   UNL     1     104.389 123.611 146.308  0.00  0.00    +0.000 C 
BRANCH  38  43
ATOM     42  O   UNL     1     102.356 123.773 145.928  0.00  0.00    +0.000 OA
ATOM     43  C   UNL     1     102.871 124.196 146.413  0.00  0.00    +0.000 C 
ENDBRANCH  38  43
ENDBRANCH  34  40
ENDBRANCH  27  34
ENDBRANCH  23  30
ENDBRANCH   1  23
TORSDOF 9
ENDMDL
MODEL 3
REMARK VINA RESULT:      -8.8      2.807      6.474
REMARK  Name = 42608079
REMARK  9 active torsions:
REMARK  status: ('A' for Active; 'I' for Inactive)
REMARK    1  A    between atoms: O_1  and  C_16
REMARK    2  A    between atoms: O_1  and  C_20
REMARK    3  A    between atoms: O_5  and  C_22
REMARK    4  A    between atoms: O_5  and  C_27
REMARK    5  A    between atoms: O_12  and  C_28
REMARK    6  A    between atoms: O_15  and  C_41
REMARK    7  A    between atoms: C_17  and  C_25
REMARK    8  A    between atoms: C_23  and  C_26
REMARK    9  A    between atoms: C_30  and  C_31
REMARK                            x       y       z     vdW  Elec       q    Type
REMARK                         _______ _______ _______ _____ _____    ______ ____
ROOT
ATOM      1  C   UNL     1     112.509 128.661 137.773  0.00  0.00    +0.000 A 
ATOM      2  C   UNL     1     112.796 129.128 137.157  0.00  0.00    +0.000 A 
ATOM      3  C   UNL     1     111.809 128.870 138.158  0.00  0.00    +0.000 A 
ATOM      4  C   UNL     1     111.685 130.014 137.309  0.00  0.00    +0.000 A 
ATOM      5  C   UNL     1     112.384 129.805 136.925  0.00  0.00    +0.000 A 
ATOM      6  C   UNL     1     111.397 129.547 137.926  0.00  0.00    +0.000 A 
ENDROOT
BRANCH   4  10
ATOM      7  O   UNL     1     110.666 130.633 136.522  0.00  0.00    +0.000 OA
ATOM      8  O   UNL     1     111.254 132.834 137.492  0.00  0.00    +0.000 OA
ATOM      9  O   UNL     1     110.232 133.484 136.709  0.00  0.00    +0.000 OA
ATOM     10  C   UNL     1     111.273 130.691 137.077  0.00  0.00    +0.000 C 
ATOM     11  C   UNL     1     111.470 131.423 137.400  0.00  0.00    +0.000 C 
ATOM     12  C   UNL     1     111.058 132.100 137.169  0.00  0.00    +0.000 C 
ATOM     13  C   UNL     1     110.450 132.043 136.614  0.00  0.00    +0.000 A 
ATOM     14  C   UNL     1     110.254 131.309 136.291  0.00  0.00    +0.000 A 
ATOM     15  C   UNL     1     110.029 132.755 136.380  0.00  0.00    +0.000 A 
ATOM     16  C   UNL     1     109.623 131.237 135.712  0.00  0.00    +0.000 A 
ATOM     17  C   UNL     1     109.191 131.938 135.467  0.00  0.00    +0.000 A 
ATOM     18  C   UNL     1     109.395 132.702 135.803  0.00  0.00    +0.000 A 
BRANCH  17  19
ATOM     19  O   UNL     1     108.583 131.878 134.912  0.00  0.00    +0.000 OA
ATOM     20  C   UNL     1     107.799 131.979 135.146  0.00  0.00    +0.000 C 
ENDBRANCH  17  19
ENDBRANCH   4  10
BRANCH   2  21
ATOM     21  O   UNL     1     113.496 128.919 136.773  0.00  0.00    +0.000 OA
ATOM     22  C   UNL     1     113.585 129.073 135.967  0.00  0.00    +0.000 C 
ENDBRANCH   2  21
BRANCH   1  23
ATOM     23  O   UNL     1     112.920 127.985 138.005  0.00  0.00    +0.000 OA
BRANCH  23  30
ATOM     24  O   UNL     1     113.343 128.435 139.293  0.00  0.00    +0.000 OA
ATOM     25  O   UNL     1     112.867 126.195 140.231  0.00  0.00    +0.000 OA
ATOM     26  O   UNL     1     113.448 127.391 141.207  0.00  0.00    +0.000 OA
ATOM     27  C   UNL     1     112.893 127.089 139.118  0.00  0.00    +0.000 C 
ATOM     28  C   UNL     1     113.026 126.942 139.919  0.00  0.00    +0.000 C 
ATOM     29  C   UNL     1     113.316 127.539 140.406  0.00  0.00    +0.000 C 
ATOM     30  C   UNL     1     113.052 127.836 138.805  0.00  0.00    +0.000 C 
ATOM     31  C   UNL     1     113.475 128.286 140.094  0.00  0.00    +0.000 C 
BRANCH  31  33
ATOM     32  O   UNL     1     114.436 129.311 140.355  0.00  0.00    +0.000 OA
ATOM     33  C   UNL     1     113.766 128.885 140.581  0.00  0.00    +0.000 C 
ENDBRANCH  31  33
BRANCH  27  34
ATOM     34  O   UNL     1     112.603 126.492 138.630  0.00  0.00    +0.000 OA
BRANCH  34  40
ATOM     35  O   UNL     1     113.945 125.963 138.346  0.00  0.00    +0.000 OA
ATOM     36  O   UNL     1     114.132 124.460 137.137  0.00  0.00    +0.000 OA
ATOM     37  O   UNL     1     112.152 125.171 137.500  0.00  0.00    +0.000 OA
ATOM     38  C   UNL     1     113.610 124.981 137.506  0.00  0.00    +0.000 C 
ATOM     39  C   UNL     1     112.918 125.363 137.742  0.00  0.00    +0.000 C 
ATOM     40  C   UNL     1     113.124 125.970 138.261  0.00  0.00    +0.000 C 
ATOM     41  C   UNL     1     114.245 125.352 137.880  0.00  0.00    +0.000 C 
BRANCH  38  43
ATOM     42  O   UNL     1     113.547 123.903 136.571  0.00  0.00    +0.000 OA
ATOM     43  C   UNL     1     113.168 124.467 137.037  0.00  0.00    +0.000 C 
ENDBRANCH  38  43
ENDBRANCH  34  40
ENDBRANCH  27  34
ENDBRANCH  23  30
ENDBRANCH   1  23
TORSDOF 9
ENDMDL
MODEL 4
REMARK VINA RESULT:      -8.8      3.023      4.181
REMARK  Name = 42608079
REMARK  9 active torsions:
REMARK  status: ('A' for Active; 'I' for Inactive)
REMARK    1  A    between atoms: O_1  and  C_16
REMARK    2  A    between atoms: O_1  and  C_20
REMARK    3  A    between atoms: O_5  and  C_22
REMARK    4  A    between atoms: O_5  and  C_27
REMARK    5  A    between atoms: O_12  and  C_28
REMARK    6  A    between atoms: O_15  and  C_41
REMARK    7  A    between atoms: C_17  and  C_25
REMARK    8  A    between atoms: C_23  and  C_26
REMARK    9  A    between atoms: C_30  and  C_31
REMARK                            x       y       z     vdW  Elec       q    Type
REMARK                         _______ _______ _______ _____ _____    ______ ____
ROOT
ATOM      1  C   UNL     1     111.296 128.937 136.845  0.00  0.00    +0.000 A 
ATOM      2  C   UNL     1     111.598 128.593 137.531  0.00  0.00    +0.000 A 
ATOM      3  C   UNL     1     111.509 128.638 136.105  0.00  0.00    +0.000 A 
ATOM      4  C   UNL     1     112.326 127.651 136.740  0.00  0.00    +0.000 A 
ATOM      5  C   UNL     1     112.112 127.950 137.479  0.00  0.00    +0.000 A 
ATOM      6  C   UNL     1     112.024 127.996 136.053  0.00  0.00    +0.000 A 
ENDROOT
BRANCH   4  10
ATOM      7  O   UNL     1     112.574 126.251 136.875  0.00  0.00    +0.000 OA
ATOM      8  O   UNL     1     114.918 126.598 136.157  0.00  0.00    +0.000 OA
ATOM      9  O   UNL     1     115.195 125.188 136.285  0.00  0.00    +0.000 OA
ATOM     10  C   UNL     1     112.841 127.009 136.688  0.00  0.00    +0.000 C 
ATOM     11  C   UNL     1     113.621 127.125 136.449  0.00  0.00    +0.000 C 
ATOM     12  C   UNL     1     114.136 126.482 136.396  0.00  0.00    +0.000 C 
ATOM     13  C   UNL     1     113.871 125.724 136.583  0.00  0.00    +0.000 A 
ATOM     14  C   UNL     1     113.089 125.608 136.822  0.00  0.00    +0.000 A 
ATOM     15  C   UNL     1     114.416 125.063 136.525  0.00  0.00    +0.000 A 
ATOM     16  C   UNL     1     112.799 124.823 137.020  0.00  0.00    +0.000 A 
ATOM     17  C   UNL     1     113.331 124.151 136.967  0.00  0.00    +0.000 A 
ATOM     18  C   UNL     1     114.145 124.271 136.718  0.00  0.00    +0.000 A 
BRANCH  17  19
ATOM     19  O   UNL     1     113.062 123.393 137.154  0.00  0.00    +0.000 OA
ATOM     20  C   UNL     1     112.284 123.178 136.985  0.00  0.00    +0.000 C 
ENDBRANCH  17  19
ENDBRANCH   4  10
BRANCH   2  21
ATOM     21  O   UNL     1     111.384 128.892 138.270  0.00  0.00    +0.000 OA
ATOM     22  C   UNL     1     111.898 128.813 138.911  0.00  0.00    +0.000 C 
ENDBRANCH   2  21
BRANCH   1  23
ATOM     23  O   UNL     1     110.781 129.579 136.897  0.00  0.00    +0.000 OA
BRANCH  23  30
ATOM     24  O   UNL     1     109.664 128.822 136.428  0.00  0.00    +0.000 OA
ATOM     25  O   UNL     1     108.591 130.904 135.627  0.00  0.00    +0.000 OA
ATOM     26  O   UNL     1     107.832 129.454 135.425  0.00  0.00    +0.000 OA
ATOM     27  C   UNL     1     109.686 130.242 136.262  0.00  0.00    +0.000 C 
ATOM     28  C   UNL     1     108.949 130.210 135.894  0.00  0.00    +0.000 C 
ATOM     29  C   UNL     1     108.569 129.485 135.793  0.00  0.00    +0.000 C 
ATOM     30  C   UNL     1     110.044 129.548 136.529  0.00  0.00    +0.000 C 
ATOM     31  C   UNL     1     108.926 128.791 136.060  0.00  0.00    +0.000 C 
BRANCH  31  33
ATOM     32  O   UNL     1     108.469 127.549 136.598  0.00  0.00    +0.000 OA
ATOM     33  C   UNL     1     108.547 128.066 135.959  0.00  0.00    +0.000 C 
ENDBRANCH  31  33
BRANCH  27  34
ATOM     34  O   UNL     1     110.066 130.966 136.363  0.00  0.00    +0.000 OA
BRANCH  34  40
ATOM     35  O   UNL     1     109.314 131.279 137.587  0.00  0.00    +0.000 OA
ATOM     36  O   UNL     1     109.673 132.941 138.518  0.00  0.00    +0.000 OA
ATOM     37  O   UNL     1     110.806 132.557 136.749  0.00  0.00    +0.000 OA
ATOM     38  C   UNL     1     109.863 132.462 137.874  0.00  0.00    +0.000 C 
ATOM     39  C   UNL     1     110.216 132.176 137.184  0.00  0.00    +0.000 C 
ATOM     40  C   UNL     1     109.877 131.446 137.007  0.00  0.00    +0.000 C 
ATOM     41  C   UNL     1     109.306 131.906 138.122  0.00  0.00    +0.000 C 
BRANCH  38  43
ATOM     42  O   UNL     1     110.291 133.705 138.433  0.00  0.00    +0.000 OA
ATOM     43  C   UNL     1     110.335 133.137 137.837  0.00  0.00    +0.000 C 
ENDBRANCH  38  43
ENDBRANCH  34  40
ENDBRANCH  27  34
ENDBRANCH  23  30
ENDBRANCH   1  23
TORSDOF 9
ENDMDL
MODEL 5
REMARK VINA RESULT:      -8.7      2.154      3.568
REMARK  Name = 42608079
REMARK  9 active torsions:
REMARK  status: ('A' for Active; 'I' for Inactive)
REMARK    1  A    between atoms: O_1  and  C_16
REMARK    2  A    between atoms: O_1  and  C_20
REMARK    3  A    between atoms: O_5  and  C_22
REMARK    4  A    between atoms: O_5  and  C_27
REMARK    5  A    between atoms: O_12  and  C_28
REMARK    6  A    between atoms: O_15  and  C_41
REMARK    7  A    between atoms: C_17  and  C_25
REMARK    8  A    between atoms: C_23  and  C_26
REMARK    9  A    between atoms: C_30  and  C_31
REMARK                            x       y       z     vdW  Elec       q    Type
REMARK                         _______ _______ _______ _____ _____    ______ ____
ROOT
ATOM      1  C   UNL     1     111.726 128.833 138.304  0.00  0.00    +0.000 A 
ATOM      2  C   UNL     1     112.208 128.355 138.772  0.00  0.00    +0.000 A 
ATOM      3  C   UNL     1     111.560 128.614 137.525  0.00  0.00    +0.000 A 
ATOM      4  C   UNL     1     112.359 127.439 137.685  0.00  0.00    +0.000 A 
ATOM      5  C   UNL     1     112.524 127.658 138.463  0.00  0.00    +0.000 A 
ATOM      6  C   UNL     1     111.877 127.917 137.216  0.00  0.00    +0.000 A 
ENDROOT
BRANCH   4  10
ATOM      7  O   UNL     1     112.231 126.047 137.389  0.00  0.00    +0.000 OA
ATOM      8  O   UNL     1     114.512 126.044 136.425  0.00  0.00    +0.000 OA
ATOM      9  O   UNL     1     114.409 124.639 136.114  0.00  0.00    +0.000 OA
ATOM     10  C   UNL     1     112.675 126.743 137.376  0.00  0.00    +0.000 C 
ATOM     11  C   UNL     1     113.435 126.742 137.055  0.00  0.00    +0.000 C 
ATOM     12  C   UNL     1     113.751 126.045 136.746  0.00  0.00    +0.000 C 
ATOM     13  C   UNL     1     113.308 125.350 136.758  0.00  0.00    +0.000 A 
ATOM     14  C   UNL     1     112.548 125.351 137.080  0.00  0.00    +0.000 A 
ATOM     15  C   UNL     1     113.648 124.631 136.434  0.00  0.00    +0.000 A 
ATOM     16  C   UNL     1     112.075 124.633 137.099  0.00  0.00    +0.000 A 
ATOM     17  C   UNL     1     112.400 123.905 136.778  0.00  0.00    +0.000 A 
ATOM     18  C   UNL     1     113.191 123.903 136.444  0.00  0.00    +0.000 A 
BRANCH  17  19
ATOM     19  O   UNL     1     111.954 123.210 136.792  0.00  0.00    +0.000 OA
ATOM     20  C   UNL     1     111.924 122.753 137.477  0.00  0.00    +0.000 C 
ENDBRANCH  17  19
ENDBRANCH   4  10
BRANCH   2  21
ATOM     21  O   UNL     1     112.373 128.574 139.551  0.00  0.00    +0.000 OA
ATOM     22  C   UNL     1     112.455 127.995 140.133  0.00  0.00    +0.000 C 
ENDBRANCH   2  21
BRANCH   1  23
ATOM     23  O   UNL     1     111.410 129.528 138.612  0.00  0.00    +0.000 OA
BRANCH  23  30
ATOM     24  O   UNL     1     112.180 130.437 137.823  0.00  0.00    +0.000 OA
ATOM     25  O   UNL     1     110.219 131.936 137.635  0.00  0.00    +0.000 OA
ATOM     26  O   UNL     1     111.643 132.345 136.910  0.00  0.00    +0.000 OA
ATOM     27  C   UNL     1     110.814 130.732 138.124  0.00  0.00    +0.000 C 
ATOM     28  C   UNL     1     110.873 131.436 137.698  0.00  0.00    +0.000 C 
ATOM     29  C   UNL     1     111.584 131.641 137.335  0.00  0.00    +0.000 C 
ATOM     30  C   UNL     1     111.467 130.233 138.187  0.00  0.00    +0.000 C 
ATOM     31  C   UNL     1     112.238 131.142 137.398  0.00  0.00    +0.000 C 
BRANCH  31  33
ATOM     32  O   UNL     1     113.663 131.238 137.437  0.00  0.00    +0.000 OA
ATOM     33  C   UNL     1     112.950 131.346 137.035  0.00  0.00    +0.000 C 
ENDBRANCH  31  33
BRANCH  27  34
ATOM     34  O   UNL     1     110.102 130.527 138.487  0.00  0.00    +0.000 OA
BRANCH  34  40
ATOM     35  O   UNL     1     110.434 131.251 139.723  0.00  0.00    +0.000 OA
ATOM     36  O   UNL     1     109.152 131.275 141.176  0.00  0.00    +0.000 OA
ATOM     37  O   UNL     1     108.600 130.203 139.414  0.00  0.00    +0.000 OA
ATOM     38  C   UNL     1     109.317 131.010 140.413  0.00  0.00    +0.000 C 
ATOM     39  C   UNL     1     109.247 130.643 139.677  0.00  0.00    +0.000 C 
ATOM     40  C   UNL     1     109.937 130.791 139.251  0.00  0.00    +0.000 C 
ATOM     41  C   UNL     1     110.051 131.386 140.440  0.00  0.00    +0.000 C 
BRANCH  38  43
ATOM     42  O   UNL     1     108.190 131.034 141.290  0.00  0.00    +0.000 OA
ATOM     43  C   UNL     1     108.568 130.734 140.622  0.00  0.00    +0.000 C 
ENDBRANCH  38  43
ENDBRANCH  34  40
ENDBRANCH  27  34
ENDBRANCH  23  30
ENDBRANCH   1  23
TORSDOF 9
ENDMDL
MODEL 6
REMARK VINA RESULT:      -8.6      5.602      9.551
REMARK  Name = 42608079
REMARK  9 active torsions:
REMARK  status: ('A' for Active; 'I' for Inactive)
REMARK    1  A    between atoms: O_1  and  C_16
REMARK    2  A    between atoms: O_1  and  C_20
REMARK    3  A    between atoms: O_5  and  C_22
REMARK    4  A    between atoms: O_5  and  C_27
REMARK    5  A    between atoms: O_12  and  C_28
REMARK    6  A    between atoms: O_15  and  C_41
REMARK    7  A    between atoms: C_17  and  C_25
REMARK    8  A    between atoms: C_23  and  C_26
REMARK    9  A    between atoms: C_30  and  C_31
REMARK                            x       y       z     vdW  Elec       q    Type
REMARK                         _______ _______ _______ _____ _____    ______ ____
ROOT
ATOM      1  C   UNL     1     105.237 128.033 143.370  0.00  0.00    +0.000 A 
ATOM      2  C   UNL     1     105.228 128.763 143.754  0.00  0.00    +0.000 A 
ATOM      3  C   UNL     1     104.872 127.950 142.634  0.00  0.00    +0.000 A 
ATOM      4  C   UNL     1     104.489 129.327 142.668  0.00  0.00    +0.000 A 
ATOM      5  C   UNL     1     104.854 129.409 143.403  0.00  0.00    +0.000 A 
ATOM      6  C   UNL     1     104.498 128.596 142.283  0.00  0.00    +0.000 A 
ENDROOT
BRANCH   4  10
ATOM      7  O   UNL     1     103.322 130.129 142.481  0.00  0.00    +0.000 OA
ATOM      8  O   UNL     1     104.580 131.599 140.937  0.00  0.00    +0.000 OA
ATOM      9  O   UNL     1     103.416 132.426 140.731  0.00  0.00    +0.000 OA
ATOM     10  C   UNL     1     104.115 129.973 142.317  0.00  0.00    +0.000 C 
ATOM     11  C   UNL     1     104.534 130.462 141.803  0.00  0.00    +0.000 C 
ATOM     12  C   UNL     1     104.160 131.109 141.452  0.00  0.00    +0.000 C 
ATOM     13  C   UNL     1     103.367 131.266 141.616  0.00  0.00    +0.000 A 
ATOM     14  C   UNL     1     102.948 130.775 142.131  0.00  0.00    +0.000 A 
ATOM     15  C   UNL     1     102.989 131.942 141.244  0.00  0.00    +0.000 A 
ATOM     16  C   UNL     1     102.121 130.928 142.309  0.00  0.00    +0.000 A 
ATOM     17  C   UNL     1     101.727 131.599 141.947  0.00  0.00    +0.000 A 
ATOM     18  C   UNL     1     102.163 132.110 141.411  0.00  0.00    +0.000 A 
BRANCH  17  19
ATOM     19  O   UNL     1     100.933 131.754 142.113  0.00  0.00    +0.000 OA
ATOM     20  C   UNL     1     100.732 132.341 142.655  0.00  0.00    +0.000 C 
ENDBRANCH  17  19
ENDBRANCH   4  10
BRANCH   2  21
ATOM     21  O   UNL     1     105.593 128.846 144.490  0.00  0.00    +0.000 OA
ATOM     22  C   UNL     1     105.264 129.346 145.058  0.00  0.00    +0.000 C 
ENDBRANCH   2  21
BRANCH   1  23
ATOM     23  O   UNL     1     105.611 127.387 143.720  0.00  0.00    +0.000 OA
BRANCH  23  30
ATOM     24  O   UNL     1     106.652 127.255 142.751  0.00  0.00    +0.000 OA
ATOM     25  O   UNL     1     106.556 124.793 142.984  0.00  0.00    +0.000 OA
ATOM     26  O   UNL     1     107.629 125.481 141.938  0.00  0.00    +0.000 OA
ATOM     27  C   UNL     1     106.083 126.090 143.353  0.00  0.00    +0.000 C 
ATOM     28  C   UNL     1     106.588 125.613 142.906  0.00  0.00    +0.000 C 
ATOM     29  C   UNL     1     107.124 125.957 142.383  0.00  0.00    +0.000 C 
ATOM     30  C   UNL     1     106.115 126.910 143.275  0.00  0.00    +0.000 C 
ATOM     31  C   UNL     1     107.156 126.778 142.305  0.00  0.00    +0.000 C 
BRANCH  31  33
ATOM     32  O   UNL     1     108.192 127.727 142.042  0.00  0.00    +0.000 OA
ATOM     33  C   UNL     1     107.693 127.122 141.782  0.00  0.00    +0.000 C 
ENDBRANCH  31  33
BRANCH  27  34
ATOM     34  O   UNL     1     105.546 125.746 143.876  0.00  0.00    +0.000 OA
BRANCH  34  40
ATOM     35  O   UNL     1     106.535 125.654 144.960  0.00  0.00    +0.000 OA
ATOM     36  O   UNL     1     106.063 124.719 146.591  0.00  0.00    +0.000 OA
ATOM     37  O   UNL     1     104.576 124.810 145.062  0.00  0.00    +0.000 OA
ATOM     38  C   UNL     1     105.814 124.959 145.843  0.00  0.00    +0.000 C 
ATOM     39  C   UNL     1     105.351 125.077 145.170  0.00  0.00    +0.000 C 
ATOM     40  C   UNL     1     105.796 125.506 144.625  0.00  0.00    +0.000 C 
ATOM     41  C   UNL     1     106.546 125.316 145.712  0.00  0.00    +0.000 C 
BRANCH  38  43
ATOM     42  O   UNL     1     105.316 124.157 146.914  0.00  0.00    +0.000 OA
ATOM     43  C   UNL     1     105.195 124.545 146.198  0.00  0.00    +0.000 C 
ENDBRANCH  38  43
ENDBRANCH  34  40
ENDBRANCH  27  34
ENDBRANCH  23  30
ENDBRANCH   1  23
TORSDOF 9
ENDMDL
MODEL 7
REMARK VINA RESULT:      -8.6      1.539      2.725
REMARK  Name = 42608079
REMARK  9 active torsions:
REMARK  status: ('A' for Active; 'I' for Inactive)
REMARK    1  A    between atoms: O_1  and  C_16
REMARK    2  A    between atoms: O_1  and  C_20
REMARK    3  A    between atoms: O_5  and  C_22
REMARK    4  A    between atoms: O_5  and  C_27
REMARK    5  A    between atoms: O_12  and  C_28
REMARK    6  A    between atoms: O_15  and  C_41
REMARK    7  A    between atoms: C_17  and  C_25
REMARK    8  A    between atoms: C_23  and  C_26
REMARK    9  A    between atoms: C_30  and  C_31
REMARK                            x       y       z     vdW  Elec       q    Type
REMARK                         _______ _______ _______ _____ _____    ______ ____
ROOT
ATOM      1  C   UNL     1     112.280 128.581 139.258  0.00  0.00    +0.000 A 
ATOM      2  C   UNL     1     112.028 128.524 138.475  0.00  0.00    +0.000 A 
ATOM      3  C   UNL     1     112.753 127.988 139.584  0.00  0.00    +0.000 A 
ATOM      4  C   UNL     1     112.720 127.280 138.342  0.00  0.00    +0.000 A 
ATOM      5  C   UNL     1     112.248 127.873 138.017  0.00  0.00    +0.000 A 
ATOM      6  C   UNL     1     112.973 127.338 139.126  0.00  0.00    +0.000 A 
ENDROOT
BRANCH   4  10
ATOM      7  O   UNL     1     112.450 125.966 137.849  0.00  0.00    +0.000 OA
ATOM      8  O   UNL     1     114.577 126.006 136.582  0.00  0.00    +0.000 OA
ATOM      9  O   UNL     1     114.329 124.681 136.070  0.00  0.00    +0.000 OA
ATOM     10  C   UNL     1     112.940 126.630 137.884  0.00  0.00    +0.000 C 
ATOM     11  C   UNL     1     113.648 126.643 137.462  0.00  0.00    +0.000 C 
ATOM     12  C   UNL     1     113.868 125.993 137.005  0.00  0.00    +0.000 C 
ATOM     13  C   UNL     1     113.379 125.329 136.969  0.00  0.00    +0.000 A 
ATOM     14  C   UNL     1     112.670 125.316 137.391  0.00  0.00    +0.000 A 
ATOM     15  C   UNL     1     113.619 124.658 136.488  0.00  0.00    +0.000 A 
ATOM     16  C   UNL     1     112.152 124.631 137.362  0.00  0.00    +0.000 A 
ATOM     17  C   UNL     1     112.375 123.951 136.887  0.00  0.00    +0.000 A 
ATOM     18  C   UNL     1     113.114 123.965 136.448  0.00  0.00    +0.000 A 
BRANCH  17  19
ATOM     19  O   UNL     1     111.884 123.289 136.854  0.00  0.00    +0.000 OA
ATOM     20  C   UNL     1     111.891 122.739 137.469  0.00  0.00    +0.000 C 
ENDBRANCH  17  19
ENDBRANCH   4  10
BRANCH   2  21
ATOM     21  O   UNL     1     111.556 129.117 138.149  0.00  0.00    +0.000 OA
ATOM     22  C   UNL     1     110.992 128.927 137.577  0.00  0.00    +0.000 C 
ENDBRANCH   2  21
BRANCH   1  23
ATOM     23  O   UNL     1     112.061 129.231 139.715  0.00  0.00    +0.000 OA
BRANCH  23  30
ATOM     24  O   UNL     1     113.348 129.850 139.754  0.00  0.00    +0.000 OA
ATOM     25  O   UNL     1     112.929 130.575 142.083  0.00  0.00    +0.000 OA
ATOM     26  O   UNL     1     114.355 130.952 141.345  0.00  0.00    +0.000 OA
ATOM     27  C   UNL     1     112.495 129.903 140.900  0.00  0.00    +0.000 C 
ATOM     28  C   UNL     1     113.069 130.333 141.307  0.00  0.00    +0.000 C 
ATOM     29  C   UNL     1     113.782 130.522 140.938  0.00  0.00    +0.000 C 
ATOM     30  C   UNL     1     112.634 129.661 140.123  0.00  0.00    +0.000 C 
ATOM     31  C   UNL     1     113.921 130.281 140.162  0.00  0.00    +0.000 C 
BRANCH  31  33
ATOM     32  O   UNL     1     114.632 130.799 139.036  0.00  0.00    +0.000 OA
ATOM     33  C   UNL     1     114.634 130.469 139.793  0.00  0.00    +0.000 C 
ENDBRANCH  31  33
BRANCH  27  34
ATOM     34  O   UNL     1     111.782 129.714 141.268  0.00  0.00    +0.000 OA
BRANCH  34  40
ATOM     35  O   UNL     1     111.147 130.976 140.862  0.00  0.00    +0.000 OA
ATOM     36  O   UNL     1     109.328 131.341 141.423  0.00  0.00    +0.000 OA
ATOM     37  O   UNL     1     110.182 129.488 142.052  0.00  0.00    +0.000 OA
ATOM     38  C   UNL     1     109.957 130.809 141.444  0.00  0.00    +0.000 C 
ATOM     39  C   UNL     1     110.417 130.143 141.607  0.00  0.00    +0.000 C 
ATOM     40  C   UNL     1     111.152 130.246 141.247  0.00  0.00    +0.000 C 
ATOM     41  C   UNL     1     110.409 131.323 140.984  0.00  0.00    +0.000 C 
BRANCH  38  43
ATOM     42  O   UNL     1     108.650 130.925 142.008  0.00  0.00    +0.000 OA
ATOM     43  C   UNL     1     109.333 130.484 141.875  0.00  0.00    +0.000 C 
ENDBRANCH  38  43
ENDBRANCH  34  40
ENDBRANCH  27  34
ENDBRANCH  23  30
ENDBRANCH   1  23
TORSDOF 9
ENDMDL
MODEL 8
REMARK VINA RESULT:      -8.6      2.636      3.541
REMARK  Name = 42608079
REMARK  9 active torsions:
REMARK  status: ('A' for Active; 'I' for Inactive)
REMARK    1  A    between atoms: O_1  and  C_16
REMARK    2  A    between atoms: O_1  and  C_20
REMARK    3  A    between atoms: O_5  and  C_22
REMARK    4  A    between atoms: O_5  and  C_27
REMARK    5  A    between atoms: O_12  and  C_28
REMARK    6  A    between atoms: O_15  and  C_41
REMARK    7  A    between atoms: C_17  and  C_25
REMARK    8  A    between atoms: C_23  and  C_26
REMARK    9  A    between atoms: C_30  and  C_31
REMARK                            x       y       z     vdW  Elec       q    Type
REMARK                         _______ _______ _______ _____ _____    ______ ____
ROOT
ATOM      1  C   UNL     1     110.259 129.074 138.109  0.00  0.00    +0.000 A 
ATOM      2  C   UNL     1     109.908 128.562 137.566  0.00  0.00    +0.000 A 
ATOM      3  C   UNL     1     110.901 128.818 138.561  0.00  0.00    +0.000 A 
ATOM      4  C   UNL     1     110.838 127.539 137.926  0.00  0.00    +0.000 A 
ATOM      5  C   UNL     1     110.197 127.795 137.475  0.00  0.00    +0.000 A 
ATOM      6  C   UNL     1     111.190 128.051 138.470  0.00  0.00    +0.000 A 
ENDROOT
BRANCH   4  10
ATOM      7  O   UNL     1     111.775 126.631 137.344  0.00  0.00    +0.000 OA
ATOM      8  O   UNL     1     110.698 124.752 138.544  0.00  0.00    +0.000 OA
ATOM      9  O   UNL     1     111.632 123.814 137.970  0.00  0.00    +0.000 OA
ATOM     10  C   UNL     1     111.127 126.772 137.835  0.00  0.00    +0.000 C 
ATOM     11  C   UNL     1     110.768 126.146 138.235  0.00  0.00    +0.000 C 
ATOM     12  C   UNL     1     111.057 125.379 138.144  0.00  0.00    +0.000 C 
ATOM     13  C   UNL     1     111.705 125.237 137.653  0.00  0.00    +0.000 A 
ATOM     14  C   UNL     1     112.064 125.864 137.253  0.00  0.00    +0.000 A 
ATOM     15  C   UNL     1     111.997 124.434 137.566  0.00  0.00    +0.000 A 
ATOM     16  C   UNL     1     112.740 125.730 136.739  0.00  0.00    +0.000 A 
ATOM     17  C   UNL     1     113.045 124.933 136.640  0.00  0.00    +0.000 A 
ATOM     18  C   UNL     1     112.672 124.281 137.056  0.00  0.00    +0.000 A 
BRANCH  17  19
ATOM     19  O   UNL     1     113.693 124.795 136.149  0.00  0.00    +0.000 OA
ATOM     20  C   UNL     1     114.445 125.047 136.377  0.00  0.00    +0.000 C 
ENDBRANCH  17  19
ENDBRANCH   4  10
BRANCH   2  21
ATOM     21  O   UNL     1     109.266 128.818 137.113  0.00  0.00    +0.000 OA
ATOM     22  C   UNL     1     109.177 128.553 136.338  0.00  0.00    +0.000 C 
ENDBRANCH   2  21
BRANCH   1  23
ATOM     23  O   UNL     1     109.970 129.841 138.200  0.00  0.00    +0.000 OA
BRANCH  23  30
ATOM     24  O   UNL     1     109.317 129.706 139.464  0.00  0.00    +0.000 OA
ATOM     25  O   UNL     1     110.287 131.862 140.195  0.00  0.00    +0.000 OA
ATOM     26  O   UNL     1     109.311 131.009 141.214  0.00  0.00    +0.000 OA
ATOM     27  C   UNL     1     110.129 130.852 139.197  0.00  0.00    +0.000 C 
ATOM     28  C   UNL     1     109.964 131.144 139.951  0.00  0.00    +0.000 C 
ATOM     29  C   UNL     1     109.476 130.717 140.461  0.00  0.00    +0.000 C 
ATOM     30  C   UNL     1     109.806 130.133 138.953  0.00  0.00    +0.000 C 
ATOM     31  C   UNL     1     109.152 129.999 140.217  0.00  0.00    +0.000 C 
BRANCH  31  33
ATOM     32  O   UNL     1     107.944 129.273 140.454  0.00  0.00    +0.000 OA
ATOM     33  C   UNL     1     108.664 129.571 140.726  0.00  0.00    +0.000 C 
ENDBRANCH  31  33
BRANCH  27  34
ATOM     34  O   UNL     1     110.617 131.278 138.688  0.00  0.00    +0.000 OA
BRANCH  34  40
ATOM     35  O   UNL     1     109.500 132.075 138.159  0.00  0.00    +0.000 OA
ATOM     36  O   UNL     1     109.850 133.393 136.781  0.00  0.00    +0.000 OA
ATOM     37  O   UNL     1     111.521 132.275 137.499  0.00  0.00    +0.000 OA
ATOM     38  C   UNL     1     110.172 132.816 137.275  0.00  0.00    +0.000 C 
ATOM     39  C   UNL     1     110.710 132.313 137.647  0.00  0.00    +0.000 C 
ATOM     40  C   UNL     1     110.295 131.855 138.193  0.00  0.00    +0.000 C 
ATOM     41  C   UNL     1     109.425 132.669 137.591  0.00  0.00    +0.000 C 
BRANCH  38  43
ATOM     42  O   UNL     1     110.638 133.776 136.325  0.00  0.00    +0.000 OA
ATOM     43  C   UNL     1     110.783 133.134 136.821  0.00  0.00    +0.000 C 
ENDBRANCH  38  43
ENDBRANCH  34  40
ENDBRANCH  27  34
ENDBRANCH  23  30
ENDBRANCH   1  23
TORSDOF 9
ENDMDL
MODEL 9
REMARK VINA RESULT:      -8.6      1.783      6.776
REMARK  Name = 42608079
REMARK  9 active torsions:
REMARK  status: ('A' for Active; 'I' for Inactive)
REMARK    1  A    between atoms: O_1  and  C_16
REMARK    2  A    between atoms: O_1  and  C_20
REMARK    3  A    between atoms: O_5  and  C_22
REMARK    4  A    between atoms: O_5  and  C_27
REMARK    5  A    between atoms: O_12  and  C_28
REMARK    6  A    between atoms: O_15  and  C_41
REMARK    7  A    between atoms: C_17  and  C_25
REMARK    8  A    between atoms: C_23  and  C_26
REMARK    9  A    between atoms: C_30  and  C_31
REMARK                            x       y       z     vdW  Elec       q    Type
REMARK                         _______ _______ _______ _____ _____    ______ ____
ROOT
ATOM      1  C   UNL     1     112.625 127.705 139.110  0.00  0.00    +0.000 A 
ATOM      2  C   UNL     1     113.188 127.674 139.713  0.00  0.00    +0.000 A 
ATOM      3  C   UNL     1     111.969 128.201 139.183  0.00  0.00    +0.000 A 
ATOM      4  C   UNL     1     112.440 128.635 140.462  0.00  0.00    +0.000 A 
ATOM      5  C   UNL     1     113.095 128.139 140.388  0.00  0.00    +0.000 A 
ATOM      6  C   UNL     1     111.877 128.666 139.859  0.00  0.00    +0.000 A 
ENDROOT
BRANCH   4  10
ATOM      7  O   UNL     1     112.071 128.761 141.836  0.00  0.00    +0.000 OA
ATOM      8  O   UNL     1     112.625 131.173 141.764  0.00  0.00    +0.000 OA
ATOM      9  O   UNL     1     112.258 131.327 143.150  0.00  0.00    +0.000 OA
ATOM     10  C   UNL     1     112.348 129.100 141.137  0.00  0.00    +0.000 C 
ATOM     11  C   UNL     1     112.532 129.903 141.113  0.00  0.00    +0.000 C 
ATOM     12  C   UNL     1     112.440 130.368 141.788  0.00  0.00    +0.000 C 
ATOM     13  C   UNL     1     112.163 130.030 142.487  0.00  0.00    +0.000 A 
ATOM     14  C   UNL     1     111.978 129.226 142.511  0.00  0.00    +0.000 A 
ATOM     15  C   UNL     1     112.071 130.525 143.184  0.00  0.00    +0.000 A 
ATOM     16  C   UNL     1     111.689 128.861 143.234  0.00  0.00    +0.000 A 
ATOM     17  C   UNL     1     111.591 129.340 143.940  0.00  0.00    +0.000 A 
ATOM     18  C   UNL     1     111.783 130.177 143.915  0.00  0.00    +0.000 A 
BRANCH  17  19
ATOM     19  O   UNL     1     111.314 128.999 144.638  0.00  0.00    +0.000 OA
ATOM     20  C   UNL     1     111.792 128.987 145.310  0.00  0.00    +0.000 C 
ENDBRANCH  17  19
ENDBRANCH   4  10
BRANCH   2  21
ATOM     21  O   UNL     1     113.843 127.178 139.640  0.00  0.00    +0.000 OA
ATOM     22  C   UNL     1     114.213 126.882 140.315  0.00  0.00    +0.000 C 
ENDBRANCH   2  21
BRANCH   1  23
ATOM     23  O   UNL     1     112.717 127.240 138.436  0.00  0.00    +0.000 OA
BRANCH  23  30
ATOM     24  O   UNL     1     112.983 128.292 137.506  0.00  0.00    +0.000 OA
ATOM     25  O   UNL     1     111.595 127.143 135.809  0.00  0.00    +0.000 OA
ATOM     26  O   UNL     1     112.324 128.577 135.445  0.00  0.00    +0.000 OA
ATOM     27  C   UNL     1     112.156 127.191 137.123  0.00  0.00    +0.000 C 
ATOM     28  C   UNL     1     112.058 127.526 136.375  0.00  0.00    +0.000 C 
ATOM     29  C   UNL     1     112.422 128.242 136.192  0.00  0.00    +0.000 C 
ATOM     30  C   UNL     1     112.619 127.574 137.688  0.00  0.00    +0.000 C 
ATOM     31  C   UNL     1     112.885 128.626 136.758  0.00  0.00    +0.000 C 
BRANCH  31  33
ATOM     32  O   UNL     1     114.057 129.441 136.715  0.00  0.00    +0.000 OA
ATOM     33  C   UNL     1     113.249 129.343 136.576  0.00  0.00    +0.000 C 
ENDBRANCH  31  33
BRANCH  27  34
ATOM     34  O   UNL     1     111.792 126.474 137.305  0.00  0.00    +0.000 OA
BRANCH  34  40
ATOM     35  O   UNL     1     112.882 125.682 136.717  0.00  0.00    +0.000 OA
ATOM     36  O   UNL     1     112.752 123.747 136.725  0.00  0.00    +0.000 OA
ATOM     37  O   UNL     1     111.132 124.830 137.596  0.00  0.00    +0.000 OA
ATOM     38  C   UNL     1     112.391 124.458 136.933  0.00  0.00    +0.000 C 
ATOM     39  C   UNL     1     111.850 125.007 137.230  0.00  0.00    +0.000 C 
ATOM     40  C   UNL     1     112.153 125.762 137.096  0.00  0.00    +0.000 C 
ATOM     41  C   UNL     1     113.028 124.876 136.616  0.00  0.00    +0.000 C 
BRANCH  38  43
ATOM     42  O   UNL     1     112.122 123.060 137.041  0.00  0.00    +0.000 OA
ATOM     43  C   UNL     1     111.897 123.842 137.170  0.00  0.00    +0.000 C 
ENDBRANCH  38  43
ENDBRANCH  34  40
ENDBRANCH  27  34
ENDBRANCH  23  30
ENDBRANCH   1  23
TORSDOF 9
ENDMDL
MODEL 10
REMARK VINA RESULT:      -8.5      1.783      2.560
REMARK  Name = 42608079
REMARK  9 active torsions:
REMARK  status: ('A' for Active; 'I' for Inactive)
REMARK    1  A    between atoms: O_1  and  C_16
REMARK    2  A    between atoms: O_1  and  C_20
REMARK    3  A    between atoms: O_5  and  C_22
REMARK    4  A    between atoms: O_5  and  C_27
REMARK    5  A    between atoms: O_12  and  C_28
REMARK    6  A    between atoms: O_15  and  C_41
REMARK    7  A    between atoms: C_17  and  C_25
REMARK    8  A    between atoms: C_23  and  C_26
REMARK    9  A    between atoms: C_30  and  C_31
REMARK                            x       y       z     vdW  Elec       q    Type
REMARK                         _______ _______ _______ _____ _____    ______ ____
ROOT
ATOM      1  C   UNL     1     109.845 126.901 139.445  0.00  0.00    +0.000 A 
ATOM      2  C   UNL     1     109.885 127.003 138.627  0.00  0.00    +0.000 A 
ATOM      3  C   UNL     1     110.341 126.355 139.817  0.00  0.00    +0.000 A 
ATOM      4  C   UNL     1     110.914 126.015 138.552  0.00  0.00    +0.000 A 
ATOM      5  C   UNL     1     110.419 126.560 138.181  0.00  0.00    +0.000 A 
ATOM      6  C   UNL     1     110.875 125.912 139.371  0.00  0.00    +0.000 A 
ENDROOT
BRANCH   4  10
ATOM      7  O   UNL     1     112.195 125.878 137.934  0.00  0.00    +0.000 OA
ATOM      8  O   UNL     1     111.559 123.631 137.113  0.00  0.00    +0.000 OA
ATOM      9  O   UNL     1     112.844 123.467 136.480  0.00  0.00    +0.000 OA
ATOM     10  C   UNL     1     111.449 125.572 138.106  0.00  0.00    +0.000 C 
ATOM     11  C   UNL     1     111.237 124.823 137.833  0.00  0.00    +0.000 C 
ATOM     12  C   UNL     1     111.771 124.380 137.387  0.00  0.00    +0.000 C 
ATOM     13  C   UNL     1     112.517 124.686 137.214  0.00  0.00    +0.000 A 
ATOM     14  C   UNL     1     112.729 125.436 137.488  0.00  0.00    +0.000 A 
ATOM     15  C   UNL     1     113.065 124.215 136.749  0.00  0.00    +0.000 A 
ATOM     16  C   UNL     1     113.504 125.766 137.314  0.00  0.00    +0.000 A 
ATOM     17  C   UNL     1     114.064 125.309 136.850  0.00  0.00    +0.000 A 
ATOM     18  C   UNL     1     113.844 124.529 136.566  0.00  0.00    +0.000 A 
BRANCH  17  19
ATOM     19  O   UNL     1     114.810 125.617 136.679  0.00  0.00    +0.000 OA
ATOM     20  C   UNL     1     114.925 126.063 135.995  0.00  0.00    +0.000 C 
ENDBRANCH  17  19
ENDBRANCH   4  10
BRANCH   2  21
ATOM     21  O   UNL     1     109.389 127.549 138.256  0.00  0.00    +0.000 OA
ATOM     22  C   UNL     1     109.689 128.042 137.666  0.00  0.00    +0.000 C 
ENDBRANCH   2  21
BRANCH   1  23
ATOM     23  O   UNL     1     109.311 127.343 139.891  0.00  0.00    +0.000 OA
BRANCH  23  30
ATOM     24  O   UNL     1     108.424 126.288 140.264  0.00  0.00    +0.000 OA
ATOM     25  O   UNL     1     108.263 127.231 142.547  0.00  0.00    +0.000 OA
ATOM     26  O   UNL     1     107.430 125.862 142.160  0.00  0.00    +0.000 OA
ATOM     27  C   UNL     1     108.788 127.288 141.219  0.00  0.00    +0.000 C 
ATOM     28  C   UNL     1     108.317 126.917 141.786  0.00  0.00    +0.000 C 
ATOM     29  C   UNL     1     107.900 126.232 141.593  0.00  0.00    +0.000 C 
ATOM     30  C   UNL     1     108.841 126.973 140.458  0.00  0.00    +0.000 C 
ATOM     31  C   UNL     1     107.953 125.918 140.832  0.00  0.00    +0.000 C 
BRANCH  31  33
ATOM     32  O   UNL     1     107.069 125.214 139.958  0.00  0.00    +0.000 OA
ATOM     33  C   UNL     1     107.536 125.233 140.638  0.00  0.00    +0.000 C 
ENDBRANCH  31  33
BRANCH  27  34
ATOM     34  O   UNL     1     109.205 127.972 141.412  0.00  0.00    +0.000 OA
BRANCH  34  40
ATOM     35  O   UNL     1     108.064 128.848 141.107  0.00  0.00    +0.000 OA
ATOM     36  O   UNL     1     108.235 130.757 141.397  0.00  0.00    +0.000 OA
ATOM     37  O   UNL     1     109.934 129.550 141.863  0.00  0.00    +0.000 OA
ATOM     38  C   UNL     1     108.605 130.022 141.442  0.00  0.00    +0.000 C 
ATOM     39  C   UNL     1     109.169 129.433 141.574  0.00  0.00    +0.000 C 
ATOM     40  C   UNL     1     108.835 128.708 141.367  0.00  0.00    +0.000 C 
ATOM     41  C   UNL     1     107.923 129.659 141.153  0.00  0.00    +0.000 C 
BRANCH  38  43
ATOM     42  O   UNL     1     108.930 131.390 141.694  0.00  0.00    +0.000 OA
ATOM     43  C   UNL     1     109.140 130.593 141.702  0.00  0.00    +0.000 C 
ENDBRANCH  38  43
ENDBRANCH  34  40
ENDBRANCH  27  34
ENDBRANCH  23  30
ENDBRANCH   1  23
TORSDOF 9
ENDMDL
