MODEL 1
REMARK VINA RESULT:      -9.6      0.000      0.000
REMARK  Name = 44259641
REMARK  4 active torsions:
REMARK  status: ('A' for Active; 'I' for Inactive)
REMARK    1  A    between atoms: O_2  and  C_15
REMARK    2  A    between atoms: O_2  and  C_17
REMARK    3  A    between atoms: O_8  and  C_25
REMARK    4  A    between atoms: C_24  and  C_26
REMARK                            x       y       z     vdW  Elec       q    Type
REMARK                         _______ _______ _______ _____ _____    ______ ____
ROOT
ATOM      1  O   UNL     1     112.301 126.549 136.259  0.00  0.00    +0.000 OA
ATOM      2  O   UNL     1     109.843 125.709 134.993  0.00  0.00    +0.000 OA
ATOM      3  O   UNL     1     110.774 124.744 135.527  0.00  0.00    +0.000 OA
ATOM      4  C   UNL     1     110.666 127.763 135.341  0.00  0.00    +0.000 A 
ATOM      5  C   UNL     1     111.400 127.562 135.738  0.00  0.00    +0.000 A 
ATOM      6  C   UNL     1     110.135 127.137 135.086  0.00  0.00    +0.000 A 
ATOM      7  C   UNL     1     111.595 126.736 135.877  0.00  0.00    +0.000 A 
ATOM      8  C   UNL     1     111.086 126.134 135.633  0.00  0.00    +0.000 A 
ATOM      9  C   UNL     1     110.346 126.316 135.234  0.00  0.00    +0.000 A 
ATOM     10  C   UNL     1     111.283 125.345 135.771  0.00  0.00    +0.000 A 
ATOM     11  C   UNL     1     112.499 125.760 136.397  0.00  0.00    +0.000 A 
ATOM     12  C   UNL     1     111.990 125.158 136.153  0.00  0.00    +0.000 A 
ENDROOT
BRANCH  11  14
ATOM     13  O   UNL     1     115.325 125.009 137.927  0.00  0.00    +0.000 OA
ATOM     14  C   UNL     1     113.205 125.572 136.779  0.00  0.00    +0.000 A 
ATOM     15  C   UNL     1     113.871 125.364 136.338  0.00  0.00    +0.000 A 
ATOM     16  C   UNL     1     113.247 125.593 137.603  0.00  0.00    +0.000 A 
ATOM     17  C   UNL     1     114.577 125.176 136.720  0.00  0.00    +0.000 A 
ATOM     18  C   UNL     1     113.954 125.405 137.985  0.00  0.00    +0.000 A 
ATOM     19  C   UNL     1     114.619 125.197 137.544  0.00  0.00    +0.000 A 
ENDBRANCH  11  14
BRANCH  12  20
ATOM     20  O   UNL     1     112.187 124.369 136.292  0.00  0.00    +0.000 OA
ATOM     21  C   UNL     1     111.595 123.819 136.461  0.00  0.00    +0.000 C 
ENDBRANCH  12  20
BRANCH   4  22
ATOM     22  O   UNL     1     110.471 128.553 135.204  0.00  0.00    +0.000 OA
BRANCH  22  31
ATOM     23  O   UNL     1     110.082 128.889 136.537  0.00  0.00    +0.000 OA
ATOM     24  O   UNL     1     108.222 130.260 135.649  0.00  0.00    +0.000 OA
ATOM     25  O   UNL     1     108.453 130.138 137.279  0.00  0.00    +0.000 OA
ATOM     26  O   UNL     1     109.231 129.467 134.612  0.00  0.00    +0.000 OA
ATOM     27  C   UNL     1     108.842 129.803 135.945  0.00  0.00    +0.000 C 
ATOM     28  C   UNL     1     108.957 129.742 136.759  0.00  0.00    +0.000 C 
ATOM     29  C   UNL     1     109.346 129.407 135.427  0.00  0.00    +0.000 C 
ATOM     30  C   UNL     1     109.577 129.285 137.055  0.00  0.00    +0.000 C 
ATOM     31  C   UNL     1     109.966 128.950 135.723  0.00  0.00    +0.000 C 
ATOM     32  C   UNL     1     109.692 129.224 137.871  0.00  0.00    +0.000 C 
ENDBRANCH  22  31
ENDBRANCH   4  22
TORSDOF 4
ENDMDL
MODEL 2
REMARK VINA RESULT:      -9.3      3.527      4.659
REMARK  Name = 44259641
REMARK  4 active torsions:
REMARK  status: ('A' for Active; 'I' for Inactive)
REMARK    1  A    between atoms: O_2  and  C_15
REMARK    2  A    between atoms: O_2  and  C_17
REMARK    3  A    between atoms: O_8  and  C_25
REMARK    4  A    between atoms: C_24  and  C_26
REMARK                            x       y       z     vdW  Elec       q    Type
REMARK                         _______ _______ _______ _____ _____    ______ ____
ROOT
ATOM      1  O   UNL     1     113.581 126.337 138.793  0.00  0.00    +0.000 OA
ATOM      2  O   UNL     1     110.936 126.170 139.944  0.00  0.00    +0.000 OA
ATOM      3  O   UNL     1     111.242 125.537 138.685  0.00  0.00    +0.000 OA
ATOM      4  C   UNL     1     112.783 127.189 140.698  0.00  0.00    +0.000 A 
ATOM      5  C   UNL     1     113.328 126.993 140.063  0.00  0.00    +0.000 A 
ATOM      6  C   UNL     1     111.971 126.911 140.661  0.00  0.00    +0.000 A 
ATOM      7  C   UNL     1     113.054 126.522 139.399  0.00  0.00    +0.000 A 
ATOM      8  C   UNL     1     112.274 126.255 139.363  0.00  0.00    +0.000 A 
ATOM      9  C   UNL     1     111.714 126.441 139.988  0.00  0.00    +0.000 A 
ATOM     10  C   UNL     1     112.021 125.803 138.720  0.00  0.00    +0.000 A 
ATOM     11  C   UNL     1     113.329 125.885 138.150  0.00  0.00    +0.000 A 
ATOM     12  C   UNL     1     112.549 125.618 138.113  0.00  0.00    +0.000 A 
ENDROOT
BRANCH  11  14
ATOM     13  O   UNL     1     115.439 125.146 135.723  0.00  0.00    +0.000 OA
ATOM     14  C   UNL     1     113.857 125.700 137.543  0.00  0.00    +0.000 A 
ATOM     15  C   UNL     1     114.335 125.031 137.603  0.00  0.00    +0.000 A 
ATOM     16  C   UNL     1     113.906 126.185 136.877  0.00  0.00    +0.000 A 
ATOM     17  C   UNL     1     114.863 124.846 136.996  0.00  0.00    +0.000 A 
ATOM     18  C   UNL     1     114.433 125.999 136.270  0.00  0.00    +0.000 A 
ATOM     19  C   UNL     1     114.912 125.330 136.330  0.00  0.00    +0.000 A 
ENDBRANCH  11  14
BRANCH  12  20
ATOM     20  O   UNL     1     112.297 125.166 137.471  0.00  0.00    +0.000 OA
ATOM     21  C   UNL     1     111.589 124.745 137.516  0.00  0.00    +0.000 C 
ENDBRANCH  12  20
BRANCH   4  22
ATOM     22  O   UNL     1     113.038 127.641 141.339  0.00  0.00    +0.000 OA
BRANCH  22  31
ATOM     23  O   UNL     1     113.266 128.892 140.686  0.00  0.00    +0.000 OA
ATOM     24  O   UNL     1     112.122 130.067 142.540  0.00  0.00    +0.000 OA
ATOM     25  O   UNL     1     112.731 130.926 141.269  0.00  0.00    +0.000 OA
ATOM     26  O   UNL     1     112.276 128.425 142.575  0.00  0.00    +0.000 OA
ATOM     27  C   UNL     1     112.504 129.675 141.922  0.00  0.00    +0.000 C 
ATOM     28  C   UNL     1     112.808 130.105 141.287  0.00  0.00    +0.000 C 
ATOM     29  C   UNL     1     112.580 128.855 141.940  0.00  0.00    +0.000 C 
ATOM     30  C   UNL     1     113.189 129.713 140.669  0.00  0.00    +0.000 C 
ATOM     31  C   UNL     1     112.961 128.463 141.322  0.00  0.00    +0.000 C 
ATOM     32  C   UNL     1     113.493 130.142 140.033  0.00  0.00    +0.000 C 
ENDBRANCH  22  31
ENDBRANCH   4  22
TORSDOF 4
ENDMDL
MODEL 3
REMARK VINA RESULT:      -9.2      9.282     11.971
REMARK  Name = 44259641
REMARK  4 active torsions:
REMARK  status: ('A' for Active; 'I' for Inactive)
REMARK    1  A    between atoms: O_2  and  C_15
REMARK    2  A    between atoms: O_2  and  C_17
REMARK    3  A    between atoms: O_8  and  C_25
REMARK    4  A    between atoms: C_24  and  C_26
REMARK                            x       y       z     vdW  Elec       q    Type
REMARK                         _______ _______ _______ _____ _____    ______ ____
ROOT
ATOM      1  O   UNL     1     103.125 132.911 140.908  0.00  0.00    +0.000 OA
ATOM      2  O   UNL     1     100.738 132.136 142.340  0.00  0.00    +0.000 OA
ATOM      3  O   UNL     1     101.131 133.521 142.242  0.00  0.00    +0.000 OA
ATOM      4  C   UNL     1     102.243 130.887 141.247  0.00  0.00    +0.000 A 
ATOM      5  C   UNL     1     102.775 131.503 140.976  0.00  0.00    +0.000 A 
ATOM      6  C   UNL     1     101.550 131.098 141.710  0.00  0.00    +0.000 A 
ATOM      7  C   UNL     1     102.610 132.324 141.171  0.00  0.00    +0.000 A 
ATOM      8  C   UNL     1     101.945 132.527 141.616  0.00  0.00    +0.000 A 
ATOM      9  C   UNL     1     101.400 131.924 141.896  0.00  0.00    +0.000 A 
ATOM     10  C   UNL     1     101.796 133.318 141.797  0.00  0.00    +0.000 A 
ATOM     11  C   UNL     1     102.976 133.702 141.089  0.00  0.00    +0.000 A 
ATOM     12  C   UNL     1     102.311 133.906 141.534  0.00  0.00    +0.000 A 
ENDROOT
BRANCH  11  14
ATOM     13  O   UNL     1     105.038 136.054 140.036  0.00  0.00    +0.000 OA
ATOM     14  C   UNL     1     103.492 134.290 140.826  0.00  0.00    +0.000 A 
ATOM     15  C   UNL     1     104.060 134.601 141.338  0.00  0.00    +0.000 A 
ATOM     16  C   UNL     1     103.440 134.568 140.051  0.00  0.00    +0.000 A 
ATOM     17  C   UNL     1     104.575 135.189 141.075  0.00  0.00    +0.000 A 
ATOM     18  C   UNL     1     103.955 135.156 139.788  0.00  0.00    +0.000 A 
ATOM     19  C   UNL     1     104.523 135.466 140.300  0.00  0.00    +0.000 A 
ENDBRANCH  11  14
BRANCH  12  20
ATOM     20  O   UNL     1     102.162 134.697 141.716  0.00  0.00    +0.000 OA
ATOM     21  C   UNL     1     101.403 134.933 141.937  0.00  0.00    +0.000 C 
ENDBRANCH  12  20
BRANCH   4  22
ATOM     22  O   UNL     1     102.394 130.097 141.064  0.00  0.00    +0.000 OA
BRANCH  22  31
ATOM     23  O   UNL     1     103.199 129.878 142.225  0.00  0.00    +0.000 OA
ATOM     24  O   UNL     1     104.467 128.130 141.016  0.00  0.00    +0.000 OA
ATOM     25  O   UNL     1     104.849 128.494 142.580  0.00  0.00    +0.000 OA
ATOM     26  O   UNL     1     103.240 128.931 140.258  0.00  0.00    +0.000 OA
ATOM     27  C   UNL     1     104.044 128.713 141.419  0.00  0.00    +0.000 C 
ATOM     28  C   UNL     1     104.235 128.894 142.200  0.00  0.00    +0.000 C 
ATOM     29  C   UNL     1     103.431 129.113 141.040  0.00  0.00    +0.000 C 
ATOM     30  C   UNL     1     103.812 129.477 142.603  0.00  0.00    +0.000 C 
ATOM     31  C   UNL     1     103.008 129.696 141.443  0.00  0.00    +0.000 C 
ATOM     32  C   UNL     1     104.003 129.660 143.385  0.00  0.00    +0.000 C 
ENDBRANCH  22  31
ENDBRANCH   4  22
TORSDOF 4
ENDMDL
MODEL 4
REMARK VINA RESULT:      -9.2      2.145      3.047
REMARK  Name = 44259641
REMARK  4 active torsions:
REMARK  status: ('A' for Active; 'I' for Inactive)
REMARK    1  A    between atoms: O_2  and  C_15
REMARK    2  A    between atoms: O_2  and  C_17
REMARK    3  A    between atoms: O_8  and  C_25
REMARK    4  A    between atoms: C_24  and  C_26
REMARK                            x       y       z     vdW  Elec       q    Type
REMARK                         _______ _______ _______ _____ _____    ______ ____
ROOT
ATOM      1  O   UNL     1     112.213 126.746 136.398  0.00  0.00    +0.000 OA
ATOM      2  O   UNL     1     110.823 128.542 134.612  0.00  0.00    +0.000 OA
ATOM      3  O   UNL     1     110.503 127.136 134.652  0.00  0.00    +0.000 OA
ATOM      4  C   UNL     1     112.458 128.945 136.090  0.00  0.00    +0.000 A 
ATOM      5  C   UNL     1     112.575 128.152 136.398  0.00  0.00    +0.000 A 
ATOM      6  C   UNL     1     111.864 129.081 135.483  0.00  0.00    +0.000 A 
ATOM      7  C   UNL     1     112.096 127.504 136.097  0.00  0.00    +0.000 A 
ATOM      8  C   UNL     1     111.526 127.634 135.515  0.00  0.00    +0.000 A 
ATOM      9  C   UNL     1     111.395 128.421 135.194  0.00  0.00    +0.000 A 
ATOM     10  C   UNL     1     111.073 127.005 135.234  0.00  0.00    +0.000 A 
ATOM     11  C   UNL     1     111.760 126.116 136.117  0.00  0.00    +0.000 A 
ATOM     12  C   UNL     1     111.189 126.246 135.534  0.00  0.00    +0.000 A 
ENDROOT
BRANCH  11  14
ATOM     13  O   UNL     1     112.226 123.078 137.318  0.00  0.00    +0.000 OA
ATOM     14  C   UNL     1     111.876 125.356 136.417  0.00  0.00    +0.000 A 
ATOM     15  C   UNL     1     111.429 125.094 137.059  0.00  0.00    +0.000 A 
ATOM     16  C   UNL     1     112.439 124.860 136.076  0.00  0.00    +0.000 A 
ATOM     17  C   UNL     1     111.546 124.334 137.359  0.00  0.00    +0.000 A 
ATOM     18  C   UNL     1     112.556 124.100 136.376  0.00  0.00    +0.000 A 
ATOM     19  C   UNL     1     112.109 123.837 137.018  0.00  0.00    +0.000 A 
ENDBRANCH  11  14
BRANCH  12  20
ATOM     20  O   UNL     1     110.736 125.617 135.252  0.00  0.00    +0.000 OA
ATOM     21  C   UNL     1     110.098 125.761 134.750  0.00  0.00    +0.000 C 
ENDBRANCH  12  20
BRANCH   4  22
ATOM     22  O   UNL     1     112.913 129.572 136.373  0.00  0.00    +0.000 OA
BRANCH  22  31
ATOM     23  O   UNL     1     111.948 129.988 137.342  0.00  0.00    +0.000 OA
ATOM     24  O   UNL     1     113.770 130.797 138.809  0.00  0.00    +0.000 OA
ATOM     25  O   UNL     1     112.198 130.943 139.288  0.00  0.00    +0.000 OA
ATOM     26  O   UNL     1     114.127 130.111 137.351  0.00  0.00    +0.000 OA
ATOM     27  C   UNL     1     113.162 130.527 138.320  0.00  0.00    +0.000 C 
ATOM     28  C   UNL     1     112.377 130.600 138.559  0.00  0.00    +0.000 C 
ATOM     29  C   UNL     1     113.341 130.185 137.592  0.00  0.00    +0.000 C 
ATOM     30  C   UNL     1     111.770 130.331 138.070  0.00  0.00    +0.000 C 
ATOM     31  C   UNL     1     112.734 129.915 137.103  0.00  0.00    +0.000 C 
ATOM     32  C   UNL     1     110.983 130.404 138.310  0.00  0.00    +0.000 C 
ENDBRANCH  22  31
ENDBRANCH   4  22
TORSDOF 4
ENDMDL
MODEL 5
REMARK VINA RESULT:      -9.2      2.590      3.754
REMARK  Name = 44259641
REMARK  4 active torsions:
REMARK  status: ('A' for Active; 'I' for Inactive)
REMARK    1  A    between atoms: O_2  and  C_15
REMARK    2  A    between atoms: O_2  and  C_17
REMARK    3  A    between atoms: O_8  and  C_25
REMARK    4  A    between atoms: C_24  and  C_26
REMARK                            x       y       z     vdW  Elec       q    Type
REMARK                         _______ _______ _______ _____ _____    ______ ____
ROOT
ATOM      1  O   UNL     1     112.264 126.613 136.512  0.00  0.00    +0.000 OA
ATOM      2  O   UNL     1     110.956 128.521 134.782  0.00  0.00    +0.000 OA
ATOM      3  O   UNL     1     110.563 127.133 134.792  0.00  0.00    +0.000 OA
ATOM      4  C   UNL     1     112.622 128.803 136.253  0.00  0.00    +0.000 A 
ATOM      5  C   UNL     1     112.699 127.998 136.542  0.00  0.00    +0.000 A 
ATOM      6  C   UNL     1     112.031 128.984 135.655  0.00  0.00    +0.000 A 
ATOM      7  C   UNL     1     112.185 127.383 136.231  0.00  0.00    +0.000 A 
ATOM      8  C   UNL     1     111.618 127.557 135.658  0.00  0.00    +0.000 A 
ATOM      9  C   UNL     1     111.525 128.356 135.356  0.00  0.00    +0.000 A 
ATOM     10  C   UNL     1     111.130 126.959 135.366  0.00  0.00    +0.000 A 
ATOM     11  C   UNL     1     111.776 126.014 136.221  0.00  0.00    +0.000 A 
ATOM     12  C   UNL     1     111.209 126.188 135.648  0.00  0.00    +0.000 A 
ENDROOT
BRANCH  11  14
ATOM     13  O   UNL     1     112.093 122.929 137.347  0.00  0.00    +0.000 OA
ATOM     14  C   UNL     1     111.855 125.243 136.503  0.00  0.00    +0.000 A 
ATOM     15  C   UNL     1     111.431 125.001 137.168  0.00  0.00    +0.000 A 
ATOM     16  C   UNL     1     112.359 124.713 136.120  0.00  0.00    +0.000 A 
ATOM     17  C   UNL     1     111.510 124.230 137.450  0.00  0.00    +0.000 A 
ATOM     18  C   UNL     1     112.438 123.942 136.401  0.00  0.00    +0.000 A 
ATOM     19  C   UNL     1     112.013 123.700 137.066  0.00  0.00    +0.000 A 
ENDBRANCH  11  14
BRANCH  12  20
ATOM     20  O   UNL     1     110.721 125.590 135.356  0.00  0.00    +0.000 OA
ATOM     21  C   UNL     1     110.021 125.783 134.964  0.00  0.00    +0.000 C 
ENDBRANCH  12  20
BRANCH   4  22
ATOM     22  O   UNL     1     113.111 129.398 136.546  0.00  0.00    +0.000 OA
BRANCH  22  31
ATOM     23  O   UNL     1     114.138 129.169 135.579  0.00  0.00    +0.000 OA
ATOM     24  O   UNL     1     114.819 131.543 135.740  0.00  0.00    +0.000 OA
ATOM     25  O   UNL     1     115.619 130.523 134.719  0.00  0.00    +0.000 OA
ATOM     26  O   UNL     1     113.565 130.981 136.654  0.00  0.00    +0.000 OA
ATOM     27  C   UNL     1     114.592 130.752 135.686  0.00  0.00    +0.000 C 
ATOM     28  C   UNL     1     114.992 130.242 135.176  0.00  0.00    +0.000 C 
ATOM     29  C   UNL     1     113.966 130.471 136.143  0.00  0.00    +0.000 C 
ATOM     30  C   UNL     1     114.765 129.451 135.123  0.00  0.00    +0.000 C 
ATOM     31  C   UNL     1     113.739 129.680 136.089  0.00  0.00    +0.000 C 
ATOM     32  C   UNL     1     115.165 128.940 134.612  0.00  0.00    +0.000 C 
ENDBRANCH  22  31
ENDBRANCH   4  22
TORSDOF 4
ENDMDL
MODEL 6
REMARK VINA RESULT:      -9.1      1.245      2.254
REMARK  Name = 44259641
REMARK  4 active torsions:
REMARK  status: ('A' for Active; 'I' for Inactive)
REMARK    1  A    between atoms: O_2  and  C_15
REMARK    2  A    between atoms: O_2  and  C_17
REMARK    3  A    between atoms: O_8  and  C_25
REMARK    4  A    between atoms: C_24  and  C_26
REMARK                            x       y       z     vdW  Elec       q    Type
REMARK                         _______ _______ _______ _____ _____    ______ ____
ROOT
ATOM      1  O   UNL     1     111.537 126.779 136.181  0.00  0.00    +0.000 OA
ATOM      2  O   UNL     1     113.326 129.012 135.780  0.00  0.00    +0.000 OA
ATOM      3  O   UNL     1     113.814 127.746 136.269  0.00  0.00    +0.000 OA
ATOM      4  C   UNL     1     111.117 128.847 135.448  0.00  0.00    +0.000 A 
ATOM      5  C   UNL     1     110.993 128.032 135.687  0.00  0.00    +0.000 A 
ATOM      6  C   UNL     1     111.907 129.183 135.478  0.00  0.00    +0.000 A 
ATOM      7  C   UNL     1     111.662 127.561 135.954  0.00  0.00    +0.000 A 
ATOM      8  C   UNL     1     112.421 127.884 135.983  0.00  0.00    +0.000 A 
ATOM      9  C   UNL     1     112.564 128.698 135.748  0.00  0.00    +0.000 A 
ATOM     10  C   UNL     1     113.055 127.423 136.240  0.00  0.00    +0.000 A 
ATOM     11  C   UNL     1     112.171 126.318 136.439  0.00  0.00    +0.000 A 
ATOM     12  C   UNL     1     112.930 126.640 136.468  0.00  0.00    +0.000 A 
ENDROOT
BRANCH  11  14
ATOM     13  O   UNL     1     111.673 123.186 137.351  0.00  0.00    +0.000 OA
ATOM     14  C   UNL     1     112.046 125.535 136.667  0.00  0.00    +0.000 A 
ATOM     15  C   UNL     1     111.896 125.355 137.458  0.00  0.00    +0.000 A 
ATOM     16  C   UNL     1     112.072 124.932 136.105  0.00  0.00    +0.000 A 
ATOM     17  C   UNL     1     111.772 124.572 137.687  0.00  0.00    +0.000 A 
ATOM     18  C   UNL     1     111.948 124.149 136.333  0.00  0.00    +0.000 A 
ATOM     19  C   UNL     1     111.797 123.969 137.124  0.00  0.00    +0.000 A 
ENDBRANCH  11  14
BRANCH  12  20
ATOM     20  O   UNL     1     113.565 126.180 136.726  0.00  0.00    +0.000 OA
ATOM     21  C   UNL     1     114.331 126.357 136.477  0.00  0.00    +0.000 C 
ENDBRANCH  12  20
BRANCH   4  22
ATOM     22  O   UNL     1     110.481 129.305 135.191  0.00  0.00    +0.000 OA
BRANCH  22  31
ATOM     23  O   UNL     1     110.277 130.061 136.386  0.00  0.00    +0.000 OA
ATOM     24  O   UNL     1     107.827 129.851 136.101  0.00  0.00    +0.000 OA
ATOM     25  O   UNL     1     108.439 130.677 137.391  0.00  0.00    +0.000 OA
ATOM     26  O   UNL     1     108.848 129.165 135.001  0.00  0.00    +0.000 OA
ATOM     27  C   UNL     1     108.644 129.921 136.196  0.00  0.00    +0.000 C 
ATOM     28  C   UNL     1     108.949 130.334 136.841  0.00  0.00    +0.000 C 
ATOM     29  C   UNL     1     109.153 129.578 135.646  0.00  0.00    +0.000 C 
ATOM     30  C   UNL     1     109.766 130.404 136.936  0.00  0.00    +0.000 C 
ATOM     31  C   UNL     1     109.970 129.648 135.741  0.00  0.00    +0.000 C 
ATOM     32  C   UNL     1     110.072 130.817 137.582  0.00  0.00    +0.000 C 
ENDBRANCH  22  31
ENDBRANCH   4  22
TORSDOF 4
ENDMDL
MODEL 7
REMARK VINA RESULT:      -9.0      2.956      4.688
REMARK  Name = 44259641
REMARK  4 active torsions:
REMARK  status: ('A' for Active; 'I' for Inactive)
REMARK    1  A    between atoms: O_2  and  C_15
REMARK    2  A    between atoms: O_2  and  C_17
REMARK    3  A    between atoms: O_8  and  C_25
REMARK    4  A    between atoms: C_24  and  C_26
REMARK                            x       y       z     vdW  Elec       q    Type
REMARK                         _______ _______ _______ _____ _____    ______ ____
ROOT
ATOM      1  O   UNL     1     112.026 126.660 137.541  0.00  0.00    +0.000 OA
ATOM      2  O   UNL     1     114.511 125.832 138.759  0.00  0.00    +0.000 OA
ATOM      3  O   UNL     1     113.999 125.167 137.585  0.00  0.00    +0.000 OA
ATOM      4  C   UNL     1     113.086 127.461 139.336  0.00  0.00    +0.000 A 
ATOM      5  C   UNL     1     112.495 127.363 138.721  0.00  0.00    +0.000 A 
ATOM      6  C   UNL     1     113.772 126.943 139.352  0.00  0.00    +0.000 A 
ATOM      7  C   UNL     1     112.596 126.748 138.128  0.00  0.00    +0.000 A 
ATOM      8  C   UNL     1     113.254 126.251 138.144  0.00  0.00    +0.000 A 
ATOM      9  C   UNL     1     113.857 126.333 138.752  0.00  0.00    +0.000 A 
ATOM     10  C   UNL     1     113.341 125.664 137.570  0.00  0.00    +0.000 A 
ATOM     11  C   UNL     1     112.112 126.073 136.967  0.00  0.00    +0.000 A 
ATOM     12  C   UNL     1     112.770 125.575 136.981  0.00  0.00    +0.000 A 
ENDROOT
BRANCH  11  14
ATOM     13  O   UNL     1     109.828 125.715 134.612  0.00  0.00    +0.000 OA
ATOM     14  C   UNL     1     111.541 125.984 136.378  0.00  0.00    +0.000 A 
ATOM     15  C   UNL     1     111.583 126.438 135.690  0.00  0.00    +0.000 A 
ATOM     16  C   UNL     1     110.928 125.440 136.476  0.00  0.00    +0.000 A 
ATOM     17  C   UNL     1     111.012 126.349 135.102  0.00  0.00    +0.000 A 
ATOM     18  C   UNL     1     110.357 125.351 135.887  0.00  0.00    +0.000 A 
ATOM     19  C   UNL     1     110.399 125.805 135.200  0.00  0.00    +0.000 A 
ENDBRANCH  11  14
BRANCH  12  20
ATOM     20  O   UNL     1     112.857 124.989 136.408  0.00  0.00    +0.000 OA
ATOM     21  C   UNL     1     113.434 124.406 136.498  0.00  0.00    +0.000 C 
ENDBRANCH  12  20
BRANCH   4  22
ATOM     22  O   UNL     1     112.996 128.048 139.908  0.00  0.00    +0.000 OA
BRANCH  22  31
ATOM     23  O   UNL     1     113.353 129.158 139.081  0.00  0.00    +0.000 OA
ATOM     24  O   UNL     1     114.528 130.204 140.992  0.00  0.00    +0.000 OA
ATOM     25  O   UNL     1     114.494 130.965 139.528  0.00  0.00    +0.000 OA
ATOM     26  O   UNL     1     113.780 128.746 141.182  0.00  0.00    +0.000 OA
ATOM     27  C   UNL     1     114.137 129.855 140.355  0.00  0.00    +0.000 C 
ATOM     28  C   UNL     1     114.119 130.235 139.624  0.00  0.00    +0.000 C 
ATOM     29  C   UNL     1     113.763 129.127 140.450  0.00  0.00    +0.000 C 
ATOM     30  C   UNL     1     113.728 129.887 138.987  0.00  0.00    +0.000 C 
ATOM     31  C   UNL     1     113.371 128.778 139.813  0.00  0.00    +0.000 C 
ATOM     32  C   UNL     1     113.710 130.267 138.254  0.00  0.00    +0.000 C 
ENDBRANCH  22  31
ENDBRANCH   4  22
TORSDOF 4
ENDMDL
MODEL 8
REMARK VINA RESULT:      -8.9      1.830      5.579
REMARK  Name = 44259641
REMARK  4 active torsions:
REMARK  status: ('A' for Active; 'I' for Inactive)
REMARK    1  A    between atoms: O_2  and  C_15
REMARK    2  A    between atoms: O_2  and  C_17
REMARK    3  A    between atoms: O_8  and  C_25
REMARK    4  A    between atoms: C_24  and  C_26
REMARK                            x       y       z     vdW  Elec       q    Type
REMARK                         _______ _______ _______ _____ _____    ______ ____
ROOT
ATOM      1  O   UNL     1     110.094 130.198 136.617  0.00  0.00    +0.000 OA
ATOM      2  O   UNL     1     108.030 128.464 135.578  0.00  0.00    +0.000 OA
ATOM      3  O   UNL     1     107.717 129.785 136.065  0.00  0.00    +0.000 OA
ATOM      4  C   UNL     1     110.234 128.125 135.796  0.00  0.00    +0.000 A 
ATOM      5  C   UNL     1     110.464 128.878 136.139  0.00  0.00    +0.000 A 
ATOM      6  C   UNL     1     109.408 127.981 135.604  0.00  0.00    +0.000 A 
ATOM      7  C   UNL     1     109.867 129.478 136.287  0.00  0.00    +0.000 A 
ATOM      8  C   UNL     1     109.074 129.340 136.103  0.00  0.00    +0.000 A 
ATOM      9  C   UNL     1     108.824 128.593 135.759  0.00  0.00    +0.000 A 
ATOM     10  C   UNL     1     108.509 129.923 136.249  0.00  0.00    +0.000 A 
ATOM     11  C   UNL     1     109.529 130.782 136.763  0.00  0.00    +0.000 A 
ATOM     12  C   UNL     1     108.736 130.644 136.579  0.00  0.00    +0.000 A 
ENDROOT
BRANCH  11  14
ATOM     13  O   UNL     1     110.438 133.666 138.085  0.00  0.00    +0.000 OA
ATOM     14  C   UNL     1     109.756 131.503 137.094  0.00  0.00    +0.000 A 
ATOM     15  C   UNL     1     110.023 132.114 136.607  0.00  0.00    +0.000 A 
ATOM     16  C   UNL     1     109.717 131.613 137.910  0.00  0.00    +0.000 A 
ATOM     17  C   UNL     1     110.250 132.835 136.937  0.00  0.00    +0.000 A 
ATOM     18  C   UNL     1     109.944 132.335 138.240  0.00  0.00    +0.000 A 
ATOM     19  C   UNL     1     110.211 132.945 137.754  0.00  0.00    +0.000 A 
ENDBRANCH  11  14
BRANCH  12  20
ATOM     20  O   UNL     1     108.171 131.227 136.725  0.00  0.00    +0.000 OA
ATOM     21  C   UNL     1     107.569 131.364 136.179  0.00  0.00    +0.000 C 
ENDBRANCH  12  20
BRANCH   4  22
ATOM     22  O   UNL     1     110.801 127.544 135.651  0.00  0.00    +0.000 OA
BRANCH  22  31
ATOM     23  O   UNL     1     110.850 127.004 136.973  0.00  0.00    +0.000 OA
ATOM     24  O   UNL     1     111.082 124.726 136.033  0.00  0.00    +0.000 OA
ATOM     25  O   UNL     1     111.053 124.945 137.668  0.00  0.00    +0.000 OA
ATOM     26  O   UNL     1     110.956 126.026 135.024  0.00  0.00    +0.000 OA
ATOM     27  C   UNL     1     111.004 125.485 136.346  0.00  0.00    +0.000 C 
ATOM     28  C   UNL     1     110.990 125.594 137.163  0.00  0.00    +0.000 C 
ATOM     29  C   UNL     1     110.941 126.134 135.842  0.00  0.00    +0.000 C 
ATOM     30  C   UNL     1     110.913 126.353 137.476  0.00  0.00    +0.000 C 
ATOM     31  C   UNL     1     110.864 126.894 136.155  0.00  0.00    +0.000 C 
ATOM     32  C   UNL     1     110.898 126.463 138.295  0.00  0.00    +0.000 C 
ENDBRANCH  22  31
ENDBRANCH   4  22
TORSDOF 4
ENDMDL
MODEL 9
REMARK VINA RESULT:      -8.8     10.671     12.421
REMARK  Name = 44259641
REMARK  4 active torsions:
REMARK  status: ('A' for Active; 'I' for Inactive)
REMARK    1  A    between atoms: O_2  and  C_15
REMARK    2  A    between atoms: O_2  and  C_17
REMARK    3  A    between atoms: O_8  and  C_25
REMARK    4  A    between atoms: C_24  and  C_26
REMARK                            x       y       z     vdW  Elec       q    Type
REMARK                         _______ _______ _______ _____ _____    ______ ____
ROOT
ATOM      1  O   UNL     1     104.139 124.425 146.061  0.00  0.00    +0.000 OA
ATOM      2  O   UNL     1     106.287 125.415 147.719  0.00  0.00    +0.000 OA
ATOM      3  O   UNL     1     105.082 124.877 148.303  0.00  0.00    +0.000 OA
ATOM      4  C   UNL     1     106.109 125.309 145.489  0.00  0.00    +0.000 A 
ATOM      5  C   UNL     1     105.329 124.956 145.421  0.00  0.00    +0.000 A 
ATOM      6  C   UNL     1     106.437 125.466 146.267  0.00  0.00    +0.000 A 
ATOM      7  C   UNL     1     104.886 124.764 146.132  0.00  0.00    +0.000 A 
ATOM      8  C   UNL     1     105.201 124.914 146.880  0.00  0.00    +0.000 A 
ATOM      9  C   UNL     1     105.980 125.267 146.968  0.00  0.00    +0.000 A 
ATOM     10  C   UNL     1     104.767 124.726 147.556  0.00  0.00    +0.000 A 
ATOM     11  C   UNL     1     103.704 124.236 146.736  0.00  0.00    +0.000 A 
ATOM     12  C   UNL     1     104.019 124.387 147.484  0.00  0.00    +0.000 A 
ENDROOT
BRANCH  11  14
ATOM     13  O   UNL     1     100.710 122.879 146.451  0.00  0.00    +0.000 OA
ATOM     14  C   UNL     1     102.955 123.897 146.665  0.00  0.00    +0.000 A 
ATOM     15  C   UNL     1     102.284 124.377 146.657  0.00  0.00    +0.000 A 
ATOM     16  C   UNL     1     102.878 123.078 146.601  0.00  0.00    +0.000 A 
ATOM     17  C   UNL     1     101.536 124.038 146.585  0.00  0.00    +0.000 A 
ATOM     18  C   UNL     1     102.129 122.739 146.530  0.00  0.00    +0.000 A 
ATOM     19  C   UNL     1     101.458 123.219 146.522  0.00  0.00    +0.000 A 
ENDBRANCH  11  14
BRANCH  12  20
ATOM     20  O   UNL     1     103.585 124.198 148.160  0.00  0.00    +0.000 OA
ATOM     21  C   UNL     1     103.715 124.612 148.862  0.00  0.00    +0.000 C 
ENDBRANCH  12  20
BRANCH   4  22
ATOM     22  O   UNL     1     106.540 125.496 144.811  0.00  0.00    +0.000 OA
BRANCH  22  31
ATOM     23  O   UNL     1     106.067 126.839 144.689  0.00  0.00    +0.000 OA
ATOM     24  O   UNL     1     106.112 126.631 142.223  0.00  0.00    +0.000 OA
ATOM     25  O   UNL     1     105.624 128.043 142.923  0.00  0.00    +0.000 OA
ATOM     26  O   UNL     1     106.570 125.357 143.167  0.00  0.00    +0.000 OA
ATOM     27  C   UNL     1     106.097 126.700 143.045  0.00  0.00    +0.000 C 
ATOM     28  C   UNL     1     105.853 127.406 143.394  0.00  0.00    +0.000 C 
ATOM     29  C   UNL     1     106.326 126.064 143.516  0.00  0.00    +0.000 C 
ATOM     30  C   UNL     1     105.838 127.475 144.216  0.00  0.00    +0.000 C 
ATOM     31  C   UNL     1     106.311 126.133 144.338  0.00  0.00    +0.000 C 
ATOM     32  C   UNL     1     105.594 128.182 144.567  0.00  0.00    +0.000 C 
ENDBRANCH  22  31
ENDBRANCH   4  22
TORSDOF 4
ENDMDL
MODEL 10
REMARK VINA RESULT:      -8.8      3.339      5.594
REMARK  Name = 44259641
REMARK  4 active torsions:
REMARK  status: ('A' for Active; 'I' for Inactive)
REMARK    1  A    between atoms: O_2  and  C_15
REMARK    2  A    between atoms: O_2  and  C_17
REMARK    3  A    between atoms: O_8  and  C_25
REMARK    4  A    between atoms: C_24  and  C_26
REMARK                            x       y       z     vdW  Elec       q    Type
REMARK                         _______ _______ _______ _____ _____    ______ ____
ROOT
ATOM      1  O   UNL     1     113.237 128.625 139.475  0.00  0.00    +0.000 OA
ATOM      2  O   UNL     1     111.218 128.434 137.417  0.00  0.00    +0.000 OA
ATOM      3  O   UNL     1     111.726 129.715 137.846  0.00  0.00    +0.000 OA
ATOM      4  C   UNL     1     112.248 126.828 138.591  0.00  0.00    +0.000 A 
ATOM      5  C   UNL     1     112.761 127.311 139.082  0.00  0.00    +0.000 A 
ATOM      6  C   UNL     1     111.723 127.205 138.025  0.00  0.00    +0.000 A 
ATOM      7  C   UNL     1     112.743 128.167 139.001  0.00  0.00    +0.000 A 
ATOM      8  C   UNL     1     112.239 128.530 138.458  0.00  0.00    +0.000 A 
ATOM      9  C   UNL     1     111.718 128.063 137.958  0.00  0.00    +0.000 A 
ATOM     10  C   UNL     1     112.230 129.352 138.389  0.00  0.00    +0.000 A 
ATOM     11  C   UNL     1     113.228 129.447 139.407  0.00  0.00    +0.000 A 
ATOM     12  C   UNL     1     112.725 129.811 138.863  0.00  0.00    +0.000 A 
ENDROOT
BRANCH  11  14
ATOM     13  O   UNL     1     115.207 131.284 141.305  0.00  0.00    +0.000 OA
ATOM     14  C   UNL     1     113.723 129.906 139.881  0.00  0.00    +0.000 A 
ATOM     15  C   UNL     1     114.464 130.137 139.602  0.00  0.00    +0.000 A 
ATOM     16  C   UNL     1     113.477 130.135 140.635  0.00  0.00    +0.000 A 
ATOM     17  C   UNL     1     114.959 130.597 140.076  0.00  0.00    +0.000 A 
ATOM     18  C   UNL     1     113.972 130.594 141.109  0.00  0.00    +0.000 A 
ATOM     19  C   UNL     1     114.713 130.825 140.830  0.00  0.00    +0.000 A 
ENDBRANCH  11  14
BRANCH  12  20
ATOM     20  O   UNL     1     112.715 130.633 138.795  0.00  0.00    +0.000 OA
ATOM     21  C   UNL     1     112.367 130.988 138.136  0.00  0.00    +0.000 C 
ENDBRANCH  12  20
BRANCH   4  22
ATOM     22  O   UNL     1     112.259 126.006 138.662  0.00  0.00    +0.000 OA
BRANCH  22  31
ATOM     23  O   UNL     1     113.341 125.725 137.772  0.00  0.00    +0.000 OA
ATOM     24  O   UNL     1     112.085 123.801 136.852  0.00  0.00    +0.000 OA
ATOM     25  O   UNL     1     113.586 124.161 136.269  0.00  0.00    +0.000 OA
ATOM     26  O   UNL     1     111.422 124.723 138.048  0.00  0.00    +0.000 OA
ATOM     27  C   UNL     1     112.504 124.442 137.158  0.00  0.00    +0.000 C 
ATOM     28  C   UNL     1     113.254 124.622 136.867  0.00  0.00    +0.000 C 
ATOM     29  C   UNL     1     112.172 124.903 137.756  0.00  0.00    +0.000 C 
ATOM     30  C   UNL     1     113.673 125.263 137.174  0.00  0.00    +0.000 C 
ATOM     31  C   UNL     1     112.591 125.544 138.063  0.00  0.00    +0.000 C 
ATOM     32  C   UNL     1     114.424 125.443 136.882  0.00  0.00    +0.000 C 
ENDBRANCH  22  31
ENDBRANCH   4  22
TORSDOF 4
ENDMDL
