MODEL 1
REMARK VINA RESULT:     -10.4      0.000      0.000
REMARK  Name = 5491657
REMARK  6 active torsions:
REMARK  status: ('A' for Active; 'I' for Inactive)
REMARK    1  A    between atoms: O_1  and  C_17
REMARK    2  A    between atoms: O_1  and  C_20
REMARK    3  A    between atoms: O_4  and  C_21
REMARK    4  A    between atoms: O_4  and  C_29
REMARK    5  A    between atoms: C_23  and  C_27
REMARK    6  A    between atoms: C_30  and  C_33
REMARK                            x       y       z     vdW  Elec       q    Type
REMARK                         _______ _______ _______ _____ _____    ______ ____
ROOT
ATOM      1  O   UNL     1     112.104 127.038 137.546  0.00  0.00    +0.000 OA
ENDROOT
BRANCH   1   6
ATOM      2  O   UNL     1     113.453 126.085 138.974  0.00  0.00    +0.000 OA
ATOM      3  O   UNL     1     112.450 128.307 138.543  0.00  0.00    +0.000 OA
ATOM      4  O   UNL     1     113.125 128.866 139.689  0.00  0.00    +0.000 OA
ATOM      5  O   UNL     1     114.847 127.145 141.301  0.00  0.00    +0.000 OA
ATOM      6  C   UNL     1     112.611 126.932 138.188  0.00  0.00    +0.000 A 
ATOM      7  C   UNL     1     112.945 126.191 138.332  0.00  0.00    +0.000 A 
ATOM      8  C   UNL     1     112.784 127.566 138.686  0.00  0.00    +0.000 A 
ATOM      9  C   UNL     1     113.291 127.460 139.328  0.00  0.00    +0.000 A 
ATOM     10  C   UNL     1     113.626 126.720 139.472  0.00  0.00    +0.000 A 
ATOM     11  C   UNL     1     113.464 128.129 139.840  0.00  0.00    +0.000 A 
ATOM     12  C   UNL     1     114.155 126.597 140.137  0.00  0.00    +0.000 A 
ATOM     13  C   UNL     1     113.991 128.025 140.510  0.00  0.00    +0.000 A 
ATOM     14  C   UNL     1     114.339 127.254 140.660  0.00  0.00    +0.000 A 
BRANCH   7  17
ATOM     15  O   UNL     1     113.660 124.494 136.146  0.00  0.00    +0.000 OA
ATOM     16  O   UNL     1     112.254 123.652 136.340  0.00  0.00    +0.000 OA
ATOM     17  C   UNL     1     112.773 125.557 137.834  0.00  0.00    +0.000 A 
ATOM     18  C   UNL     1     113.303 125.343 137.239  0.00  0.00    +0.000 A 
ATOM     19  C   UNL     1     112.070 125.136 137.931  0.00  0.00    +0.000 A 
ATOM     20  C   UNL     1     113.130 124.708 136.741  0.00  0.00    +0.000 A 
ATOM     21  C   UNL     1     111.896 124.501 137.433  0.00  0.00    +0.000 A 
ATOM     22  C   UNL     1     112.427 124.288 136.838  0.00  0.00    +0.000 A 
ENDBRANCH   7  17
ENDBRANCH   1   6
BRANCH   1  29
ATOM     23  O   UNL     1     113.033 127.767 136.742  0.00  0.00    +0.000 OA
ATOM     24  O   UNL     1     111.175 129.121 135.824  0.00  0.00    +0.000 OA
ATOM     25  O   UNL     1     112.722 129.398 135.326  0.00  0.00    +0.000 OA
ATOM     26  C   UNL     1     111.639 128.079 136.685  0.00  0.00    +0.000 C 
ATOM     27  C   UNL     1     111.794 128.670 136.130  0.00  0.00    +0.000 C 
ATOM     28  C   UNL     1     112.568 128.808 135.881  0.00  0.00    +0.000 C 
ATOM     29  C   UNL     1     112.258 127.628 136.991  0.00  0.00    +0.000 C 
ATOM     30  C   UNL     1     113.187 128.357 136.186  0.00  0.00    +0.000 C 
BRANCH  30  32
ATOM     31  O   UNL     1     114.406 127.880 135.613  0.00  0.00    +0.000 OA
ATOM     32  C   UNL     1     113.961 128.495 135.937  0.00  0.00    +0.000 C 
ENDBRANCH  30  32
BRANCH  26  33
ATOM     33  O   UNL     1     110.865 127.941 136.935  0.00  0.00    +0.000 OA
BRANCH  33  38
ATOM     34  O   UNL     1     110.627 127.142 135.774  0.00  0.00    +0.000 OA
ATOM     35  O   UNL     1     109.267 127.842 137.331  0.00  0.00    +0.000 OA
ATOM     36  O   UNL     1     108.229 126.994 136.368  0.00  0.00    +0.000 OA
ATOM     37  O   UNL     1     108.791 126.245 135.009  0.00  0.00    +0.000 OA
ATOM     38  C   UNL     1     110.347 127.517 136.453  0.00  0.00    +0.000 C 
ATOM     39  C   UNL     1     109.547 127.467 136.651  0.00  0.00    +0.000 C 
ATOM     40  C   UNL     1     109.028 127.043 136.170  0.00  0.00    +0.000 C 
ATOM     41  C   UNL     1     109.309 126.669 135.490  0.00  0.00    +0.000 C 
ATOM     42  C   UNL     1     110.108 126.718 135.293  0.00  0.00    +0.000 C 
ATOM     43  C   UNL     1     110.389 126.344 134.613  0.00  0.00    +0.000 C 
ENDBRANCH  33  38
ENDBRANCH  26  33
ENDBRANCH   1  29
TORSDOF 6
ENDMDL
MODEL 2
REMARK VINA RESULT:      -9.9      2.293      4.186
REMARK  Name = 5491657
REMARK  6 active torsions:
REMARK  status: ('A' for Active; 'I' for Inactive)
REMARK    1  A    between atoms: O_1  and  C_17
REMARK    2  A    between atoms: O_1  and  C_20
REMARK    3  A    between atoms: O_4  and  C_21
REMARK    4  A    between atoms: O_4  and  C_29
REMARK    5  A    between atoms: C_23  and  C_27
REMARK    6  A    between atoms: C_30  and  C_33
REMARK                            x       y       z     vdW  Elec       q    Type
REMARK                         _______ _______ _______ _____ _____    ______ ____
ROOT
ATOM      1  O   UNL     1     111.592 126.414 139.027  0.00  0.00    +0.000 OA
ENDROOT
BRANCH   1   6
ATOM      2  O   UNL     1     113.736 126.195 138.687  0.00  0.00    +0.000 OA
ATOM      3  O   UNL     1     111.601 125.310 137.802  0.00  0.00    +0.000 OA
ATOM      4  O   UNL     1     112.305 124.482 136.852  0.00  0.00    +0.000 OA
ATOM      5  O   UNL     1     115.224 124.553 136.798  0.00  0.00    +0.000 OA
ATOM      6  C   UNL     1     112.308 126.157 138.710  0.00  0.00    +0.000 A 
ATOM      7  C   UNL     1     113.020 126.452 139.005  0.00  0.00    +0.000 A 
ATOM      8  C   UNL     1     112.313 125.605 138.097  0.00  0.00    +0.000 A 
ATOM      9  C   UNL     1     113.029 125.348 137.779  0.00  0.00    +0.000 A 
ATOM     10  C   UNL     1     113.741 125.642 138.074  0.00  0.00    +0.000 A 
ATOM     11  C   UNL     1     113.022 124.772 137.141  0.00  0.00    +0.000 A 
ATOM     12  C   UNL     1     114.494 125.383 137.752  0.00  0.00    +0.000 A 
ATOM     13  C   UNL     1     113.765 124.501 136.806  0.00  0.00    +0.000 A 
ATOM     14  C   UNL     1     114.506 124.808 137.114  0.00  0.00    +0.000 A 
BRANCH   7  17
ATOM     15  O   UNL     1     113.141 129.166 139.893  0.00  0.00    +0.000 OA
ATOM     16  O   UNL     1     113.001 128.661 141.457  0.00  0.00    +0.000 OA
ATOM     17  C   UNL     1     113.015 127.004 139.618  0.00  0.00    +0.000 A 
ATOM     18  C   UNL     1     113.080 127.809 139.449  0.00  0.00    +0.000 A 
ATOM     19  C   UNL     1     112.945 126.751 140.400  0.00  0.00    +0.000 A 
ATOM     20  C   UNL     1     113.076 128.361 140.061  0.00  0.00    +0.000 A 
ATOM     21  C   UNL     1     112.940 127.304 141.013  0.00  0.00    +0.000 A 
ATOM     22  C   UNL     1     113.006 128.108 140.844  0.00  0.00    +0.000 A 
ENDBRANCH   7  17
ENDBRANCH   1   6
BRANCH   1  29
ATOM     23  O   UNL     1     111.222 127.225 137.911  0.00  0.00    +0.000 OA
ATOM     24  O   UNL     1     108.841 126.672 138.297  0.00  0.00    +0.000 OA
ATOM     25  O   UNL     1     109.265 127.667 137.052  0.00  0.00    +0.000 OA
ATOM     26  C   UNL     1     110.216 126.543 138.663  0.00  0.00    +0.000 C 
ATOM     27  C   UNL     1     109.634 126.857 138.168  0.00  0.00    +0.000 C 
ATOM     28  C   UNL     1     109.846 127.354 137.546  0.00  0.00    +0.000 C 
ATOM     29  C   UNL     1     111.010 126.727 138.534  0.00  0.00    +0.000 C 
ATOM     30  C   UNL     1     110.640 127.538 137.417  0.00  0.00    +0.000 C 
BRANCH  30  32
ATOM     31  O   UNL     1     111.253 128.742 136.949  0.00  0.00    +0.000 OA
ATOM     32  C   UNL     1     110.853 128.036 136.795  0.00  0.00    +0.000 C 
ENDBRANCH  30  32
BRANCH  26  33
ATOM     33  O   UNL     1     110.004 126.045 139.285  0.00  0.00    +0.000 OA
BRANCH  33  38
ATOM     34  O   UNL     1     109.674 127.179 140.090  0.00  0.00    +0.000 OA
ATOM     35  O   UNL     1     109.369 125.045 140.434  0.00  0.00    +0.000 OA
ATOM     36  O   UNL     1     108.722 125.680 141.813  0.00  0.00    +0.000 OA
ATOM     37  O   UNL     1     108.710 127.313 142.043  0.00  0.00    +0.000 OA
ATOM     38  C   UNL     1     109.680 126.362 139.974  0.00  0.00    +0.000 C 
ATOM     39  C   UNL     1     109.363 125.862 140.549  0.00  0.00    +0.000 C 
ATOM     40  C   UNL     1     109.039 126.179 141.239  0.00  0.00    +0.000 C 
ATOM     41  C   UNL     1     109.033 126.996 141.353  0.00  0.00    +0.000 C 
ATOM     42  C   UNL     1     109.350 127.496 140.780  0.00  0.00    +0.000 C 
ATOM     43  C   UNL     1     109.345 128.313 140.894  0.00  0.00    +0.000 C 
ENDBRANCH  33  38
ENDBRANCH  26  33
ENDBRANCH   1  29
TORSDOF 6
ENDMDL
MODEL 3
REMARK VINA RESULT:      -9.9      1.608      4.470
REMARK  Name = 5491657
REMARK  6 active torsions:
REMARK  status: ('A' for Active; 'I' for Inactive)
REMARK    1  A    between atoms: O_1  and  C_17
REMARK    2  A    between atoms: O_1  and  C_20
REMARK    3  A    between atoms: O_4  and  C_21
REMARK    4  A    between atoms: O_4  and  C_29
REMARK    5  A    between atoms: C_23  and  C_27
REMARK    6  A    between atoms: C_30  and  C_33
REMARK                            x       y       z     vdW  Elec       q    Type
REMARK                         _______ _______ _______ _____ _____    ______ ____
ROOT
ATOM      1  O   UNL     1     112.183 127.463 137.959  0.00  0.00    +0.000 OA
ENDROOT
BRANCH   1   6
ATOM      2  O   UNL     1     112.432 125.300 138.112  0.00  0.00    +0.000 OA
ATOM      3  O   UNL     1     111.573 126.975 136.505  0.00  0.00    +0.000 OA
ATOM      4  O   UNL     1     111.236 125.938 135.560  0.00  0.00    +0.000 OA
ATOM      5  O   UNL     1     111.779 123.155 136.254  0.00  0.00    +0.000 OA
ATOM      6  C   UNL     1     112.164 126.660 137.768  0.00  0.00    +0.000 A 
ATOM      7  C   UNL     1     112.451 126.102 138.304  0.00  0.00    +0.000 A 
ATOM      8  C   UNL     1     111.859 126.417 137.041  0.00  0.00    +0.000 A 
ATOM      9  C   UNL     1     111.841 125.615 136.850  0.00  0.00    +0.000 A 
ATOM     10  C   UNL     1     112.127 125.056 137.385  0.00  0.00    +0.000 A 
ATOM     11  C   UNL     1     111.520 125.373 136.090  0.00  0.00    +0.000 A 
ATOM     12  C   UNL     1     112.113 124.217 137.198  0.00  0.00    +0.000 A 
ATOM     13  C   UNL     1     111.499 124.539 135.885  0.00  0.00    +0.000 A 
ATOM     14  C   UNL     1     111.797 123.957 136.443  0.00  0.00    +0.000 A 
BRANCH   7  17
ATOM     15  O   UNL     1     112.106 126.568 141.102  0.00  0.00    +0.000 OA
ATOM     16  O   UNL     1     113.672 127.077 141.211  0.00  0.00    +0.000 OA
ATOM     17  C   UNL     1     112.756 126.346 139.030  0.00  0.00    +0.000 A 
ATOM     18  C   UNL     1     112.278 126.335 139.703  0.00  0.00    +0.000 A 
ATOM     19  C   UNL     1     113.539 126.600 139.084  0.00  0.00    +0.000 A 
ATOM     20  C   UNL     1     112.583 126.579 140.429  0.00  0.00    +0.000 A 
ATOM     21  C   UNL     1     113.844 126.844 139.811  0.00  0.00    +0.000 A 
ATOM     22  C   UNL     1     113.366 126.833 140.483  0.00  0.00    +0.000 A 
ENDBRANCH   7  17
ENDBRANCH   1   6
BRANCH   1  29
ATOM     23  O   UNL     1     110.782 127.579 138.217  0.00  0.00    +0.000 OA
ATOM     24  O   UNL     1     110.815 129.895 137.345  0.00  0.00    +0.000 OA
ATOM     25  O   UNL     1     109.404 129.240 137.893  0.00  0.00    +0.000 OA
ATOM     26  C   UNL     1     111.499 128.679 137.652  0.00  0.00    +0.000 C 
ATOM     27  C   UNL     1     110.804 129.123 137.635  0.00  0.00    +0.000 C 
ATOM     28  C   UNL     1     110.099 128.796 137.909  0.00  0.00    +0.000 C 
ATOM     29  C   UNL     1     111.488 127.907 137.942  0.00  0.00    +0.000 C 
ATOM     30  C   UNL     1     110.088 128.024 138.200  0.00  0.00    +0.000 C 
BRANCH  30  32
ATOM     31  O   UNL     1     109.321 127.448 139.259  0.00  0.00    +0.000 OA
ATOM     32  C   UNL     1     109.382 127.696 138.474  0.00  0.00    +0.000 C 
ENDBRANCH  30  32
BRANCH  26  33
ATOM     33  O   UNL     1     112.205 129.007 137.378  0.00  0.00    +0.000 OA
BRANCH  33  38
ATOM     34  O   UNL     1     112.385 129.668 138.631  0.00  0.00    +0.000 OA
ATOM     35  O   UNL     1     113.596 129.693 136.816  0.00  0.00    +0.000 OA
ATOM     36  O   UNL     1     114.471 130.698 137.789  0.00  0.00    +0.000 OA
ATOM     37  O   UNL     1     113.956 131.015 139.324  0.00  0.00    +0.000 OA
ATOM     38  C   UNL     1     112.642 129.509 137.864  0.00  0.00    +0.000 C 
ATOM     39  C   UNL     1     113.339 129.853 137.583  0.00  0.00    +0.000 C 
ATOM     40  C   UNL     1     113.776 130.355 138.069  0.00  0.00    +0.000 C 
ATOM     41  C   UNL     1     113.518 130.513 138.837  0.00  0.00    +0.000 C 
ATOM     42  C   UNL     1     112.823 130.170 139.118  0.00  0.00    +0.000 C 
ATOM     43  C   UNL     1     112.565 130.329 139.886  0.00  0.00    +0.000 C 
ENDBRANCH  33  38
ENDBRANCH  26  33
ENDBRANCH   1  29
TORSDOF 6
ENDMDL
MODEL 4
REMARK VINA RESULT:      -9.8      1.058      2.897
REMARK  Name = 5491657
REMARK  6 active torsions:
REMARK  status: ('A' for Active; 'I' for Inactive)
REMARK    1  A    between atoms: O_1  and  C_17
REMARK    2  A    between atoms: O_1  and  C_20
REMARK    3  A    between atoms: O_4  and  C_21
REMARK    4  A    between atoms: O_4  and  C_29
REMARK    5  A    between atoms: C_23  and  C_27
REMARK    6  A    between atoms: C_30  and  C_33
REMARK                            x       y       z     vdW  Elec       q    Type
REMARK                         _______ _______ _______ _____ _____    ______ ____
ROOT
ATOM      1  O   UNL     1     112.066 127.315 137.720  0.00  0.00    +0.000 OA
ENDROOT
BRANCH   1   6
ATOM      2  O   UNL     1     113.297 128.996 138.371  0.00  0.00    +0.000 OA
ATOM      3  O   UNL     1     112.334 126.911 139.297  0.00  0.00    +0.000 OA
ATOM      4  O   UNL     1     112.919 127.181 140.589  0.00  0.00    +0.000 OA
ATOM      5  O   UNL     1     114.507 129.605 140.950  0.00  0.00    +0.000 OA
ATOM      6  C   UNL     1     112.521 127.808 138.200  0.00  0.00    +0.000 A 
ATOM      7  C   UNL     1     112.841 128.503 137.891  0.00  0.00    +0.000 A 
ATOM      8  C   UNL     1     112.655 127.606 138.988  0.00  0.00    +0.000 A 
ATOM      9  C   UNL     1     113.110 128.099 139.468  0.00  0.00    +0.000 A 
ATOM     10  C   UNL     1     113.431 128.794 139.161  0.00  0.00    +0.000 A 
ATOM     11  C   UNL     1     113.244 127.878 140.289  0.00  0.00    +0.000 A 
ATOM     12  C   UNL     1     113.907 129.315 139.650  0.00  0.00    +0.000 A 
ATOM     13  C   UNL     1     113.717 128.387 140.793  0.00  0.00    +0.000 A 
ATOM     14  C   UNL     1     114.051 129.110 140.472  0.00  0.00    +0.000 A 
BRANCH   7  17
ATOM     15  O   UNL     1     111.186 129.692 135.888  0.00  0.00    +0.000 OA
ATOM     16  O   UNL     1     112.305 129.311 134.737  0.00  0.00    +0.000 OA
ATOM     17  C   UNL     1     112.707 128.705 137.103  0.00  0.00    +0.000 A 
ATOM     18  C   UNL     1     112.014 129.098 136.890  0.00  0.00    +0.000 A 
ATOM     19  C   UNL     1     113.267 128.514 136.528  0.00  0.00    +0.000 A 
ATOM     20  C   UNL     1     111.879 129.300 136.102  0.00  0.00    +0.000 A 
ATOM     21  C   UNL     1     113.132 128.717 135.739  0.00  0.00    +0.000 A 
ATOM     22  C   UNL     1     112.439 129.109 135.526  0.00  0.00    +0.000 A 
ENDBRANCH   7  17
ENDBRANCH   1   6
BRANCH   1  29
ATOM     23  O   UNL     1     113.063 126.304 137.565  0.00  0.00    +0.000 OA
ATOM     24  O   UNL     1     111.298 124.571 137.503  0.00  0.00    +0.000 OA
ATOM     25  O   UNL     1     112.883 124.139 137.369  0.00  0.00    +0.000 OA
ATOM     26  C   UNL     1     111.681 125.943 137.612  0.00  0.00    +0.000 C 
ATOM     27  C   UNL     1     111.886 125.149 137.524  0.00  0.00    +0.000 C 
ATOM     28  C   UNL     1     112.679 124.932 137.457  0.00  0.00    +0.000 C 
ATOM     29  C   UNL     1     112.269 126.521 137.632  0.00  0.00    +0.000 C 
ATOM     30  C   UNL     1     113.267 125.510 137.477  0.00  0.00    +0.000 C 
BRANCH  30  32
ATOM     31  O   UNL     1     114.508 125.562 136.770  0.00  0.00    +0.000 OA
ATOM     32  C   UNL     1     114.060 125.294 137.410  0.00  0.00    +0.000 C 
ENDBRANCH  30  32
BRANCH  26  33
ATOM     33  O   UNL     1     110.888 126.160 137.679  0.00  0.00    +0.000 OA
BRANCH  33  38
ATOM     34  O   UNL     1     110.732 126.042 136.264  0.00  0.00    +0.000 OA
ATOM     35  O   UNL     1     109.347 126.736 137.800  0.00  0.00    +0.000 OA
ATOM     36  O   UNL     1     108.420 126.906 136.446  0.00  0.00    +0.000 OA
ATOM     37  O   UNL     1     109.036 126.499 134.969  0.00  0.00    +0.000 OA
ATOM     38  C   UNL     1     110.425 126.245 137.002  0.00  0.00    +0.000 C 
ATOM     39  C   UNL     1     109.654 126.533 137.062  0.00  0.00    +0.000 C 
ATOM     40  C   UNL     1     109.191 126.618 136.385  0.00  0.00    +0.000 C 
ATOM     41  C   UNL     1     109.499 126.414 135.647  0.00  0.00    +0.000 C 
ATOM     42  C   UNL     1     110.269 126.126 135.586  0.00  0.00    +0.000 C 
ATOM     43  C   UNL     1     110.577 125.923 134.848  0.00  0.00    +0.000 C 
ENDBRANCH  33  38
ENDBRANCH  26  33
ENDBRANCH   1  29
TORSDOF 6
ENDMDL
MODEL 5
REMARK VINA RESULT:      -9.8      1.699      3.843
REMARK  Name = 5491657
REMARK  6 active torsions:
REMARK  status: ('A' for Active; 'I' for Inactive)
REMARK    1  A    between atoms: O_1  and  C_17
REMARK    2  A    between atoms: O_1  and  C_20
REMARK    3  A    between atoms: O_4  and  C_21
REMARK    4  A    between atoms: O_4  and  C_29
REMARK    5  A    between atoms: C_23  and  C_27
REMARK    6  A    between atoms: C_30  and  C_33
REMARK                            x       y       z     vdW  Elec       q    Type
REMARK                         _______ _______ _______ _____ _____    ______ ____
ROOT
ATOM      1  O   UNL     1     111.218 127.838 136.946  0.00  0.00    +0.000 OA
ENDROOT
BRANCH   1   6
ATOM      2  O   UNL     1     112.863 126.545 136.326  0.00  0.00    +0.000 OA
ATOM      3  O   UNL     1     110.705 126.381 137.528  0.00  0.00    +0.000 OA
ATOM      4  O   UNL     1     110.889 124.964 137.724  0.00  0.00    +0.000 OA
ATOM      5  O   UNL     1     113.301 123.688 136.685  0.00  0.00    +0.000 OA
ATOM      6  C   UNL     1     111.681 127.164 136.837  0.00  0.00    +0.000 A 
ATOM      7  C   UNL     1     112.400 127.219 136.436  0.00  0.00    +0.000 A 
ATOM      8  C   UNL     1     111.425 126.436 137.127  0.00  0.00    +0.000 A 
ATOM      9  C   UNL     1     111.887 125.762 137.017  0.00  0.00    +0.000 A 
ATOM     10  C   UNL     1     112.607 125.816 136.617  0.00  0.00    +0.000 A 
ATOM     11  C   UNL     1     111.610 125.009 137.325  0.00  0.00    +0.000 A 
ATOM     12  C   UNL     1     113.098 125.121 136.496  0.00  0.00    +0.000 A 
ATOM     13  C   UNL     1     112.087 124.303 137.213  0.00  0.00    +0.000 A 
ATOM     14  C   UNL     1     112.836 124.360 136.796  0.00  0.00    +0.000 A 
BRANCH   7  17
ATOM     15  O   UNL     1     114.012 129.563 136.706  0.00  0.00    +0.000 OA
ATOM     16  O   UNL     1     113.427 130.131 135.272  0.00  0.00    +0.000 OA
ATOM     17  C   UNL     1     112.657 127.946 136.145  0.00  0.00    +0.000 A 
ATOM     18  C   UNL     1     113.206 128.391 136.571  0.00  0.00    +0.000 A 
ATOM     19  C   UNL     1     112.364 128.230 135.428  0.00  0.00    +0.000 A 
ATOM     20  C   UNL     1     113.463 129.119 136.281  0.00  0.00    +0.000 A 
ATOM     21  C   UNL     1     112.621 128.959 135.137  0.00  0.00    +0.000 A 
ATOM     22  C   UNL     1     113.170 129.403 135.564  0.00  0.00    +0.000 A 
ENDBRANCH   7  17
ENDBRANCH   1   6
BRANCH   1  29
ATOM     23  O   UNL     1     111.517 127.997 138.335  0.00  0.00    +0.000 OA
ATOM     24  O   UNL     1     109.228 128.850 138.730  0.00  0.00    +0.000 OA
ATOM     25  O   UNL     1     110.290 128.725 139.985  0.00  0.00    +0.000 OA
ATOM     26  C   UNL     1     110.222 128.344 137.838  0.00  0.00    +0.000 C 
ATOM     27  C   UNL     1     109.991 128.566 138.598  0.00  0.00    +0.000 C 
ATOM     28  C   UNL     1     110.521 128.503 139.226  0.00  0.00    +0.000 C 
ATOM     29  C   UNL     1     110.986 128.060 137.706  0.00  0.00    +0.000 C 
ATOM     30  C   UNL     1     111.284 128.219 139.094  0.00  0.00    +0.000 C 
BRANCH  30  32
ATOM     31  O   UNL     1     112.528 128.573 139.702  0.00  0.00    +0.000 OA
ATOM     32  C   UNL     1     111.816 128.156 139.722  0.00  0.00    +0.000 C 
ENDBRANCH  30  32
BRANCH  26  33
ATOM     33  O   UNL     1     109.692 128.407 137.210  0.00  0.00    +0.000 OA
BRANCH  33  38
ATOM     34  O   UNL     1     109.984 129.801 137.091  0.00  0.00    +0.000 OA
ATOM     35  O   UNL     1     108.472 128.570 136.111  0.00  0.00    +0.000 OA
ATOM     36  O   UNL     1     108.154 130.045 135.443  0.00  0.00    +0.000 OA
ATOM     37  O   UNL     1     109.058 131.357 135.874  0.00  0.00    +0.000 OA
ATOM     38  C   UNL     1     109.533 129.144 136.876  0.00  0.00    +0.000 C 
ATOM     39  C   UNL     1     108.923 129.226 136.326  0.00  0.00    +0.000 C 
ATOM     40  C   UNL     1     108.764 129.964 135.992  0.00  0.00    +0.000 C 
ATOM     41  C   UNL     1     109.216 130.619 136.208  0.00  0.00    +0.000 C 
ATOM     42  C   UNL     1     109.826 130.538 136.757  0.00  0.00    +0.000 C 
ATOM     43  C   UNL     1     110.278 131.194 136.973  0.00  0.00    +0.000 C 
ENDBRANCH  33  38
ENDBRANCH  26  33
ENDBRANCH   1  29
TORSDOF 6
ENDMDL
MODEL 6
REMARK VINA RESULT:      -9.8      2.168      4.312
REMARK  Name = 5491657
REMARK  6 active torsions:
REMARK  status: ('A' for Active; 'I' for Inactive)
REMARK    1  A    between atoms: O_1  and  C_17
REMARK    2  A    between atoms: O_1  and  C_20
REMARK    3  A    between atoms: O_4  and  C_21
REMARK    4  A    between atoms: O_4  and  C_29
REMARK    5  A    between atoms: C_23  and  C_27
REMARK    6  A    between atoms: C_30  and  C_33
REMARK                            x       y       z     vdW  Elec       q    Type
REMARK                         _______ _______ _______ _____ _____    ______ ____
ROOT
ATOM      1  O   UNL     1     110.641 128.125 137.554  0.00  0.00    +0.000 OA
ENDROOT
BRANCH   1   6
ATOM      2  O   UNL     1     110.570 126.580 136.014  0.00  0.00    +0.000 OA
ATOM      3  O   UNL     1     111.413 126.885 138.321  0.00  0.00    +0.000 OA
ATOM      4  O   UNL     1     111.919 125.534 138.345  0.00  0.00    +0.000 OA
ATOM      5  O   UNL     1     111.565 123.843 135.991  0.00  0.00    +0.000 OA
ATOM      6  C   UNL     1     110.746 127.403 137.168  0.00  0.00    +0.000 A 
ATOM      7  C   UNL     1     110.465 127.302 136.399  0.00  0.00    +0.000 A 
ATOM      8  C   UNL     1     111.132 126.784 137.552  0.00  0.00    +0.000 A 
ATOM      9  C   UNL     1     111.237 126.062 137.166  0.00  0.00    +0.000 A 
ATOM     10  C   UNL     1     110.957 125.960 136.397  0.00  0.00    +0.000 A 
ATOM     11  C   UNL     1     111.641 125.423 137.576  0.00  0.00    +0.000 A 
ATOM     12  C   UNL     1     111.060 125.213 135.984  0.00  0.00    +0.000 A 
ATOM     13  C   UNL     1     111.754 124.669 137.179  0.00  0.00    +0.000 A 
ATOM     14  C   UNL     1     111.461 124.564 136.379  0.00  0.00    +0.000 A 
BRANCH   7  17
ATOM     15  O   UNL     1     108.085 128.802 135.895  0.00  0.00    +0.000 OA
ATOM     16  O   UNL     1     108.920 129.782 134.864  0.00  0.00    +0.000 OA
ATOM     17  C   UNL     1     110.079 127.921 136.016  0.00  0.00    +0.000 A 
ATOM     18  C   UNL     1     109.275 128.052 136.147  0.00  0.00    +0.000 A 
ATOM     19  C   UNL     1     110.497 128.412 135.500  0.00  0.00    +0.000 A 
ATOM     20  C   UNL     1     108.889 128.671 135.764  0.00  0.00    +0.000 A 
ATOM     21  C   UNL     1     110.111 129.032 135.116  0.00  0.00    +0.000 A 
ATOM     22  C   UNL     1     109.307 129.161 135.248  0.00  0.00    +0.000 A 
ENDBRANCH   7  17
ENDBRANCH   1   6
BRANCH   1  29
ATOM     23  O   UNL     1     112.000 128.549 137.440  0.00  0.00    +0.000 OA
ATOM     24  O   UNL     1     111.828 129.690 139.629  0.00  0.00    +0.000 OA
ATOM     25  O   UNL     1     113.244 129.734 138.786  0.00  0.00    +0.000 OA
ATOM     26  C   UNL     1     111.234 128.908 138.592  0.00  0.00    +0.000 C 
ATOM     27  C   UNL     1     111.885 129.310 138.900  0.00  0.00    +0.000 C 
ATOM     28  C   UNL     1     112.594 129.332 138.478  0.00  0.00    +0.000 C 
ATOM     29  C   UNL     1     111.291 128.527 137.862  0.00  0.00    +0.000 C 
ATOM     30  C   UNL     1     112.651 128.951 137.748  0.00  0.00    +0.000 C 
BRANCH  30  32
ATOM     31  O   UNL     1     113.376 129.293 136.565  0.00  0.00    +0.000 OA
ATOM     32  C   UNL     1     113.359 128.973 137.326  0.00  0.00    +0.000 C 
ENDBRANCH  30  32
BRANCH  26  33
ATOM     33  O   UNL     1     110.526 128.886 139.013  0.00  0.00    +0.000 OA
BRANCH  33  38
ATOM     34  O   UNL     1     110.199 130.192 138.535  0.00  0.00    +0.000 OA
ATOM     35  O   UNL     1     109.149 128.875 139.923  0.00  0.00    +0.000 OA
ATOM     36  O   UNL     1     108.134 130.176 139.899  0.00  0.00    +0.000 OA
ATOM     37  O   UNL     1     108.496 131.487 138.965  0.00  0.00    +0.000 OA
ATOM     38  C   UNL     1     110.018 129.536 139.001  0.00  0.00    +0.000 C 
ATOM     39  C   UNL     1     109.329 129.531 139.457  0.00  0.00    +0.000 C 
ATOM     40  C   UNL     1     108.822 130.181 139.445  0.00  0.00    +0.000 C 
ATOM     41  C   UNL     1     109.004 130.837 138.977  0.00  0.00    +0.000 C 
ATOM     42  C   UNL     1     109.691 130.842 138.523  0.00  0.00    +0.000 C 
ATOM     43  C   UNL     1     109.873 131.498 138.056  0.00  0.00    +0.000 C 
ENDBRANCH  33  38
ENDBRANCH  26  33
ENDBRANCH   1  29
TORSDOF 6
ENDMDL
MODEL 7
REMARK VINA RESULT:      -9.8      1.605      3.557
REMARK  Name = 5491657
REMARK  6 active torsions:
REMARK  status: ('A' for Active; 'I' for Inactive)
REMARK    1  A    between atoms: O_1  and  C_17
REMARK    2  A    between atoms: O_1  and  C_20
REMARK    3  A    between atoms: O_4  and  C_21
REMARK    4  A    between atoms: O_4  and  C_29
REMARK    5  A    between atoms: C_23  and  C_27
REMARK    6  A    between atoms: C_30  and  C_33
REMARK                            x       y       z     vdW  Elec       q    Type
REMARK                         _______ _______ _______ _____ _____    ______ ____
ROOT
ATOM      1  O   UNL     1     112.239 127.957 138.124  0.00  0.00    +0.000 OA
ENDROOT
BRANCH   1   6
ATOM      2  O   UNL     1     113.522 129.722 138.141  0.00  0.00    +0.000 OA
ATOM      3  O   UNL     1     112.548 128.101 139.738  0.00  0.00    +0.000 OA
ATOM      4  O   UNL     1     113.178 128.773 140.849  0.00  0.00    +0.000 OA
ATOM      5  O   UNL     1     114.823 131.130 140.334  0.00  0.00    +0.000 OA
ATOM      6  C   UNL     1     112.718 128.569 138.399  0.00  0.00    +0.000 A 
ATOM      7  C   UNL     1     113.043 129.109 137.866  0.00  0.00    +0.000 A 
ATOM      8  C   UNL     1     112.873 128.641 139.205  0.00  0.00    +0.000 A 
ATOM      9  C   UNL     1     113.352 129.253 139.480  0.00  0.00    +0.000 A 
ATOM     10  C   UNL     1     113.677 129.794 138.949  0.00  0.00    +0.000 A 
ATOM     11  C   UNL     1     113.507 129.318 140.324  0.00  0.00    +0.000 A 
ATOM     12  C   UNL     1     114.178 130.436 139.222  0.00  0.00    +0.000 A 
ATOM     13  C   UNL     1     114.005 129.954 140.616  0.00  0.00    +0.000 A 
ATOM     14  C   UNL     1     114.343 130.516 140.062  0.00  0.00    +0.000 A 
BRANCH   7  17
ATOM     15  O   UNL     1     111.549 129.878 135.554  0.00  0.00    +0.000 OA
ATOM     16  O   UNL     1     112.424 128.822 134.637  0.00  0.00    +0.000 OA
ATOM     17  C   UNL     1     112.888 129.038 137.059  0.00  0.00    +0.000 A 
ATOM     18  C   UNL     1     112.296 129.494 136.710  0.00  0.00    +0.000 A 
ATOM     19  C   UNL     1     113.326 128.510 136.601  0.00  0.00    +0.000 A 
ATOM     20  C   UNL     1     112.141 129.422 135.903  0.00  0.00    +0.000 A 
ATOM     21  C   UNL     1     113.171 128.437 135.793  0.00  0.00    +0.000 A 
ATOM     22  C   UNL     1     112.579 128.894 135.445  0.00  0.00    +0.000 A 
ENDBRANCH   7  17
ENDBRANCH   1   6
BRANCH   1  29
ATOM     23  O   UNL     1     111.008 128.529 138.572  0.00  0.00    +0.000 OA
ATOM     24  O   UNL     1     110.117 126.263 139.016  0.00  0.00    +0.000 OA
ATOM     25  O   UNL     1     109.184 127.589 139.316  0.00  0.00    +0.000 OA
ATOM     26  C   UNL     1     111.178 127.109 138.570  0.00  0.00    +0.000 C 
ATOM     27  C   UNL     1     110.414 127.018 138.868  0.00  0.00    +0.000 C 
ATOM     28  C   UNL     1     109.948 127.681 139.018  0.00  0.00    +0.000 C 
ATOM     29  C   UNL     1     111.475 127.864 138.422  0.00  0.00    +0.000 C 
ATOM     30  C   UNL     1     110.245 128.436 138.870  0.00  0.00    +0.000 C 
BRANCH  30  32
ATOM     31  O   UNL     1     109.531 129.579 138.394  0.00  0.00    +0.000 OA
ATOM     32  C   UNL     1     109.779 129.100 139.020  0.00  0.00    +0.000 C 
ENDBRANCH  30  32
BRANCH  26  33
ATOM     33  O   UNL     1     111.645 126.446 138.420  0.00  0.00    +0.000 OA
BRANCH  33  38
ATOM     34  O   UNL     1     110.981 126.249 137.170  0.00  0.00    +0.000 OA
ATOM     35  O   UNL     1     112.396 124.987 138.250  0.00  0.00    +0.000 OA
ATOM     36  O   UNL     1     112.108 124.061 136.916  0.00  0.00    +0.000 OA
ATOM     37  O   UNL     1     111.068 124.593 135.750  0.00  0.00    +0.000 OA
ATOM     38  C   UNL     1     111.501 125.983 137.752  0.00  0.00    +0.000 C 
ATOM     39  C   UNL     1     111.876 125.253 137.667  0.00  0.00    +0.000 C 
ATOM     40  C   UNL     1     111.732 124.790 137.000  0.00  0.00    +0.000 C 
ATOM     41  C   UNL     1     111.212 125.057 136.418  0.00  0.00    +0.000 C 
ATOM     42  C   UNL     1     110.837 125.786 136.502  0.00  0.00    +0.000 C 
ATOM     43  C   UNL     1     110.317 126.053 135.920  0.00  0.00    +0.000 C 
ENDBRANCH  33  38
ENDBRANCH  26  33
ENDBRANCH   1  29
TORSDOF 6
ENDMDL
MODEL 8
REMARK VINA RESULT:      -9.8      1.856      3.723
REMARK  Name = 5491657
REMARK  6 active torsions:
REMARK  status: ('A' for Active; 'I' for Inactive)
REMARK    1  A    between atoms: O_1  and  C_17
REMARK    2  A    between atoms: O_1  and  C_20
REMARK    3  A    between atoms: O_4  and  C_21
REMARK    4  A    between atoms: O_4  and  C_29
REMARK    5  A    between atoms: C_23  and  C_27
REMARK    6  A    between atoms: C_30  and  C_33
REMARK                            x       y       z     vdW  Elec       q    Type
REMARK                         _______ _______ _______ _____ _____    ______ ____
ROOT
ATOM      1  O   UNL     1     110.778 127.731 136.821  0.00  0.00    +0.000 OA
ENDROOT
BRANCH   1   6
ATOM      2  O   UNL     1     111.271 125.998 138.053  0.00  0.00    +0.000 OA
ATOM      3  O   UNL     1     111.017 126.582 135.661  0.00  0.00    +0.000 OA
ATOM      4  O   UNL     1     111.342 125.233 135.267  0.00  0.00    +0.000 OA
ATOM      5  O   UNL     1     111.934 123.255 137.333  0.00  0.00    +0.000 OA
ATOM      6  C   UNL     1     110.982 126.962 137.039  0.00  0.00    +0.000 A 
ATOM      7  C   UNL     1     111.067 126.767 137.836  0.00  0.00    +0.000 A 
ATOM      8  C   UNL     1     111.102 126.388 136.459  0.00  0.00    +0.000 A 
ATOM      9  C   UNL     1     111.306 125.619 136.676  0.00  0.00    +0.000 A 
ATOM     10  C   UNL     1     111.391 125.423 137.473  0.00  0.00    +0.000 A 
ATOM     11  C   UNL     1     111.429 125.029 136.062  0.00  0.00    +0.000 A 
ATOM     12  C   UNL     1     111.604 124.626 137.712  0.00  0.00    +0.000 A 
ATOM     13  C   UNL     1     111.642 124.226 136.283  0.00  0.00    +0.000 A 
ATOM     14  C   UNL     1     111.730 124.024 137.113  0.00  0.00    +0.000 A 
BRANCH   7  17
ATOM     15  O   UNL     1     109.298 128.275 139.499  0.00  0.00    +0.000 OA
ATOM     16  O   UNL     1     110.589 129.064 140.157  0.00  0.00    +0.000 OA
ATOM     17  C   UNL     1     110.947 127.341 138.416  0.00  0.00    +0.000 A 
ATOM     18  C   UNL     1     110.182 127.521 138.668  0.00  0.00    +0.000 A 
ATOM     19  C   UNL     1     111.593 127.736 138.745  0.00  0.00    +0.000 A 
ATOM     20  C   UNL     1     110.063 128.095 139.247  0.00  0.00    +0.000 A 
ATOM     21  C   UNL     1     111.473 128.310 139.326  0.00  0.00    +0.000 A 
ATOM     22  C   UNL     1     110.708 128.489 139.576  0.00  0.00    +0.000 A 
ENDBRANCH   7  17
ENDBRANCH   1   6
BRANCH   1  29
ATOM     23  O   UNL     1     112.078 128.101 136.358  0.00  0.00    +0.000 OA
ATOM     24  O   UNL     1     111.050 129.523 134.613  0.00  0.00    +0.000 OA
ATOM     25  O   UNL     1     112.692 129.420 134.732  0.00  0.00    +0.000 OA
ATOM     26  C   UNL     1     110.913 128.627 135.717  0.00  0.00    +0.000 C 
ATOM     27  C   UNL     1     111.393 129.049 135.194  0.00  0.00    +0.000 C 
ATOM     28  C   UNL     1     112.213 128.998 135.254  0.00  0.00    +0.000 C 
ATOM     29  C   UNL     1     111.256 128.153 136.299  0.00  0.00    +0.000 C 
ATOM     30  C   UNL     1     112.556 128.524 135.836  0.00  0.00    +0.000 C 
BRANCH  30  32
ATOM     31  O   UNL     1     113.758 128.741 136.577  0.00  0.00    +0.000 OA
ATOM     32  C   UNL     1     113.377 128.472 135.895  0.00  0.00    +0.000 C 
ENDBRANCH  30  32
BRANCH  26  33
ATOM     33  O   UNL     1     110.093 128.679 135.658  0.00  0.00    +0.000 OA
BRANCH  33  38
ATOM     34  O   UNL     1     110.118 129.922 136.362  0.00  0.00    +0.000 OA
ATOM     35  O   UNL     1     108.463 128.831 135.450  0.00  0.00    +0.000 OA
ATOM     36  O   UNL     1     107.674 130.150 136.050  0.00  0.00    +0.000 OA
ATOM     37  O   UNL     1     108.515 131.317 136.858  0.00  0.00    +0.000 OA
ATOM     38  C   UNL     1     109.698 129.338 135.958  0.00  0.00    +0.000 C 
ATOM     39  C   UNL     1     108.883 129.414 135.854  0.00  0.00    +0.000 C 
ATOM     40  C   UNL     1     108.488 130.074 136.154  0.00  0.00    +0.000 C 
ATOM     41  C   UNL     1     108.909 130.657 136.558  0.00  0.00    +0.000 C 
ATOM     42  C   UNL     1     109.724 130.582 136.662  0.00  0.00    +0.000 C 
ATOM     43  C   UNL     1     110.145 131.165 137.066  0.00  0.00    +0.000 C 
ENDBRANCH  33  38
ENDBRANCH  26  33
ENDBRANCH   1  29
TORSDOF 6
ENDMDL
MODEL 9
REMARK VINA RESULT:      -9.7      1.839      4.118
REMARK  Name = 5491657
REMARK  6 active torsions:
REMARK  status: ('A' for Active; 'I' for Inactive)
REMARK    1  A    between atoms: O_1  and  C_17
REMARK    2  A    between atoms: O_1  and  C_20
REMARK    3  A    between atoms: O_4  and  C_21
REMARK    4  A    between atoms: O_4  and  C_29
REMARK    5  A    between atoms: C_23  and  C_27
REMARK    6  A    between atoms: C_30  and  C_33
REMARK                            x       y       z     vdW  Elec       q    Type
REMARK                         _______ _______ _______ _____ _____    ______ ____
ROOT
ATOM      1  O   UNL     1     111.631 128.103 137.234  0.00  0.00    +0.000 OA
ENDROOT
BRANCH   1   6
ATOM      2  O   UNL     1     113.189 126.756 136.512  0.00  0.00    +0.000 OA
ATOM      3  O   UNL     1     111.042 126.646 137.739  0.00  0.00    +0.000 OA
ATOM      4  O   UNL     1     111.145 125.211 137.850  0.00  0.00    +0.000 OA
ATOM      5  O   UNL     1     113.465 123.863 136.698  0.00  0.00    +0.000 OA
ATOM      6  C   UNL     1     112.052 127.411 137.078  0.00  0.00    +0.000 A 
ATOM      7  C   UNL     1     112.768 127.448 136.669  0.00  0.00    +0.000 A 
ATOM      8  C   UNL     1     111.758 126.683 137.330  0.00  0.00    +0.000 A 
ATOM      9  C   UNL     1     112.179 125.991 137.173  0.00  0.00    +0.000 A 
ATOM     10  C   UNL     1     112.894 126.027 136.765  0.00  0.00    +0.000 A 
ATOM     11  C   UNL     1     111.862 125.238 137.441  0.00  0.00    +0.000 A 
ATOM     12  C   UNL     1     113.343 125.314 136.595  0.00  0.00    +0.000 A 
ATOM     13  C   UNL     1     112.296 124.515 137.281  0.00  0.00    +0.000 A 
ATOM     14  C   UNL     1     113.041 124.553 136.855  0.00  0.00    +0.000 A 
BRANCH   7  17
ATOM     15  O   UNL     1     113.106 129.403 134.612  0.00  0.00    +0.000 OA
ATOM     16  O   UNL     1     113.946 130.361 135.660  0.00  0.00    +0.000 OA
ATOM     17  C   UNL     1     113.062 128.176 136.417  0.00  0.00    +0.000 A 
ATOM     18  C   UNL     1     112.937 128.426 135.640  0.00  0.00    +0.000 A 
ATOM     19  C   UNL     1     113.482 128.654 136.941  0.00  0.00    +0.000 A 
ATOM     20  C   UNL     1     113.231 129.153 135.388  0.00  0.00    +0.000 A 
ATOM     21  C   UNL     1     113.777 129.383 136.689  0.00  0.00    +0.000 A 
ATOM     22  C   UNL     1     113.651 129.632 135.913  0.00  0.00    +0.000 A 
ENDBRANCH   7  17
ENDBRANCH   1   6
BRANCH   1  29
ATOM     23  O   UNL     1     110.604 127.840 136.276  0.00  0.00    +0.000 OA
ATOM     24  O   UNL     1     108.970 129.039 137.698  0.00  0.00    +0.000 OA
ATOM     25  O   UNL     1     108.489 128.377 136.266  0.00  0.00    +0.000 OA
ATOM     26  C   UNL     1     110.300 128.571 137.467  0.00  0.00    +0.000 C 
ATOM     27  C   UNL     1     109.515 128.639 137.224  0.00  0.00    +0.000 C 
ATOM     28  C   UNL     1     109.274 128.308 136.508  0.00  0.00    +0.000 C 
ATOM     29  C   UNL     1     110.845 128.171 136.993  0.00  0.00    +0.000 C 
ATOM     30  C   UNL     1     109.818 127.909 136.035  0.00  0.00    +0.000 C 
BRANCH  30  32
ATOM     31  O   UNL     1     109.927 127.824 134.612  0.00  0.00    +0.000 OA
ATOM     32  C   UNL     1     109.577 127.578 135.318  0.00  0.00    +0.000 C 
ENDBRANCH  30  32
BRANCH  26  33
ATOM     33  O   UNL     1     110.542 128.902 138.182  0.00  0.00    +0.000 OA
BRANCH  33  38
ATOM     34  O   UNL     1     110.604 130.192 137.571  0.00  0.00    +0.000 OA
ATOM     35  O   UNL     1     110.860 129.584 139.651  0.00  0.00    +0.000 OA
ATOM     36  O   UNL     1     111.080 131.214 139.773  0.00  0.00    +0.000 OA
ATOM     37  O   UNL     1     110.983 132.163 138.426  0.00  0.00    +0.000 OA
ATOM     38  C   UNL     1     110.652 129.717 138.243  0.00  0.00    +0.000 C 
ATOM     39  C   UNL     1     110.811 130.058 138.978  0.00  0.00    +0.000 C 
ATOM     40  C   UNL     1     110.922 130.874 139.039  0.00  0.00    +0.000 C 
ATOM     41  C   UNL     1     110.873 131.348 138.365  0.00  0.00    +0.000 C 
ATOM     42  C   UNL     1     110.714 131.007 137.632  0.00  0.00    +0.000 C 
ATOM     43  C   UNL     1     110.665 131.481 136.958  0.00  0.00    +0.000 C 
ENDBRANCH  33  38
ENDBRANCH  26  33
ENDBRANCH   1  29
TORSDOF 6
ENDMDL
MODEL 10
REMARK VINA RESULT:      -9.7      1.611      4.684
REMARK  Name = 5491657
REMARK  6 active torsions:
REMARK  status: ('A' for Active; 'I' for Inactive)
REMARK    1  A    between atoms: O_1  and  C_17
REMARK    2  A    between atoms: O_1  and  C_20
REMARK    3  A    between atoms: O_4  and  C_21
REMARK    4  A    between atoms: O_4  and  C_29
REMARK    5  A    between atoms: C_23  and  C_27
REMARK    6  A    between atoms: C_30  and  C_33
REMARK                            x       y       z     vdW  Elec       q    Type
REMARK                         _______ _______ _______ _____ _____    ______ ____
ROOT
ATOM      1  O   UNL     1     112.510 127.692 137.797  0.00  0.00    +0.000 OA
ENDROOT
BRANCH   1   6
ATOM      2  O   UNL     1     112.569 126.210 136.195  0.00  0.00    +0.000 OA
ATOM      3  O   UNL     1     111.852 126.384 138.558  0.00  0.00    +0.000 OA
ATOM      4  O   UNL     1     111.422 125.007 138.559  0.00  0.00    +0.000 OA
ATOM      5  O   UNL     1     111.722 123.425 136.123  0.00  0.00    +0.000 OA
ATOM      6  C   UNL     1     112.420 126.980 137.390  0.00  0.00    +0.000 A 
ATOM      7  C   UNL     1     112.659 126.922 136.602  0.00  0.00    +0.000 A 
ATOM      8  C   UNL     1     112.091 126.326 137.771  0.00  0.00    +0.000 A 
ATOM      9  C   UNL     1     112.001 125.614 137.364  0.00  0.00    +0.000 A 
ATOM     10  C   UNL     1     112.240 125.556 136.576  0.00  0.00    +0.000 A 
ATOM     11  C   UNL     1     111.658 124.940 137.771  0.00  0.00    +0.000 A 
ATOM     12  C   UNL     1     112.152 124.820 136.141  0.00  0.00    +0.000 A 
ATOM     13  C   UNL     1     111.562 124.196 137.353  0.00  0.00    +0.000 A 
ATOM     14  C   UNL     1     111.810 124.136 136.533  0.00  0.00    +0.000 A 
BRANCH   7  17
ATOM     15  O   UNL     1     112.371 129.194 134.891  0.00  0.00    +0.000 OA
ATOM     16  O   UNL     1     113.974 129.538 135.079  0.00  0.00    +0.000 OA
ATOM     17  C   UNL     1     112.987 127.576 136.222  0.00  0.00    +0.000 A 
ATOM     18  C   UNL     1     112.515 128.058 135.747  0.00  0.00    +0.000 A 
ATOM     19  C   UNL     1     113.788 127.748 136.315  0.00  0.00    +0.000 A 
ATOM     20  C   UNL     1     112.843 128.711 135.366  0.00  0.00    +0.000 A 
ATOM     21  C   UNL     1     114.118 128.402 135.934  0.00  0.00    +0.000 A 
ATOM     22  C   UNL     1     113.644 128.884 135.460  0.00  0.00    +0.000 A 
ENDBRANCH   7  17
ENDBRANCH   1   6
BRANCH   1  29
ATOM     23  O   UNL     1     111.134 128.076 137.761  0.00  0.00    +0.000 OA
ATOM     24  O   UNL     1     111.348 129.054 140.025  0.00  0.00    +0.000 OA
ATOM     25  O   UNL     1     109.902 129.112 139.235  0.00  0.00    +0.000 OA
ATOM     26  C   UNL     1     111.930 128.373 138.911  0.00  0.00    +0.000 C 
ATOM     27  C   UNL     1     111.277 128.728 139.270  0.00  0.00    +0.000 C 
ATOM     28  C   UNL     1     110.554 128.757 138.876  0.00  0.00    +0.000 C 
ATOM     29  C   UNL     1     111.858 128.047 138.157  0.00  0.00    +0.000 C 
ATOM     30  C   UNL     1     110.482 128.431 138.122  0.00  0.00    +0.000 C 
BRANCH  30  32
ATOM     31  O   UNL     1     109.690 128.889 137.024  0.00  0.00    +0.000 OA
ATOM     32  C   UNL     1     109.759 128.460 137.726  0.00  0.00    +0.000 C 
ENDBRANCH  30  32
BRANCH  26  33
ATOM     33  O   UNL     1     112.653 128.344 139.306  0.00  0.00    +0.000 OA
BRANCH  33  38
ATOM     34  O   UNL     1     112.991 129.654 138.845  0.00  0.00    +0.000 OA
ATOM     35  O   UNL     1     113.853 128.431 140.435  0.00  0.00    +0.000 OA
ATOM     36  O   UNL     1     114.791 129.785 140.538  0.00  0.00    +0.000 OA
ATOM     37  O   UNL     1     114.529 131.051 139.512  0.00  0.00    +0.000 OA
ATOM     38  C   UNL     1     113.122 129.021 139.357  0.00  0.00    +0.000 C 
ATOM     39  C   UNL     1     113.723 129.065 139.922  0.00  0.00    +0.000 C 
ATOM     40  C   UNL     1     114.192 129.741 139.974  0.00  0.00    +0.000 C 
ATOM     41  C   UNL     1     114.060 130.374 139.461  0.00  0.00    +0.000 C 
ATOM     42  C   UNL     1     113.460 130.330 138.897  0.00  0.00    +0.000 C 
ATOM     43  C   UNL     1     113.329 130.963 138.384  0.00  0.00    +0.000 C 
ENDBRANCH  33  38
ENDBRANCH  26  33
ENDBRANCH   1  29
TORSDOF 6
ENDMDL
