MODEL 1
REMARK VINA RESULT:      -7.6      0.000      0.000
REMARK  Name = 597429
REMARK  4 active torsions:
REMARK  status: ('A' for Active; 'I' for Inactive)
REMARK    1  A    between atoms: O_3  and  C_12
REMARK    2  A    between atoms: O_4  and  C_17
REMARK    3  A    between atoms: O_5  and  C_20
REMARK    4  A    between atoms: C_7  and  C_11
REMARK                            x       y       z     vdW  Elec       q    Type
REMARK                         _______ _______ _______ _____ _____    ______ ____
ROOT
ATOM      1  O   UNL     1     104.927 124.289 147.308  0.00  0.00    +0.000 OA
ATOM      2  O   UNL     1     104.515 124.937 145.265  0.00  0.00    +0.000 OA
ATOM      3  C   UNL     1     104.886 124.857 145.997  0.00  0.00    +0.000 C 
ATOM      4  C   UNL     1     104.556 124.370 146.575  0.00  0.00    +0.000 C 
ATOM      5  C   UNL     1     105.587 125.263 146.152  0.00  0.00    +0.000 C 
ATOM      6  C   UNL     1     105.958 125.183 146.884  0.00  0.00    +0.000 A 
ATOM      7  C   UNL     1     105.628 124.696 147.462  0.00  0.00    +0.000 A 
ATOM      8  C   UNL     1     106.688 125.612 147.033  0.00  0.00    +0.000 A 
ATOM      9  C   UNL     1     106.005 124.604 148.229  0.00  0.00    +0.000 A 
ATOM     10  C   UNL     1     107.079 125.533 147.793  0.00  0.00    +0.000 A 
ATOM     11  C   UNL     1     106.734 125.025 148.396  0.00  0.00    +0.000 A 
ENDROOT
BRANCH   4  12
ATOM     12  C   UNL     1     103.855 123.962 146.421  0.00  0.00    +0.000 A 
ATOM     13  C   UNL     1     103.876 123.249 146.007  0.00  0.00    +0.000 A 
ATOM     14  C   UNL     1     103.134 124.268 146.681  0.00  0.00    +0.000 A 
ATOM     15  C   UNL     1     103.175 122.842 145.853  0.00  0.00    +0.000 A 
ATOM     16  C   UNL     1     102.434 123.860 146.527  0.00  0.00    +0.000 A 
ATOM     17  C   UNL     1     102.454 123.147 146.113  0.00  0.00    +0.000 A 
BRANCH  17  18
ATOM     18  O   UNL     1     101.754 122.739 145.959  0.00  0.00    +0.000 OA
ATOM     19  C   UNL     1     101.279 122.962 145.322  0.00  0.00    +0.000 C 
ENDBRANCH  17  18
ENDBRANCH   4  12
BRANCH   8  20
ATOM     20  O   UNL     1     107.010 126.097 146.448  0.00  0.00    +0.000 OA
ATOM     21  C   UNL     1     107.405 126.790 146.660  0.00  0.00    +0.000 C 
ENDBRANCH   8  20
BRANCH  11  22
ATOM     22  O   UNL     1     107.103 124.943 149.130  0.00  0.00    +0.000 OA
ATOM     23  C   UNL     1     107.639 124.328 149.256  0.00  0.00    +0.000 C 
ENDBRANCH  11  22
TORSDOF 4
ENDMDL
MODEL 2
REMARK VINA RESULT:      -7.3     12.525     14.102
REMARK  Name = 597429
REMARK  4 active torsions:
REMARK  status: ('A' for Active; 'I' for Inactive)
REMARK    1  A    between atoms: O_3  and  C_12
REMARK    2  A    between atoms: O_4  and  C_17
REMARK    3  A    between atoms: O_5  and  C_20
REMARK    4  A    between atoms: C_7  and  C_11
REMARK                            x       y       z     vdW  Elec       q    Type
REMARK                         _______ _______ _______ _____ _____    ______ ____
ROOT
ATOM      1  O   UNL     1     112.241 127.223 136.027  0.00  0.00    +0.000 OA
ATOM      2  O   UNL     1     114.098 126.853 137.113  0.00  0.00    +0.000 OA
ATOM      3  C   UNL     1     113.365 126.726 136.757  0.00  0.00    +0.000 C 
ATOM      4  C   UNL     1     112.975 127.350 136.383  0.00  0.00    +0.000 C 
ATOM      5  C   UNL     1     113.021 125.976 136.774  0.00  0.00    +0.000 C 
ATOM      6  C   UNL     1     112.288 125.850 136.418  0.00  0.00    +0.000 A 
ATOM      7  C   UNL     1     111.898 126.473 136.045  0.00  0.00    +0.000 A 
ATOM      8  C   UNL     1     111.941 125.064 136.443  0.00  0.00    +0.000 A 
ATOM      9  C   UNL     1     111.134 126.354 135.670  0.00  0.00    +0.000 A 
ATOM     10  C   UNL     1     111.177 124.926 136.074  0.00  0.00    +0.000 A 
ATOM     11  C   UNL     1     110.771 125.576 135.685  0.00  0.00    +0.000 A 
ENDROOT
BRANCH   4  12
ATOM     12  C   UNL     1     113.318 128.100 136.365  0.00  0.00    +0.000 A 
ATOM     13  C   UNL     1     113.142 128.648 136.958  0.00  0.00    +0.000 A 
ATOM     14  C   UNL     1     113.836 128.303 135.756  0.00  0.00    +0.000 A 
ATOM     15  C   UNL     1     113.484 129.398 136.940  0.00  0.00    +0.000 A 
ATOM     16  C   UNL     1     114.178 129.053 135.740  0.00  0.00    +0.000 A 
ATOM     17  C   UNL     1     114.003 129.601 136.331  0.00  0.00    +0.000 A 
BRANCH  17  18
ATOM     18  O   UNL     1     114.345 130.351 136.314  0.00  0.00    +0.000 OA
ATOM     19  C   UNL     1     115.022 130.485 135.862  0.00  0.00    +0.000 C 
ENDBRANCH  17  18
ENDBRANCH   4  12
BRANCH   8  20
ATOM     20  O   UNL     1     112.338 124.446 136.819  0.00  0.00    +0.000 OA
ATOM     21  C   UNL     1     112.005 123.692 136.835  0.00  0.00    +0.000 C 
ENDBRANCH   8  20
BRANCH  11  22
ATOM     22  O   UNL     1     110.037 125.453 135.328  0.00  0.00    +0.000 OA
ATOM     23  C   UNL     1     109.858 125.824 134.613  0.00  0.00    +0.000 C 
ENDBRANCH  11  22
TORSDOF 4
ENDMDL
MODEL 3
REMARK VINA RESULT:      -7.3      1.201      4.563
REMARK  Name = 597429
REMARK  4 active torsions:
REMARK  status: ('A' for Active; 'I' for Inactive)
REMARK    1  A    between atoms: O_3  and  C_12
REMARK    2  A    between atoms: O_4  and  C_17
REMARK    3  A    between atoms: O_5  and  C_20
REMARK    4  A    between atoms: C_7  and  C_11
REMARK                            x       y       z     vdW  Elec       q    Type
REMARK                         _______ _______ _______ _____ _____    ______ ____
ROOT
ATOM      1  O   UNL     1     103.890 124.842 147.588  0.00  0.00    +0.000 OA
ATOM      2  O   UNL     1     105.055 123.968 145.963  0.00  0.00    +0.000 OA
ATOM      3  C   UNL     1     104.413 124.182 146.433  0.00  0.00    +0.000 C 
ATOM      4  C   UNL     1     104.533 124.628 147.117  0.00  0.00    +0.000 C 
ATOM      5  C   UNL     1     103.650 123.951 146.220  0.00  0.00    +0.000 C 
ATOM      6  C   UNL     1     103.007 124.166 146.691  0.00  0.00    +0.000 A 
ATOM      7  C   UNL     1     103.127 124.611 147.375  0.00  0.00    +0.000 A 
ATOM      8  C   UNL     1     102.217 123.919 146.458  0.00  0.00    +0.000 A 
ATOM      9  C   UNL     1     102.466 124.840 147.873  0.00  0.00    +0.000 A 
ATOM     10  C   UNL     1     101.544 124.139 146.944  0.00  0.00    +0.000 A 
ATOM     11  C   UNL     1     101.670 124.603 147.657  0.00  0.00    +0.000 A 
ENDROOT
BRANCH   4  12
ATOM     12  C   UNL     1     105.295 124.859 147.331  0.00  0.00    +0.000 A 
ATOM     13  C   UNL     1     105.647 125.509 146.963  0.00  0.00    +0.000 A 
ATOM     14  C   UNL     1     105.706 124.441 147.911  0.00  0.00    +0.000 A 
ATOM     15  C   UNL     1     106.409 125.740 147.177  0.00  0.00    +0.000 A 
ATOM     16  C   UNL     1     106.469 124.673 148.124  0.00  0.00    +0.000 A 
ATOM     17  C   UNL     1     106.820 125.323 147.757  0.00  0.00    +0.000 A 
BRANCH  17  18
ATOM     18  O   UNL     1     107.583 125.555 147.970  0.00  0.00    +0.000 OA
ATOM     19  C   UNL     1     108.214 125.032 147.876  0.00  0.00    +0.000 C 
ENDBRANCH  17  18
ENDBRANCH   4  12
BRANCH   8  20
ATOM     20  O   UNL     1     102.107 123.474 145.772  0.00  0.00    +0.000 OA
ATOM     21  C   UNL     1     101.353 123.205 145.573  0.00  0.00    +0.000 C 
ENDBRANCH   8  20
BRANCH  11  22
ATOM     22  O   UNL     1     101.029 124.819 148.130  0.00  0.00    +0.000 OA
ATOM     23  C   UNL     1     100.953 124.507 148.890  0.00  0.00    +0.000 C 
ENDBRANCH  11  22
TORSDOF 4
ENDMDL
MODEL 4
REMARK VINA RESULT:      -7.3     12.488     14.597
REMARK  Name = 597429
REMARK  4 active torsions:
REMARK  status: ('A' for Active; 'I' for Inactive)
REMARK    1  A    between atoms: O_3  and  C_12
REMARK    2  A    between atoms: O_4  and  C_17
REMARK    3  A    between atoms: O_5  and  C_20
REMARK    4  A    between atoms: C_7  and  C_11
REMARK                            x       y       z     vdW  Elec       q    Type
REMARK                         _______ _______ _______ _____ _____    ______ ____
ROOT
ATOM      1  O   UNL     1     113.835 127.558 136.400  0.00  0.00    +0.000 OA
ATOM      2  O   UNL     1     112.258 128.688 135.400  0.00  0.00    +0.000 OA
ATOM      3  C   UNL     1     112.653 128.076 135.785  0.00  0.00    +0.000 C 
ATOM      4  C   UNL     1     113.440 128.171 136.014  0.00  0.00    +0.000 C 
ATOM      5  C   UNL     1     112.261 127.367 135.944  0.00  0.00    +0.000 C 
ATOM      6  C   UNL     1     112.655 126.754 136.330  0.00  0.00    +0.000 A 
ATOM      7  C   UNL     1     113.442 126.850 136.558  0.00  0.00    +0.000 A 
ATOM      8  C   UNL     1     112.236 126.021 136.489  0.00  0.00    +0.000 A 
ATOM      9  C   UNL     1     113.864 126.219 136.961  0.00  0.00    +0.000 A 
ATOM     10  C   UNL     1     112.642 125.379 136.891  0.00  0.00    +0.000 A 
ATOM     11  C   UNL     1     113.462 125.479 137.128  0.00  0.00    +0.000 A 
ENDROOT
BRANCH   4  12
ATOM     12  C   UNL     1     113.832 128.879 135.856  0.00  0.00    +0.000 A 
ATOM     13  C   UNL     1     114.227 128.980 135.138  0.00  0.00    +0.000 A 
ATOM     14  C   UNL     1     113.831 129.486 136.415  0.00  0.00    +0.000 A 
ATOM     15  C   UNL     1     114.620 129.688 134.980  0.00  0.00    +0.000 A 
ATOM     16  C   UNL     1     114.224 130.194 136.256  0.00  0.00    +0.000 A 
ATOM     17  C   UNL     1     114.618 130.295 135.540  0.00  0.00    +0.000 A 
BRANCH  17  18
ATOM     18  O   UNL     1     115.012 131.003 135.381  0.00  0.00    +0.000 OA
ATOM     19  C   UNL     1     115.703 130.998 134.930  0.00  0.00    +0.000 C 
ENDBRANCH  17  18
ENDBRANCH   4  12
BRANCH   8  20
ATOM     20  O   UNL     1     111.449 125.935 136.257  0.00  0.00    +0.000 OA
ATOM     21  C   UNL     1     111.078 125.201 136.325  0.00  0.00    +0.000 C 
ENDBRANCH   8  20
BRANCH  11  22
ATOM     22  O   UNL     1     113.859 124.868 137.515  0.00  0.00    +0.000 OA
ATOM     23  C   UNL     1     114.594 124.614 137.239  0.00  0.00    +0.000 C 
ENDBRANCH  11  22
TORSDOF 4
ENDMDL
MODEL 5
REMARK VINA RESULT:      -7.2     12.629     14.022
REMARK  Name = 597429
REMARK  4 active torsions:
REMARK  status: ('A' for Active; 'I' for Inactive)
REMARK    1  A    between atoms: O_3  and  C_12
REMARK    2  A    between atoms: O_4  and  C_17
REMARK    3  A    between atoms: O_5  and  C_20
REMARK    4  A    between atoms: C_7  and  C_11
REMARK                            x       y       z     vdW  Elec       q    Type
REMARK                         _______ _______ _______ _____ _____    ______ ____
ROOT
ATOM      1  O   UNL     1     113.677 127.538 136.074  0.00  0.00    +0.000 OA
ATOM      2  O   UNL     1     112.758 127.182 138.022  0.00  0.00    +0.000 OA
ATOM      3  C   UNL     1     113.082 127.575 137.374  0.00  0.00    +0.000 C 
ATOM      4  C   UNL     1     113.353 127.145 136.724  0.00  0.00    +0.000 C 
ATOM      5  C   UNL     1     113.135 128.399 137.374  0.00  0.00    +0.000 C 
ATOM      6  C   UNL     1     113.459 128.791 136.725  0.00  0.00    +0.000 A 
ATOM      7  C   UNL     1     113.730 128.361 136.075  0.00  0.00    +0.000 A 
ATOM      8  C   UNL     1     113.509 129.650 136.737  0.00  0.00    +0.000 A 
ATOM      9  C   UNL     1     114.069 128.759 135.393  0.00  0.00    +0.000 A 
ATOM     10  C   UNL     1     113.845 130.064 136.064  0.00  0.00    +0.000 A 
ATOM     11  C   UNL     1     114.128 129.615 135.387  0.00  0.00    +0.000 A 
ENDROOT
BRANCH   4  12
ATOM     12  C   UNL     1     113.300 126.322 136.723  0.00  0.00    +0.000 A 
ATOM     13  C   UNL     1     113.943 125.867 136.970  0.00  0.00    +0.000 A 
ATOM     14  C   UNL     1     112.605 125.953 136.475  0.00  0.00    +0.000 A 
ATOM     15  C   UNL     1     113.890 125.044 136.969  0.00  0.00    +0.000 A 
ATOM     16  C   UNL     1     112.553 125.129 136.474  0.00  0.00    +0.000 A 
ATOM     17  C   UNL     1     113.195 124.675 136.721  0.00  0.00    +0.000 A 
BRANCH  17  18
ATOM     18  O   UNL     1     113.144 123.851 136.720  0.00  0.00    +0.000 OA
ATOM     19  C   UNL     1     112.412 123.484 136.826  0.00  0.00    +0.000 C 
ENDBRANCH  17  18
ENDBRANCH   4  12
BRANCH   8  20
ATOM     20  O   UNL     1     113.236 130.071 137.392  0.00  0.00    +0.000 OA
ATOM     21  C   UNL     1     113.214 130.896 137.370  0.00  0.00    +0.000 C 
ENDBRANCH   8  20
BRANCH  11  22
ATOM     22  O   UNL     1     114.452 130.006 134.737  0.00  0.00    +0.000 OA
ATOM     23  C   UNL     1     115.268 129.993 134.613  0.00  0.00    +0.000 C 
ENDBRANCH  11  22
TORSDOF 4
ENDMDL
MODEL 6
REMARK VINA RESULT:      -7.1      9.683     11.301
REMARK  Name = 597429
REMARK  4 active torsions:
REMARK  status: ('A' for Active; 'I' for Inactive)
REMARK    1  A    between atoms: O_3  and  C_12
REMARK    2  A    between atoms: O_4  and  C_17
REMARK    3  A    between atoms: O_5  and  C_20
REMARK    4  A    between atoms: C_7  and  C_11
REMARK                            x       y       z     vdW  Elec       q    Type
REMARK                         _______ _______ _______ _____ _____    ______ ____
ROOT
ATOM      1  O   UNL     1     111.821 126.202 138.851  0.00  0.00    +0.000 OA
ATOM      2  O   UNL     1     113.508 126.002 137.480  0.00  0.00    +0.000 OA
ATOM      3  C   UNL     1     113.075 126.153 138.164  0.00  0.00    +0.000 C 
ATOM      4  C   UNL     1     112.256 126.051 138.165  0.00  0.00    +0.000 C 
ATOM      5  C   UNL     1     113.459 126.407 138.849  0.00  0.00    +0.000 C 
ATOM      6  C   UNL     1     113.025 126.558 139.534  0.00  0.00    +0.000 A 
ATOM      7  C   UNL     1     112.206 126.456 139.535  0.00  0.00    +0.000 A 
ATOM      8  C   UNL     1     113.437 126.822 140.241  0.00  0.00    +0.000 A 
ATOM      9  C   UNL     1     111.743 126.610 140.242  0.00  0.00    +0.000 A 
ATOM     10  C   UNL     1     112.990 126.981 140.957  0.00  0.00    +0.000 A 
ATOM     11  C   UNL     1     112.137 126.875 140.958  0.00  0.00    +0.000 A 
ENDROOT
BRANCH   4  12
ATOM     12  C   UNL     1     111.871 125.797 137.481  0.00  0.00    +0.000 A 
ATOM     13  C   UNL     1     111.786 124.990 137.331  0.00  0.00    +0.000 A 
ATOM     14  C   UNL     1     111.571 126.350 136.947  0.00  0.00    +0.000 A 
ATOM     15  C   UNL     1     111.401 124.736 136.647  0.00  0.00    +0.000 A 
ATOM     16  C   UNL     1     111.186 126.095 136.263  0.00  0.00    +0.000 A 
ATOM     17  C   UNL     1     111.101 125.289 136.113  0.00  0.00    +0.000 A 
BRANCH  17  18
ATOM     18  O   UNL     1     110.716 125.034 135.429  0.00  0.00    +0.000 OA
ATOM     19  C   UNL     1     110.257 125.563 134.993  0.00  0.00    +0.000 C 
ENDBRANCH  17  18
ENDBRANCH   4  12
BRANCH   8  20
ATOM     20  O   UNL     1     114.256 126.921 140.231  0.00  0.00    +0.000 OA
ATOM     21  C   UNL     1     114.649 127.168 140.913  0.00  0.00    +0.000 C 
ENDBRANCH   8  20
BRANCH  11  22
ATOM     22  O   UNL     1     111.700 127.025 141.641  0.00  0.00    +0.000 OA
ATOM     23  C   UNL     1     111.194 127.676 141.672  0.00  0.00    +0.000 C 
ENDBRANCH  11  22
TORSDOF 4
ENDMDL
MODEL 7
REMARK VINA RESULT:      -7.1     12.363     13.563
REMARK  Name = 597429
REMARK  4 active torsions:
REMARK  status: ('A' for Active; 'I' for Inactive)
REMARK    1  A    between atoms: O_3  and  C_12
REMARK    2  A    between atoms: O_4  and  C_17
REMARK    3  A    between atoms: O_5  and  C_20
REMARK    4  A    between atoms: C_7  and  C_11
REMARK                            x       y       z     vdW  Elec       q    Type
REMARK                         _______ _______ _______ _____ _____    ______ ____
ROOT
ATOM      1  O   UNL     1     111.989 126.638 136.055  0.00  0.00    +0.000 OA
ATOM      2  O   UNL     1     113.400 128.258 136.436  0.00  0.00    +0.000 OA
ATOM      3  C   UNL     1     113.077 127.501 136.391  0.00  0.00    +0.000 C 
ATOM      4  C   UNL     1     112.312 127.396 136.100  0.00  0.00    +0.000 C 
ATOM      5  C   UNL     1     113.518 126.848 136.637  0.00  0.00    +0.000 C 
ATOM      6  C   UNL     1     113.195 126.091 136.592  0.00  0.00    +0.000 A 
ATOM      7  C   UNL     1     112.430 125.986 136.301  0.00  0.00    +0.000 A 
ATOM      8  C   UNL     1     113.665 125.419 136.850  0.00  0.00    +0.000 A 
ATOM      9  C   UNL     1     112.082 125.202 136.249  0.00  0.00    +0.000 A 
ATOM     10  C   UNL     1     113.334 124.628 136.806  0.00  0.00    +0.000 A 
ATOM     11  C   UNL     1     112.536 124.519 136.503  0.00  0.00    +0.000 A 
ENDROOT
BRANCH   4  12
ATOM     12  C   UNL     1     111.871 128.048 135.855  0.00  0.00    +0.000 A 
ATOM     13  C   UNL     1     111.918 128.307 135.072  0.00  0.00    +0.000 A 
ATOM     14  C   UNL     1     111.381 128.441 136.390  0.00  0.00    +0.000 A 
ATOM     15  C   UNL     1     111.477 128.959 134.827  0.00  0.00    +0.000 A 
ATOM     16  C   UNL     1     110.940 129.093 136.143  0.00  0.00    +0.000 A 
ATOM     17  C   UNL     1     110.987 129.351 135.362  0.00  0.00    +0.000 A 
BRANCH  17  18
ATOM     18  O   UNL     1     110.546 130.003 135.115  0.00  0.00    +0.000 OA
ATOM     19  C   UNL     1     109.832 129.891 134.717  0.00  0.00    +0.000 C 
ENDBRANCH  17  18
ENDBRANCH   4  12
BRANCH   8  20
ATOM     20  O   UNL     1     114.429 125.535 137.140  0.00  0.00    +0.000 OA
ATOM     21  C   UNL     1     114.882 124.886 137.376  0.00  0.00    +0.000 C 
ENDBRANCH   8  20
BRANCH  11  22
ATOM     22  O   UNL     1     112.210 123.762 136.456  0.00  0.00    +0.000 OA
ATOM     23  C   UNL     1     111.810 123.445 137.105  0.00  0.00    +0.000 C 
ENDBRANCH  11  22
TORSDOF 4
ENDMDL
MODEL 8
REMARK VINA RESULT:      -7.0     10.611     12.436
REMARK  Name = 597429
REMARK  4 active torsions:
REMARK  status: ('A' for Active; 'I' for Inactive)
REMARK    1  A    between atoms: O_3  and  C_12
REMARK    2  A    between atoms: O_4  and  C_17
REMARK    3  A    between atoms: O_5  and  C_20
REMARK    4  A    between atoms: C_7  and  C_11
REMARK                            x       y       z     vdW  Elec       q    Type
REMARK                         _______ _______ _______ _____ _____    ______ ____
ROOT
ATOM      1  O   UNL     1     113.707 126.376 138.617  0.00  0.00    +0.000 OA
ATOM      2  O   UNL     1     111.663 126.464 139.378  0.00  0.00    +0.000 OA
ATOM      3  C   UNL     1     112.318 126.241 138.930  0.00  0.00    +0.000 C 
ATOM      4  C   UNL     1     113.050 126.598 139.064  0.00  0.00    +0.000 C 
ATOM      5  C   UNL     1     112.244 125.661 138.348  0.00  0.00    +0.000 C 
ATOM      6  C   UNL     1     112.899 125.438 137.901  0.00  0.00    +0.000 A 
ATOM      7  C   UNL     1     113.631 125.796 138.035  0.00  0.00    +0.000 A 
ATOM      8  C   UNL     1     112.808 124.833 137.297  0.00  0.00    +0.000 A 
ATOM      9  C   UNL     1     114.322 125.572 137.575  0.00  0.00    +0.000 A 
ATOM     10  C   UNL     1     113.488 124.597 136.828  0.00  0.00    +0.000 A 
ATOM     11  C   UNL     1     114.250 124.969 136.968  0.00  0.00    +0.000 A 
ENDROOT
BRANCH   4  12
ATOM     12  C   UNL     1     113.126 127.178 139.646  0.00  0.00    +0.000 A 
ATOM     13  C   UNL     1     113.012 127.973 139.453  0.00  0.00    +0.000 A 
ATOM     14  C   UNL     1     113.315 126.965 140.420  0.00  0.00    +0.000 A 
ATOM     15  C   UNL     1     113.088 128.553 140.035  0.00  0.00    +0.000 A 
ATOM     16  C   UNL     1     113.391 127.546 141.001  0.00  0.00    +0.000 A 
ATOM     17  C   UNL     1     113.277 128.339 140.809  0.00  0.00    +0.000 A 
BRANCH  17  18
ATOM     18  O   UNL     1     113.353 128.921 141.390  0.00  0.00    +0.000 OA
ATOM     19  C   UNL     1     112.679 129.242 141.741  0.00  0.00    +0.000 C 
ENDBRANCH  17  18
ENDBRANCH   4  12
BRANCH   8  20
ATOM     20  O   UNL     1     112.073 124.481 137.170  0.00  0.00    +0.000 OA
ATOM     21  C   UNL     1     112.000 123.864 136.628  0.00  0.00    +0.000 C 
ENDBRANCH   8  20
BRANCH  11  22
ATOM     22  O   UNL     1     114.908 124.748 136.522  0.00  0.00    +0.000 OA
ATOM     23  C   UNL     1     115.246 125.283 135.993  0.00  0.00    +0.000 C 
ENDBRANCH  11  22
TORSDOF 4
ENDMDL
MODEL 9
REMARK VINA RESULT:      -6.9     11.821     13.529
REMARK  Name = 597429
REMARK  4 active torsions:
REMARK  status: ('A' for Active; 'I' for Inactive)
REMARK    1  A    between atoms: O_3  and  C_12
REMARK    2  A    between atoms: O_4  and  C_17
REMARK    3  A    between atoms: O_5  and  C_20
REMARK    4  A    between atoms: C_7  and  C_11
REMARK                            x       y       z     vdW  Elec       q    Type
REMARK                         _______ _______ _______ _____ _____    ______ ____
ROOT
ATOM      1  O   UNL     1     112.058 126.980 136.082  0.00  0.00    +0.000 OA
ATOM      2  O   UNL     1     113.860 126.279 137.095  0.00  0.00    +0.000 OA
ATOM      3  C   UNL     1     113.340 126.763 136.677  0.00  0.00    +0.000 C 
ATOM      4  C   UNL     1     112.580 126.496 136.501  0.00  0.00    +0.000 C 
ATOM      5  C   UNL     1     113.579 127.515 136.435  0.00  0.00    +0.000 C 
ATOM      6  C   UNL     1     113.059 127.999 136.017  0.00  0.00    +0.000 A 
ATOM      7  C   UNL     1     112.299 127.731 135.840  0.00  0.00    +0.000 A 
ATOM      8  C   UNL     1     113.320 128.780 135.770  0.00  0.00    +0.000 A 
ATOM      9  C   UNL     1     111.747 128.227 135.405  0.00  0.00    +0.000 A 
ATOM     10  C   UNL     1     112.783 129.288 135.334  0.00  0.00    +0.000 A 
ATOM     11  C   UNL     1     111.990 129.010 135.150  0.00  0.00    +0.000 A 
ENDROOT
BRANCH   4  12
ATOM     12  C   UNL     1     112.339 125.745 136.742  0.00  0.00    +0.000 A 
ATOM     13  C   UNL     1     112.513 125.086 136.275  0.00  0.00    +0.000 A 
ATOM     14  C   UNL     1     111.926 125.651 137.450  0.00  0.00    +0.000 A 
ATOM     15  C   UNL     1     112.273 124.335 136.517  0.00  0.00    +0.000 A 
ATOM     16  C   UNL     1     111.686 124.899 137.691  0.00  0.00    +0.000 A 
ATOM     17  C   UNL     1     111.859 124.241 137.225  0.00  0.00    +0.000 A 
BRANCH  17  18
ATOM     18  O   UNL     1     111.620 123.489 137.465  0.00  0.00    +0.000 OA
ATOM     19  C   UNL     1     112.049 122.825 137.231  0.00  0.00    +0.000 C 
ENDBRANCH  17  18
ENDBRANCH   4  12
BRANCH   8  20
ATOM     20  O   UNL     1     114.083 129.038 135.951  0.00  0.00    +0.000 OA
ATOM     21  C   UNL     1     114.350 129.763 135.663  0.00  0.00    +0.000 C 
ENDBRANCH   8  20
BRANCH  11  22
ATOM     22  O   UNL     1     111.467 129.492 134.732  0.00  0.00    +0.000 OA
ATOM     23  C   UNL     1     110.760 129.735 135.082  0.00  0.00    +0.000 C 
ENDBRANCH  11  22
TORSDOF 4
ENDMDL
MODEL 10
REMARK VINA RESULT:      -4.9     12.259     13.138
REMARK  Name = 597429
REMARK  4 active torsions:
REMARK  status: ('A' for Active; 'I' for Inactive)
REMARK    1  A    between atoms: O_3  and  C_12
REMARK    2  A    between atoms: O_4  and  C_17
REMARK    3  A    between atoms: O_5  and  C_20
REMARK    4  A    between atoms: C_7  and  C_11
REMARK                            x       y       z     vdW  Elec       q    Type
REMARK                         _______ _______ _______ _____ _____    ______ ____
ROOT
ATOM      1  O   UNL     1     112.168 126.251 136.093  0.00  0.00    +0.000 OA
ATOM      2  O   UNL     1     110.050 125.781 135.856  0.00  0.00    +0.000 OA
ATOM      3  C   UNL     1     110.853 125.695 136.021  0.00  0.00    +0.000 C 
ATOM      4  C   UNL     1     111.363 126.336 135.928  0.00  0.00    +0.000 C 
ATOM      5  C   UNL     1     111.146 124.968 136.279  0.00  0.00    +0.000 C 
ATOM      6  C   UNL     1     111.949 124.882 136.444  0.00  0.00    +0.000 A 
ATOM      7  C   UNL     1     112.460 125.524 136.351  0.00  0.00    +0.000 A 
ATOM      8  C   UNL     1     112.243 124.120 136.712  0.00  0.00    +0.000 A 
ATOM      9  C   UNL     1     113.300 125.447 136.520  0.00  0.00    +0.000 A 
ATOM     10  C   UNL     1     113.079 124.025 136.885  0.00  0.00    +0.000 A 
ATOM     11  C   UNL     1     113.611 124.693 136.788  0.00  0.00    +0.000 A 
ENDROOT
BRANCH   4  12
ATOM     12  C   UNL     1     111.071 127.063 135.670  0.00  0.00    +0.000 A 
ATOM     13  C   UNL     1     110.908 127.181 134.870  0.00  0.00    +0.000 A 
ATOM     14  C   UNL     1     110.942 127.672 136.212  0.00  0.00    +0.000 A 
ATOM     15  C   UNL     1     110.616 127.908 134.612  0.00  0.00    +0.000 A 
ATOM     16  C   UNL     1     110.650 128.399 135.953  0.00  0.00    +0.000 A 
ATOM     17  C   UNL     1     110.486 128.517 135.154  0.00  0.00    +0.000 A 
BRANCH  17  18
ATOM     18  O   UNL     1     110.194 129.244 134.895  0.00  0.00    +0.000 OA
ATOM     19  C   UNL     1     109.432 129.480 135.106  0.00  0.00    +0.000 C 
ENDBRANCH  17  18
ENDBRANCH   4  12
BRANCH   8  20
ATOM     20  O   UNL     1     111.724 123.485 136.801  0.00  0.00    +0.000 OA
ATOM     21  C   UNL     1     111.955 122.823 137.237  0.00  0.00    +0.000 C 
ENDBRANCH   8  20
BRANCH  11  22
ATOM     22  O   UNL     1     114.415 124.610 136.953  0.00  0.00    +0.000 OA
ATOM     23  C   UNL     1     114.743 124.988 137.609  0.00  0.00    +0.000 C 
ENDBRANCH  11  22
TORSDOF 4
ENDMDL
