MODEL 1
REMARK VINA RESULT:      -9.7      0.000      0.000
REMARK  Name = 57331045
REMARK  4 active torsions:
REMARK  status: ('A' for Active; 'I' for Inactive)
REMARK    1  A    between atoms: O_2  and  C_18
REMARK    2  A    between atoms: O_2  and  C_20
REMARK    3  A    between atoms: C_17  and  C_19
REMARK    4  A    between atoms: C_23  and  C_26
REMARK                            x       y       z     vdW  Elec       q    Type
REMARK                         _______ _______ _______ _____ _____    ______ ____
ROOT
ATOM      1  O   UNL     1     109.343 127.395 138.185  0.00  0.00    +0.000 OA
ATOM      2  C   UNL     1     109.643 127.693 136.820  0.00  0.00    +0.000 A 
ATOM      3  C   UNL     1     109.795 127.263 137.507  0.00  0.00    +0.000 A 
ATOM      4  C   UNL     1     110.095 127.560 136.142  0.00  0.00    +0.000 A 
ATOM      5  C   UNL     1     110.851 126.569 136.840  0.00  0.00    +0.000 A 
ATOM      6  C   UNL     1     110.399 126.701 137.517  0.00  0.00    +0.000 A 
ATOM      7  C   UNL     1     110.699 126.998 136.152  0.00  0.00    +0.000 A 
ENDROOT
BRANCH   5  13
ATOM      8  O   UNL     1     112.180 126.187 137.201  0.00  0.00    +0.000 OA
ATOM      9  O   UNL     1     110.609 125.085 136.159  0.00  0.00    +0.000 OA
ATOM     10  O   UNL     1     111.817 123.961 136.180  0.00  0.00    +0.000 OA
ATOM     11  O   UNL     1     113.155 123.550 136.532  0.00  0.00    +0.000 OA
ATOM     12  O   UNL     1     114.891 125.425 137.945  0.00  0.00    +0.000 OA
ATOM     13  C   UNL     1     111.455 126.007 136.850  0.00  0.00    +0.000 A 
ATOM     14  C   UNL     1     112.663 124.883 136.871  0.00  0.00    +0.000 A 
ATOM     15  C   UNL     1     111.334 125.265 136.510  0.00  0.00    +0.000 A 
ATOM     16  C   UNL     1     112.784 125.625 137.211  0.00  0.00    +0.000 A 
ATOM     17  C   UNL     1     111.938 124.703 136.520  0.00  0.00    +0.000 A 
ATOM     18  C   UNL     1     113.284 124.289 136.875  0.00  0.00    +0.000 A 
ATOM     19  C   UNL     1     113.535 125.824 137.580  0.00  0.00    +0.000 A 
ATOM     20  C   UNL     1     114.167 125.243 137.593  0.00  0.00    +0.000 A 
ATOM     21  C   UNL     1     114.041 124.470 137.239  0.00  0.00    +0.000 A 
ENDBRANCH   5  13
BRANCH   2  22
ATOM     22  O   UNL     1     109.039 128.254 136.809  0.00  0.00    +0.000 OA
BRANCH  22  31
ATOM     23  O   UNL     1     109.862 129.422 136.855  0.00  0.00    +0.000 OA
ATOM     24  O   UNL     1     108.347 130.552 135.256  0.00  0.00    +0.000 OA
ATOM     25  O   UNL     1     109.674 131.342 135.835  0.00  0.00    +0.000 OA
ATOM     26  O   UNL     1     108.029 129.008 135.744  0.00  0.00    +0.000 OA
ATOM     27  C   UNL     1     108.852 130.175 135.789  0.00  0.00    +0.000 C 
ATOM     28  C   UNL     1     109.516 130.570 136.079  0.00  0.00    +0.000 C 
ATOM     29  C   UNL     1     108.693 129.402 136.033  0.00  0.00    +0.000 C 
ATOM     30  C   UNL     1     110.021 130.193 136.612  0.00  0.00    +0.000 C 
ATOM     31  C   UNL     1     109.198 129.026 136.566  0.00  0.00    +0.000 C 
BRANCH  30  34
ATOM     32  O   UNL     1     111.380 130.607 136.458  0.00  0.00    +0.000 OA
ATOM     33  O   UNL     1     110.652 130.966 137.633  0.00  0.00    +0.000 OA
ATOM     34  C   UNL     1     110.684 130.589 136.901  0.00  0.00    +0.000 C 
ENDBRANCH  30  34
ENDBRANCH  22  31
ENDBRANCH   2  22
TORSDOF 4
ENDMDL
MODEL 2
REMARK VINA RESULT:      -9.7      3.717      4.894
REMARK  Name = 57331045
REMARK  4 active torsions:
REMARK  status: ('A' for Active; 'I' for Inactive)
REMARK    1  A    between atoms: O_2  and  C_18
REMARK    2  A    between atoms: O_2  and  C_20
REMARK    3  A    between atoms: C_17  and  C_19
REMARK    4  A    between atoms: C_23  and  C_26
REMARK                            x       y       z     vdW  Elec       q    Type
REMARK                         _______ _______ _______ _____ _____    ______ ____
ROOT
ATOM      1  O   UNL     1     114.570 127.244 141.161  0.00  0.00    +0.000 OA
ATOM      2  C   UNL     1     113.746 128.173 140.454  0.00  0.00    +0.000 A 
ATOM      3  C   UNL     1     114.060 127.415 140.535  0.00  0.00    +0.000 A 
ATOM      4  C   UNL     1     113.236 128.344 139.827  0.00  0.00    +0.000 A 
ATOM      5  C   UNL     1     113.355 126.998 139.365  0.00  0.00    +0.000 A 
ATOM      6  C   UNL     1     113.864 126.827 139.990  0.00  0.00    +0.000 A 
ATOM      7  C   UNL     1     113.041 127.756 139.283  0.00  0.00    +0.000 A 
ENDROOT
BRANCH   5  13
ATOM      8  O   UNL     1     113.694 126.202 138.227  0.00  0.00    +0.000 OA
ATOM      9  O   UNL     1     111.894 126.237 139.462  0.00  0.00    +0.000 OA
ATOM     10  O   UNL     1     111.502 125.061 138.372  0.00  0.00    +0.000 OA
ATOM     11  O   UNL     1     111.820 124.244 137.225  0.00  0.00    +0.000 OA
ATOM     12  O   UNL     1     114.402 124.590 135.907  0.00  0.00    +0.000 OA
ATOM     13  C   UNL     1     113.159 126.410 138.820  0.00  0.00    +0.000 A 
ATOM     14  C   UNL     1     112.768 125.234 137.731  0.00  0.00    +0.000 A 
ATOM     15  C   UNL     1     112.429 126.029 138.868  0.00  0.00    +0.000 A 
ATOM     16  C   UNL     1     113.498 125.614 137.682  0.00  0.00    +0.000 A 
ATOM     17  C   UNL     1     112.233 125.441 138.323  0.00  0.00    +0.000 A 
ATOM     18  C   UNL     1     112.552 124.619 137.169  0.00  0.00    +0.000 A 
ATOM     19  C   UNL     1     114.064 125.407 137.069  0.00  0.00    +0.000 A 
ATOM     20  C   UNL     1     113.865 124.795 136.499  0.00  0.00    +0.000 A 
ATOM     21  C   UNL     1     113.105 124.399 136.549  0.00  0.00    +0.000 A 
ENDBRANCH   5  13
BRANCH   2  22
ATOM     22  O   UNL     1     113.942 128.761 140.999  0.00  0.00    +0.000 OA
BRANCH  22  31
ATOM     23  O   UNL     1     112.748 128.733 141.782  0.00  0.00    +0.000 OA
ATOM     24  O   UNL     1     112.757 131.206 141.888  0.00  0.00    +0.000 OA
ATOM     25  O   UNL     1     111.560 130.353 142.636  0.00  0.00    +0.000 OA
ATOM     26  O   UNL     1     113.949 130.410 141.069  0.00  0.00    +0.000 OA
ATOM     27  C   UNL     1     112.754 130.381 141.852  0.00  0.00    +0.000 C 
ATOM     28  C   UNL     1     112.156 129.954 142.227  0.00  0.00    +0.000 C 
ATOM     29  C   UNL     1     113.350 129.983 141.443  0.00  0.00    +0.000 C 
ATOM     30  C   UNL     1     112.152 129.130 142.191  0.00  0.00    +0.000 C 
ATOM     31  C   UNL     1     113.347 129.159 141.408  0.00  0.00    +0.000 C 
BRANCH  30  34
ATOM     32  O   UNL     1     110.837 128.572 142.179  0.00  0.00    +0.000 OA
ATOM     33  O   UNL     1     111.672 128.410 143.327  0.00  0.00    +0.000 OA
ATOM     34  C   UNL     1     111.554 128.704 142.566  0.00  0.00    +0.000 C 
ENDBRANCH  30  34
ENDBRANCH  22  31
ENDBRANCH   2  22
TORSDOF 4
ENDMDL
MODEL 3
REMARK VINA RESULT:      -9.6      1.158      2.136
REMARK  Name = 57331045
REMARK  4 active torsions:
REMARK  status: ('A' for Active; 'I' for Inactive)
REMARK    1  A    between atoms: O_2  and  C_18
REMARK    2  A    between atoms: O_2  and  C_20
REMARK    3  A    between atoms: C_17  and  C_19
REMARK    4  A    between atoms: C_23  and  C_26
REMARK                            x       y       z     vdW  Elec       q    Type
REMARK                         _______ _______ _______ _____ _____    ______ ____
ROOT
ATOM      1  O   UNL     1     111.997 129.237 134.836  0.00  0.00    +0.000 OA
ATOM      2  C   UNL     1     111.588 129.238 136.205  0.00  0.00    +0.000 A 
ATOM      3  C   UNL     1     111.899 128.840 135.553  0.00  0.00    +0.000 A 
ATOM      4  C   UNL     1     111.490 128.841 136.922  0.00  0.00    +0.000 A 
ATOM      5  C   UNL     1     112.013 127.649 136.333  0.00  0.00    +0.000 A 
ATOM      6  C   UNL     1     112.111 128.045 135.617  0.00  0.00    +0.000 A 
ATOM      7  C   UNL     1     111.702 128.046 136.986  0.00  0.00    +0.000 A 
ENDROOT
BRANCH   5  13
ATOM      8  O   UNL     1     112.980 126.648 136.660  0.00  0.00    +0.000 OA
ATOM      9  O   UNL     1     110.928 126.471 135.935  0.00  0.00    +0.000 OA
ATOM     10  O   UNL     1     111.353 124.881 136.063  0.00  0.00    +0.000 OA
ATOM     11  O   UNL     1     112.311 123.851 136.387  0.00  0.00    +0.000 OA
ATOM     12  O   UNL     1     114.963 124.624 137.332  0.00  0.00    +0.000 OA
ATOM     13  C   UNL     1     112.225 126.854 136.397  0.00  0.00    +0.000 A 
ATOM     14  C   UNL     1     112.650 125.265 136.525  0.00  0.00    +0.000 A 
ATOM     15  C   UNL     1     111.684 126.265 136.198  0.00  0.00    +0.000 A 
ATOM     16  C   UNL     1     113.192 125.854 136.724  0.00  0.00    +0.000 A 
ATOM     17  C   UNL     1     111.896 125.470 136.262  0.00  0.00    +0.000 A 
ATOM     18  C   UNL     1     112.859 124.433 136.588  0.00  0.00    +0.000 A 
ATOM     19  C   UNL     1     113.981 125.653 137.000  0.00  0.00    +0.000 A 
ATOM     20  C   UNL     1     114.208 124.827 137.068  0.00  0.00    +0.000 A 
ATOM     21  C   UNL     1     113.643 124.213 136.861  0.00  0.00    +0.000 A 
ENDBRANCH   5  13
BRANCH   2  22
ATOM     22  O   UNL     1     111.376 130.033 136.141  0.00  0.00    +0.000 OA
BRANCH  22  31
ATOM     23  O   UNL     1     109.954 129.894 136.116  0.00  0.00    +0.000 OA
ATOM     24  O   UNL     1     109.741 131.803 137.677  0.00  0.00    +0.000 OA
ATOM     25  O   UNL     1     108.391 131.028 137.132  0.00  0.00    +0.000 OA
ATOM     26  O   UNL     1     111.234 131.305 137.181  0.00  0.00    +0.000 OA
ATOM     27  C   UNL     1     109.812 131.167 137.157  0.00  0.00    +0.000 C 
ATOM     28  C   UNL     1     109.137 130.779 136.884  0.00  0.00    +0.000 C 
ATOM     29  C   UNL     1     110.559 130.918 136.909  0.00  0.00    +0.000 C 
ATOM     30  C   UNL     1     109.208 130.142 136.364  0.00  0.00    +0.000 C 
ATOM     31  C   UNL     1     110.630 130.281 136.388  0.00  0.00    +0.000 C 
BRANCH  30  34
ATOM     32  O   UNL     1     108.219 129.123 136.519  0.00  0.00    +0.000 OA
ATOM     33  O   UNL     1     108.171 130.000 135.392  0.00  0.00    +0.000 OA
ATOM     34  C   UNL     1     108.533 129.755 136.092  0.00  0.00    +0.000 C 
ENDBRANCH  30  34
ENDBRANCH  22  31
ENDBRANCH   2  22
TORSDOF 4
ENDMDL
MODEL 4
REMARK VINA RESULT:      -9.6      8.497      9.933
REMARK  Name = 57331045
REMARK  4 active torsions:
REMARK  status: ('A' for Active; 'I' for Inactive)
REMARK    1  A    between atoms: O_2  and  C_18
REMARK    2  A    between atoms: O_2  and  C_20
REMARK    3  A    between atoms: C_17  and  C_19
REMARK    4  A    between atoms: C_23  and  C_26
REMARK                            x       y       z     vdW  Elec       q    Type
REMARK                         _______ _______ _______ _____ _____    ______ ____
ROOT
ATOM      1  O   UNL     1     105.936 124.607 143.328  0.00  0.00    +0.000 OA
ATOM      2  C   UNL     1     105.709 125.961 143.725  0.00  0.00    +0.000 A 
ATOM      3  C   UNL     1     105.872 125.177 143.922  0.00  0.00    +0.000 A 
ATOM      4  C   UNL     1     105.645 126.531 144.319  0.00  0.00    +0.000 A 
ATOM      5  C   UNL     1     105.909 125.532 145.305  0.00  0.00    +0.000 A 
ATOM      6  C   UNL     1     105.973 124.963 144.712  0.00  0.00    +0.000 A 
ATOM      7  C   UNL     1     105.745 126.317 145.109  0.00  0.00    +0.000 A 
ENDROOT
BRANCH   5  13
ATOM      8  O   UNL     1     106.767 125.282 146.421  0.00  0.00    +0.000 OA
ATOM      9  O   UNL     1     104.594 125.173 146.235  0.00  0.00    +0.000 OA
ATOM     10  O   UNL     1     104.794 124.743 147.816  0.00  0.00    +0.000 OA
ATOM     11  O   UNL     1     105.638 124.485 148.959  0.00  0.00    +0.000 OA
ATOM     12  O   UNL     1     108.530 124.777 148.683  0.00  0.00    +0.000 OA
ATOM     13  C   UNL     1     106.009 125.317 146.096  0.00  0.00    +0.000 A 
ATOM     14  C   UNL     1     106.209 124.888 147.676  0.00  0.00    +0.000 A 
ATOM     15  C   UNL     1     105.352 125.138 146.561  0.00  0.00    +0.000 A 
ATOM     16  C   UNL     1     106.867 125.067 147.211  0.00  0.00    +0.000 A 
ATOM     17  C   UNL     1     105.452 124.923 147.351  0.00  0.00    +0.000 A 
ATOM     18  C   UNL     1     106.300 124.663 148.501  0.00  0.00    +0.000 A 
ATOM     19  C   UNL     1     107.661 125.034 147.538  0.00  0.00    +0.000 A 
ATOM     20  C   UNL     1     107.771 124.811 148.361  0.00  0.00    +0.000 A 
ATOM     21  C   UNL     1     107.087 124.624 148.845  0.00  0.00    +0.000 A 
ENDBRANCH   5  13
BRANCH   2  22
ATOM     22  O   UNL     1     105.609 126.176 142.935  0.00  0.00    +0.000 OA
BRANCH  22  31
ATOM     23  O   UNL     1     106.867 126.821 142.728  0.00  0.00    +0.000 OA
ATOM     24  O   UNL     1     105.739 128.609 141.441  0.00  0.00    +0.000 OA
ATOM     25  O   UNL     1     107.372 128.658 141.663  0.00  0.00    +0.000 OA
ATOM     26  O   UNL     1     104.857 127.368 142.077  0.00  0.00    +0.000 OA
ATOM     27  C   UNL     1     106.115 128.013 141.870  0.00  0.00    +0.000 C 
ATOM     28  C   UNL     1     106.932 128.037 141.981  0.00  0.00    +0.000 C 
ATOM     29  C   UNL     1     105.673 127.392 142.188  0.00  0.00    +0.000 C 
ATOM     30  C   UNL     1     107.308 127.441 142.410  0.00  0.00    +0.000 C 
ATOM     31  C   UNL     1     106.050 126.796 142.617  0.00  0.00    +0.000 C 
BRANCH  30  34
ATOM     32  O   UNL     1     108.448 127.949 143.106  0.00  0.00    +0.000 OA
ATOM     33  O   UNL     1     108.619 127.006 142.046  0.00  0.00    +0.000 OA
ATOM     34  C   UNL     1     108.124 127.465 142.521  0.00  0.00    +0.000 C 
ENDBRANCH  30  34
ENDBRANCH  22  31
ENDBRANCH   2  22
TORSDOF 4
ENDMDL
MODEL 5
REMARK VINA RESULT:      -9.6      1.369      2.033
REMARK  Name = 57331045
REMARK  4 active torsions:
REMARK  status: ('A' for Active; 'I' for Inactive)
REMARK    1  A    between atoms: O_2  and  C_18
REMARK    2  A    between atoms: O_2  and  C_20
REMARK    3  A    between atoms: C_17  and  C_19
REMARK    4  A    between atoms: C_23  and  C_26
REMARK                            x       y       z     vdW  Elec       q    Type
REMARK                         _______ _______ _______ _____ _____    ______ ____
ROOT
ATOM      1  O   UNL     1     112.067 129.000 134.612  0.00  0.00    +0.000 OA
ATOM      2  C   UNL     1     111.260 128.960 135.791  0.00  0.00    +0.000 A 
ATOM      3  C   UNL     1     111.784 128.591 135.272  0.00  0.00    +0.000 A 
ATOM      4  C   UNL     1     110.977 128.551 136.450  0.00  0.00    +0.000 A 
ATOM      5  C   UNL     1     111.744 127.408 136.070  0.00  0.00    +0.000 A 
ATOM      6  C   UNL     1     112.027 127.815 135.411  0.00  0.00    +0.000 A 
ATOM      7  C   UNL     1     111.220 127.775 136.590  0.00  0.00    +0.000 A 
ENDROOT
BRANCH   5  13
ATOM      8  O   UNL     1     112.730 126.484 136.538  0.00  0.00    +0.000 OA
ATOM      9  O   UNL     1     110.744 126.150 135.693  0.00  0.00    +0.000 OA
ATOM     10  O   UNL     1     111.229 124.598 135.972  0.00  0.00    +0.000 OA
ATOM     11  O   UNL     1     112.207 123.644 136.438  0.00  0.00    +0.000 OA
ATOM     12  O   UNL     1     114.749 124.617 137.496  0.00  0.00    +0.000 OA
ATOM     13  C   UNL     1     111.987 126.632 136.210  0.00  0.00    +0.000 A 
ATOM     14  C   UNL     1     112.472 125.079 136.489  0.00  0.00    +0.000 A 
ATOM     15  C   UNL     1     111.487 126.003 136.021  0.00  0.00    +0.000 A 
ATOM     16  C   UNL     1     112.972 125.708 136.678  0.00  0.00    +0.000 A 
ATOM     17  C   UNL     1     111.730 125.227 136.161  0.00  0.00    +0.000 A 
ATOM     18  C   UNL     1     112.713 124.266 136.630  0.00  0.00    +0.000 A 
ATOM     19  C   UNL     1     113.748 125.567 137.020  0.00  0.00    +0.000 A 
ATOM     20  C   UNL     1     114.006 124.761 137.168  0.00  0.00    +0.000 A 
ATOM     21  C   UNL     1     113.485 124.106 136.971  0.00  0.00    +0.000 A 
ENDBRANCH   5  13
BRANCH   2  22
ATOM     22  O   UNL     1     111.017 129.736 135.651  0.00  0.00    +0.000 OA
BRANCH  22  31
ATOM     23  O   UNL     1     111.831 130.379 136.634  0.00  0.00    +0.000 OA
ATOM     24  O   UNL     1     109.954 131.890 137.199  0.00  0.00    +0.000 OA
ATOM     25  O   UNL     1     111.393 132.029 137.994  0.00  0.00    +0.000 OA
ATOM     26  O   UNL     1     109.766 130.744 136.028  0.00  0.00    +0.000 OA
ATOM     27  C   UNL     1     110.580 131.386 137.011  0.00  0.00    +0.000 C 
ATOM     28  C   UNL     1     111.300 131.455 137.408  0.00  0.00    +0.000 C 
ATOM     29  C   UNL     1     110.486 130.812 136.425  0.00  0.00    +0.000 C 
ATOM     30  C   UNL     1     111.925 130.951 137.219  0.00  0.00    +0.000 C 
ATOM     31  C   UNL     1     111.111 130.309 136.236  0.00  0.00    +0.000 C 
BRANCH  30  34
ATOM     32  O   UNL     1     112.716 130.748 138.392  0.00  0.00    +0.000 OA
ATOM     33  O   UNL     1     113.292 131.364 137.239  0.00  0.00    +0.000 OA
ATOM     34  C   UNL     1     112.644 131.021 137.617  0.00  0.00    +0.000 C 
ENDBRANCH  30  34
ENDBRANCH  22  31
ENDBRANCH   2  22
TORSDOF 4
ENDMDL
MODEL 6
REMARK VINA RESULT:      -9.3      1.559      5.682
REMARK  Name = 57331045
REMARK  4 active torsions:
REMARK  status: ('A' for Active; 'I' for Inactive)
REMARK    1  A    between atoms: O_2  and  C_18
REMARK    2  A    between atoms: O_2  and  C_20
REMARK    3  A    between atoms: C_17  and  C_19
REMARK    4  A    between atoms: C_23  and  C_26
REMARK                            x       y       z     vdW  Elec       q    Type
REMARK                         _______ _______ _______ _____ _____    ______ ____
ROOT
ATOM      1  O   UNL     1     108.250 127.393 136.164  0.00  0.00    +0.000 OA
ATOM      2  C   UNL     1     109.613 127.400 135.737  0.00  0.00    +0.000 A 
ATOM      3  C   UNL     1     108.941 127.808 135.986  0.00  0.00    +0.000 A 
ATOM      4  C   UNL     1     110.305 127.815 135.559  0.00  0.00    +0.000 A 
ATOM      5  C   UNL     1     109.650 129.044 135.879  0.00  0.00    +0.000 A 
ATOM      6  C   UNL     1     108.959 128.630 136.057  0.00  0.00    +0.000 A 
ATOM      7  C   UNL     1     110.323 128.637 135.630  0.00  0.00    +0.000 A 
ENDROOT
BRANCH   5  13
ATOM      8  O   UNL     1     109.919 130.213 136.656  0.00  0.00    +0.000 OA
ATOM      9  O   UNL     1     109.183 129.992 134.612  0.00  0.00    +0.000 OA
ATOM     10  O   UNL     1     109.219 131.635 134.754  0.00  0.00    +0.000 OA
ATOM     11  O   UNL     1     109.483 132.833 135.516  0.00  0.00    +0.000 OA
ATOM     12  O   UNL     1     110.474 132.585 138.252  0.00  0.00    +0.000 OA
ATOM     13  C   UNL     1     109.668 129.865 135.950  0.00  0.00    +0.000 A 
ATOM     14  C   UNL     1     109.704 131.509 136.093  0.00  0.00    +0.000 A 
ATOM     15  C   UNL     1     109.434 130.340 135.317  0.00  0.00    +0.000 A 
ATOM     16  C   UNL     1     109.937 131.035 136.727  0.00  0.00    +0.000 A 
ATOM     17  C   UNL     1     109.452 131.162 135.388  0.00  0.00    +0.000 A 
ATOM     18  C   UNL     1     109.718 132.366 136.155  0.00  0.00    +0.000 A 
ATOM     19  C   UNL     1     110.201 131.385 137.466  0.00  0.00    +0.000 A 
ATOM     20  C   UNL     1     110.222 132.240 137.546  0.00  0.00    +0.000 A 
ATOM     21  C   UNL     1     109.979 132.734 136.886  0.00  0.00    +0.000 A 
ENDBRANCH   5  13
BRANCH   2  22
ATOM     22  O   UNL     1     109.595 126.578 135.666  0.00  0.00    +0.000 OA
BRANCH  22  31
ATOM     23  O   UNL     1     110.254 126.261 136.894  0.00  0.00    +0.000 OA
ATOM     24  O   UNL     1     111.485 124.436 135.763  0.00  0.00    +0.000 OA
ATOM     25  O   UNL     1     111.732 124.728 137.367  0.00  0.00    +0.000 OA
ATOM     26  O   UNL     1     110.416 125.362 134.912  0.00  0.00    +0.000 OA
ATOM     27  C   UNL     1     111.074 125.045 136.140  0.00  0.00    +0.000 C 
ATOM     28  C   UNL     1     111.198 125.191 136.942  0.00  0.00    +0.000 C 
ATOM     29  C   UNL     1     110.540 125.508 135.714  0.00  0.00    +0.000 C 
ATOM     30  C   UNL     1     110.787 125.799 137.319  0.00  0.00    +0.000 C 
ATOM     31  C   UNL     1     110.129 126.116 136.091  0.00  0.00    +0.000 C 
BRANCH  30  34
ATOM     32  O   UNL     1     111.523 126.444 138.361  0.00  0.00    +0.000 OA
ATOM     33  O   UNL     1     110.424 125.590 138.685  0.00  0.00    +0.000 OA
ATOM     34  C   UNL     1     110.911 125.944 138.121  0.00  0.00    +0.000 C 
ENDBRANCH  30  34
ENDBRANCH  22  31
ENDBRANCH   2  22
TORSDOF 4
ENDMDL
MODEL 7
REMARK VINA RESULT:      -9.3      1.213      5.838
REMARK  Name = 57331045
REMARK  4 active torsions:
REMARK  status: ('A' for Active; 'I' for Inactive)
REMARK    1  A    between atoms: O_2  and  C_18
REMARK    2  A    between atoms: O_2  and  C_20
REMARK    3  A    between atoms: C_17  and  C_19
REMARK    4  A    between atoms: C_23  and  C_26
REMARK                            x       y       z     vdW  Elec       q    Type
REMARK                         _______ _______ _______ _____ _____    ______ ____
ROOT
ATOM      1  O   UNL     1     112.154 128.119 138.358  0.00  0.00    +0.000 OA
ATOM      2  C   UNL     1     112.280 127.732 136.988  0.00  0.00    +0.000 A 
ATOM      3  C   UNL     1     111.889 128.158 137.576  0.00  0.00    +0.000 A 
ATOM      4  C   UNL     1     112.016 127.771 136.207  0.00  0.00    +0.000 A 
ATOM      5  C   UNL     1     110.971 128.660 136.605  0.00  0.00    +0.000 A 
ATOM      6  C   UNL     1     111.235 128.622 137.385  0.00  0.00    +0.000 A 
ATOM      7  C   UNL     1     111.361 128.235 136.015  0.00  0.00    +0.000 A 
ENDROOT
BRANCH   5  13
ATOM      8  O   UNL     1     110.402 129.940 136.318  0.00  0.00    +0.000 OA
ATOM      9  O   UNL     1     109.491 127.958 136.410  0.00  0.00    +0.000 OA
ATOM     10  O   UNL     1     108.181 128.887 136.027  0.00  0.00    +0.000 OA
ATOM     11  O   UNL     1     107.581 130.166 135.735  0.00  0.00    +0.000 OA
ATOM     12  O   UNL     1     109.261 132.555 135.738  0.00  0.00    +0.000 OA
ATOM     13  C   UNL     1     110.317 129.124 136.413  0.00  0.00    +0.000 A 
ATOM     14  C   UNL     1     109.007 130.053 136.030  0.00  0.00    +0.000 A 
ATOM     15  C   UNL     1     109.576 128.774 136.316  0.00  0.00    +0.000 A 
ATOM     16  C   UNL     1     109.748 130.404 136.127  0.00  0.00    +0.000 A 
ATOM     17  C   UNL     1     108.922 129.238 136.124  0.00  0.00    +0.000 A 
ATOM     18  C   UNL     1     108.318 130.526 135.830  0.00  0.00    +0.000 A 
ATOM     19  C   UNL     1     109.850 131.252 136.031  0.00  0.00    +0.000 A 
ATOM     20  C   UNL     1     109.172 131.740 135.832  0.00  0.00    +0.000 A 
ATOM     21  C   UNL     1     108.401 131.375 135.730  0.00  0.00    +0.000 A 
ENDBRANCH   5  13
BRANCH   2  22
ATOM     22  O   UNL     1     112.935 127.268 137.180  0.00  0.00    +0.000 OA
BRANCH  22  31
ATOM     23  O   UNL     1     112.266 126.005 137.185  0.00  0.00    +0.000 OA
ATOM     24  O   UNL     1     114.253 124.949 136.155  0.00  0.00    +0.000 OA
ATOM     25  O   UNL     1     112.923 124.039 136.503  0.00  0.00    +0.000 OA
ATOM     26  O   UNL     1     114.260 126.564 136.493  0.00  0.00    +0.000 OA
ATOM     27  C   UNL     1     113.591 125.301 136.498  0.00  0.00    +0.000 C 
ATOM     28  C   UNL     1     112.925 124.846 136.672  0.00  0.00    +0.000 C 
ATOM     29  C   UNL     1     113.594 126.109 136.667  0.00  0.00    +0.000 C 
ATOM     30  C   UNL     1     112.263 125.198 137.016  0.00  0.00    +0.000 C 
ATOM     31  C   UNL     1     112.932 126.461 137.011  0.00  0.00    +0.000 C 
BRANCH  30  34
ATOM     32  O   UNL     1     111.042 124.581 136.601  0.00  0.00    +0.000 OA
ATOM     33  O   UNL     1     111.487 124.449 137.952  0.00  0.00    +0.000 OA
ATOM     34  C   UNL     1     111.598 124.743 137.189  0.00  0.00    +0.000 C 
ENDBRANCH  30  34
ENDBRANCH  22  31
ENDBRANCH   2  22
TORSDOF 4
ENDMDL
MODEL 8
REMARK VINA RESULT:      -9.3      1.518      2.445
REMARK  Name = 57331045
REMARK  4 active torsions:
REMARK  status: ('A' for Active; 'I' for Inactive)
REMARK    1  A    between atoms: O_2  and  C_18
REMARK    2  A    between atoms: O_2  and  C_20
REMARK    3  A    between atoms: C_17  and  C_19
REMARK    4  A    between atoms: C_23  and  C_26
REMARK                            x       y       z     vdW  Elec       q    Type
REMARK                         _______ _______ _______ _____ _____    ______ ____
ROOT
ATOM      1  O   UNL     1     107.854 128.490 135.688  0.00  0.00    +0.000 OA
ATOM      2  C   UNL     1     109.100 129.175 135.834  0.00  0.00    +0.000 A 
ATOM      3  C   UNL     1     108.644 128.494 135.928  0.00  0.00    +0.000 A 
ATOM      4  C   UNL     1     109.890 129.179 136.074  0.00  0.00    +0.000 A 
ATOM      5  C   UNL     1     109.766 127.821 136.501  0.00  0.00    +0.000 A 
ATOM      6  C   UNL     1     108.978 127.817 136.262  0.00  0.00    +0.000 A 
ATOM      7  C   UNL     1     110.223 128.502 136.408  0.00  0.00    +0.000 A 
ENDROOT
BRANCH   5  13
ATOM      8  O   UNL     1     110.462 126.581 136.352  0.00  0.00    +0.000 OA
ATOM      9  O   UNL     1     109.709 127.592 138.134  0.00  0.00    +0.000 OA
ATOM     10  O   UNL     1     110.375 126.237 138.801  0.00  0.00    +0.000 OA
ATOM     11  O   UNL     1     111.076 124.982 138.679  0.00  0.00    +0.000 OA
ATOM     12  O   UNL     1     111.879 124.058 136.028  0.00  0.00    +0.000 OA
ATOM     13  C   UNL     1     110.099 127.144 136.835  0.00  0.00    +0.000 A 
ATOM     14  C   UNL     1     110.766 125.790 137.502  0.00  0.00    +0.000 A 
ATOM     15  C   UNL     1     110.071 127.029 137.651  0.00  0.00    +0.000 A 
ATOM     16  C   UNL     1     110.795 125.904 136.685  0.00  0.00    +0.000 A 
ATOM     17  C   UNL     1     110.404 126.351 137.985  0.00  0.00    +0.000 A 
ATOM     18  C   UNL     1     111.109 125.088 137.861  0.00  0.00    +0.000 A 
ATOM     19  C   UNL     1     111.169 125.325 136.171  0.00  0.00    +0.000 A 
ATOM     20  C   UNL     1     111.518 124.618 136.513  0.00  0.00    +0.000 A 
ATOM     21  C   UNL     1     111.488 124.499 137.363  0.00  0.00    +0.000 A 
ENDBRANCH   5  13
BRANCH   2  22
ATOM     22  O   UNL     1     108.767 129.852 135.501  0.00  0.00    +0.000 OA
BRANCH  22  31
ATOM     23  O   UNL     1     108.717 130.668 136.673  0.00  0.00    +0.000 OA
ATOM     24  O   UNL     1     109.476 132.617 135.350  0.00  0.00    +0.000 OA
ATOM     25  O   UNL     1     109.173 132.782 136.963  0.00  0.00    +0.000 OA
ATOM     26  O   UNL     1     109.273 131.152 134.619  0.00  0.00    +0.000 OA
ATOM     27  C   UNL     1     109.223 131.967 135.791  0.00  0.00    +0.000 C 
ATOM     28  C   UNL     1     109.071 132.049 136.598  0.00  0.00    +0.000 C 
ATOM     29  C   UNL     1     109.121 131.234 135.425  0.00  0.00    +0.000 C 
ATOM     30  C   UNL     1     108.819 131.399 137.039  0.00  0.00    +0.000 C 
ATOM     31  C   UNL     1     108.868 130.584 135.866  0.00  0.00    +0.000 C 
BRANCH  30  34
ATOM     32  O   UNL     1     109.273 131.366 138.393  0.00  0.00    +0.000 OA
ATOM     33  O   UNL     1     107.910 131.682 138.104  0.00  0.00    +0.000 OA
ATOM     34  C   UNL     1     108.668 131.482 137.845  0.00  0.00    +0.000 C 
ENDBRANCH  30  34
ENDBRANCH  22  31
ENDBRANCH   2  22
TORSDOF 4
ENDMDL
MODEL 9
REMARK VINA RESULT:      -9.1      1.489      2.333
REMARK  Name = 57331045
REMARK  4 active torsions:
REMARK  status: ('A' for Active; 'I' for Inactive)
REMARK    1  A    between atoms: O_2  and  C_18
REMARK    2  A    between atoms: O_2  and  C_20
REMARK    3  A    between atoms: C_17  and  C_19
REMARK    4  A    between atoms: C_23  and  C_26
REMARK                            x       y       z     vdW  Elec       q    Type
REMARK                         _______ _______ _______ _____ _____    ______ ____
ROOT
ATOM      1  O   UNL     1     109.317 128.587 136.451  0.00  0.00    +0.000 OA
ATOM      2  C   UNL     1     109.840 128.627 137.780  0.00  0.00    +0.000 A 
ATOM      3  C   UNL     1     109.847 128.309 137.019  0.00  0.00    +0.000 A 
ATOM      4  C   UNL     1     110.371 128.349 138.348  0.00  0.00    +0.000 A 
ATOM      5  C   UNL     1     110.913 127.435 137.392  0.00  0.00    +0.000 A 
ATOM      6  C   UNL     1     110.384 127.713 136.825  0.00  0.00    +0.000 A 
ATOM      7  C   UNL     1     110.908 127.753 138.154  0.00  0.00    +0.000 A 
ENDROOT
BRANCH   5  13
ATOM      8  O   UNL     1     111.240 126.046 137.297  0.00  0.00    +0.000 OA
ATOM      9  O   UNL     1     112.406 127.826 136.809  0.00  0.00    +0.000 OA
ATOM     10  O   UNL     1     113.479 126.634 136.422  0.00  0.00    +0.000 OA
ATOM     11  O   UNL     1     113.835 125.239 136.315  0.00  0.00    +0.000 OA
ATOM     12  O   UNL     1     111.888 123.214 137.109  0.00  0.00    +0.000 OA
ATOM     13  C   UNL     1     111.450 126.839 137.199  0.00  0.00    +0.000 A 
ATOM     14  C   UNL     1     112.523 125.647 136.812  0.00  0.00    +0.000 A 
ATOM     15  C   UNL     1     112.196 127.034 136.907  0.00  0.00    +0.000 A 
ATOM     16  C   UNL     1     111.776 125.450 137.103  0.00  0.00    +0.000 A 
ATOM     17  C   UNL     1     112.733 126.438 136.713  0.00  0.00    +0.000 A 
ATOM     18  C   UNL     1     113.091 125.034 136.606  0.00  0.00    +0.000 A 
ATOM     19  C   UNL     1     111.546 124.629 137.210  0.00  0.00    +0.000 A 
ATOM     20  C   UNL     1     112.100 124.005 137.010  0.00  0.00    +0.000 A 
ATOM     21  C   UNL     1     112.878 124.208 136.706  0.00  0.00    +0.000 A 
ENDBRANCH   5  13
BRANCH   2  22
ATOM     22  O   UNL     1     109.304 129.223 137.973  0.00  0.00    +0.000 OA
BRANCH  22  31
ATOM     23  O   UNL     1     110.215 130.324 137.949  0.00  0.00    +0.000 OA
ATOM     24  O   UNL     1     109.106 131.285 139.942  0.00  0.00    +0.000 OA
ATOM     25  O   UNL     1     110.386 132.065 139.253  0.00  0.00    +0.000 OA
ATOM     26  O   UNL     1     108.565 129.864 139.302  0.00  0.00    +0.000 OA
ATOM     27  C   UNL     1     109.476 130.965 139.278  0.00  0.00    +0.000 C 
ATOM     28  C   UNL     1     110.116 131.354 138.933  0.00  0.00    +0.000 C 
ATOM     29  C   UNL     1     109.205 130.254 138.957  0.00  0.00    +0.000 C 
ATOM     30  C   UNL     1     110.485 131.034 138.268  0.00  0.00    +0.000 C 
ATOM     31  C   UNL     1     109.575 129.933 138.293  0.00  0.00    +0.000 C 
BRANCH  30  34
ATOM     32  O   UNL     1     111.885 131.322 138.231  0.00  0.00    +0.000 OA
ATOM     33  O   UNL     1     111.006 131.916 137.273  0.00  0.00    +0.000 OA
ATOM     34  C   UNL     1     111.125 131.424 137.924  0.00  0.00    +0.000 C 
ENDBRANCH  30  34
ENDBRANCH  22  31
ENDBRANCH   2  22
TORSDOF 4
ENDMDL
