MODEL 1
REMARK VINA RESULT:      -7.4      0.000      0.000
REMARK  Name = 358832
REMARK  6 active torsions:
REMARK  status: ('A' for Active; 'I' for Inactive)
REMARK    1  A    between atoms: O_2  and  C_11
REMARK    2  A    between atoms: O_3  and  C_14
REMARK    3  A    between atoms: O_4  and  C_16
REMARK    4  A    between atoms: O_7  and  C_21
REMARK    5  A    between atoms: O_8  and  C_22
REMARK    6  A    between atoms: C_12  and  C_17
REMARK                            x       y       z     vdW  Elec       q    Type
REMARK                         _______ _______ _______ _____ _____    ______ ____
ROOT
ATOM      1  O   UNL     1     102.890 131.969 141.249  0.00  0.00    +0.000 OA
ATOM      2  O   UNL     1     100.749 133.593 142.323  0.00  0.00    +0.000 OA
ATOM      3  O   UNL     1     100.710 132.164 142.521  0.00  0.00    +0.000 OA
ATOM      4  C   UNL     1     101.808 132.793 141.791  0.00  0.00    +0.000 A 
ATOM      5  C   UNL     1     102.518 132.732 141.376  0.00  0.00    +0.000 A 
ATOM      6  C   UNL     1     102.880 133.411 141.077  0.00  0.00    +0.000 A 
ATOM      7  C   UNL     1     102.518 131.258 141.558  0.00  0.00    +0.000 A 
ATOM      8  C   UNL     1     101.459 133.532 141.907  0.00  0.00    +0.000 A 
ATOM      9  C   UNL     1     102.532 134.149 141.193  0.00  0.00    +0.000 A 
ATOM     10  C   UNL     1     101.421 132.094 142.107  0.00  0.00    +0.000 A 
ATOM     11  C   UNL     1     101.822 134.210 141.608  0.00  0.00    +0.000 A 
ATOM     12  C   UNL     1     101.778 131.321 141.990  0.00  0.00    +0.000 A 
ENDROOT
BRANCH   7  13
ATOM     13  C   UNL     1     102.868 130.521 141.440  0.00  0.00    +0.000 A 
ATOM     14  C   UNL     1     102.707 130.092 140.754  0.00  0.00    +0.000 A 
ATOM     15  C   UNL     1     103.380 130.211 142.009  0.00  0.00    +0.000 A 
ATOM     16  C   UNL     1     103.056 129.355 140.636  0.00  0.00    +0.000 A 
ATOM     17  C   UNL     1     103.569 129.045 141.204  0.00  0.00    +0.000 A 
ATOM     18  C   UNL     1     103.730 129.473 141.890  0.00  0.00    +0.000 A 
BRANCH  16  19
ATOM     19  O   UNL     1     102.895 128.926 139.950  0.00  0.00    +0.000 OA
ATOM     20  C   UNL     1     102.237 129.117 139.489  0.00  0.00    +0.000 C 
ENDBRANCH  16  19
BRANCH  17  21
ATOM     21  O   UNL     1     103.918 128.308 141.086  0.00  0.00    +0.000 OA
ATOM     22  C   UNL     1     104.542 128.066 141.569  0.00  0.00    +0.000 C 
ENDBRANCH  17  21
ENDBRANCH   7  13
BRANCH   6  23
ATOM     23  O   UNL     1     103.590 133.350 140.662  0.00  0.00    +0.000 OA
ATOM     24  C   UNL     1     104.298 133.575 141.021  0.00  0.00    +0.000 C 
ENDBRANCH   6  23
BRANCH   9  25
ATOM     25  O   UNL     1     102.894 134.828 140.895  0.00  0.00    +0.000 OA
ATOM     26  C   UNL     1     102.691 135.109 140.147  0.00  0.00    +0.000 C 
ENDBRANCH   9  25
BRANCH  11  27
ATOM     27  O   UNL     1     101.473 134.949 141.725  0.00  0.00    +0.000 OA
ATOM     28  C   UNL     1     101.504 135.307 142.467  0.00  0.00    +0.000 C 
ENDBRANCH  11  27
TORSDOF 6
ENDMDL
MODEL 2
REMARK VINA RESULT:      -7.3     10.926     13.129
REMARK  Name = 358832
REMARK  6 active torsions:
REMARK  status: ('A' for Active; 'I' for Inactive)
REMARK    1  A    between atoms: O_2  and  C_11
REMARK    2  A    between atoms: O_3  and  C_14
REMARK    3  A    between atoms: O_4  and  C_16
REMARK    4  A    between atoms: O_7  and  C_21
REMARK    5  A    between atoms: O_8  and  C_22
REMARK    6  A    between atoms: C_12  and  C_17
REMARK                            x       y       z     vdW  Elec       q    Type
REMARK                         _______ _______ _______ _____ _____    ______ ____
ROOT
ATOM      1  O   UNL     1     112.762 127.915 135.901  0.00  0.00    +0.000 OA
ATOM      2  O   UNL     1     113.021 125.176 136.803  0.00  0.00    +0.000 OA
ATOM      3  O   UNL     1     114.172 126.045 136.865  0.00  0.00    +0.000 OA
ATOM      4  C   UNL     1     112.891 126.528 136.357  0.00  0.00    +0.000 A 
ATOM      5  C   UNL     1     112.429 127.136 136.042  0.00  0.00    +0.000 A 
ATOM      6  C   UNL     1     111.636 126.998 135.860  0.00  0.00    +0.000 A 
ATOM      7  C   UNL     1     113.587 128.064 136.090  0.00  0.00    +0.000 A 
ATOM      8  C   UNL     1     112.560 125.784 136.488  0.00  0.00    +0.000 A 
ATOM      9  C   UNL     1     111.305 126.254 135.991  0.00  0.00    +0.000 A 
ATOM     10  C   UNL     1     113.717 126.658 136.551  0.00  0.00    +0.000 A 
ATOM     11  C   UNL     1     111.767 125.647 136.305  0.00  0.00    +0.000 A 
ATOM     12  C   UNL     1     114.068 127.432 136.417  0.00  0.00    +0.000 A 
ENDROOT
BRANCH   7  13
ATOM     13  C   UNL     1     113.916 128.809 135.957  0.00  0.00    +0.000 A 
ATOM     14  C   UNL     1     113.840 129.400 136.527  0.00  0.00    +0.000 A 
ATOM     15  C   UNL     1     114.320 128.962 135.255  0.00  0.00    +0.000 A 
ATOM     16  C   UNL     1     114.168 130.145 136.395  0.00  0.00    +0.000 A 
ATOM     17  C   UNL     1     114.573 130.300 135.693  0.00  0.00    +0.000 A 
ATOM     18  C   UNL     1     114.649 129.708 135.123  0.00  0.00    +0.000 A 
BRANCH  16  19
ATOM     19  O   UNL     1     114.092 130.736 136.965  0.00  0.00    +0.000 OA
ATOM     20  C   UNL     1     113.554 130.646 137.585  0.00  0.00    +0.000 C 
ENDBRANCH  16  19
BRANCH  17  21
ATOM     21  O   UNL     1     114.901 131.044 135.561  0.00  0.00    +0.000 OA
ATOM     22  C   UNL     1     115.416 131.161 134.927  0.00  0.00    +0.000 C 
ENDBRANCH  17  21
ENDBRANCH   7  13
BRANCH   6  23
ATOM     23  O   UNL     1     111.175 127.605 135.545  0.00  0.00    +0.000 OA
ATOM     24  C   UNL     1     110.645 128.013 136.028  0.00  0.00    +0.000 C 
ENDBRANCH   6  23
BRANCH   9  25
ATOM     25  O   UNL     1     110.512 126.117 135.808  0.00  0.00    +0.000 OA
ATOM     26  C   UNL     1     110.307 125.799 135.076  0.00  0.00    +0.000 C 
ENDBRANCH   9  25
BRANCH  11  27
ATOM     27  O   UNL     1     111.436 124.902 136.437  0.00  0.00    +0.000 OA
ATOM     28  C   UNL     1     111.340 124.625 137.208  0.00  0.00    +0.000 C 
ENDBRANCH  11  27
TORSDOF 6
ENDMDL
MODEL 3
REMARK VINA RESULT:      -7.3      8.971     10.087
REMARK  Name = 358832
REMARK  6 active torsions:
REMARK  status: ('A' for Active; 'I' for Inactive)
REMARK    1  A    between atoms: O_2  and  C_11
REMARK    2  A    between atoms: O_3  and  C_14
REMARK    3  A    between atoms: O_4  and  C_16
REMARK    4  A    between atoms: O_7  and  C_21
REMARK    5  A    between atoms: O_8  and  C_22
REMARK    6  A    between atoms: C_12  and  C_17
REMARK                            x       y       z     vdW  Elec       q    Type
REMARK                         _______ _______ _______ _____ _____    ______ ____
ROOT
ATOM      1  O   UNL     1     110.518 127.952 136.293  0.00  0.00    +0.000 OA
ATOM      2  O   UNL     1     108.183 129.519 135.607  0.00  0.00    +0.000 OA
ATOM      3  O   UNL     1     108.051 128.088 135.738  0.00  0.00    +0.000 OA
ATOM      4  C   UNL     1     109.338 128.748 135.946  0.00  0.00    +0.000 A 
ATOM      5  C   UNL     1     110.142 128.706 136.126  0.00  0.00    +0.000 A 
ATOM      6  C   UNL     1     110.595 129.395 136.149  0.00  0.00    +0.000 A 
ATOM      7  C   UNL     1     110.051 127.231 136.272  0.00  0.00    +0.000 A 
ATOM      8  C   UNL     1     108.987 129.478 135.787  0.00  0.00    +0.000 A 
ATOM      9  C   UNL     1     110.245 130.125 135.990  0.00  0.00    +0.000 A 
ATOM     10  C   UNL     1     108.855 128.038 135.919  0.00  0.00    +0.000 A 
ATOM     11  C   UNL     1     109.441 130.166 135.810  0.00  0.00    +0.000 A 
ATOM     12  C   UNL     1     109.214 127.274 136.083  0.00  0.00    +0.000 A 
ENDROOT
BRANCH   7  13
ATOM     13  C   UNL     1     110.403 126.502 136.430  0.00  0.00    +0.000 A 
ATOM     14  C   UNL     1     110.505 126.255 137.211  0.00  0.00    +0.000 A 
ATOM     15  C   UNL     1     110.654 126.021 135.809  0.00  0.00    +0.000 A 
ATOM     16  C   UNL     1     110.857 125.527 137.370  0.00  0.00    +0.000 A 
ATOM     17  C   UNL     1     111.109 125.045 136.749  0.00  0.00    +0.000 A 
ATOM     18  C   UNL     1     111.007 125.292 135.968  0.00  0.00    +0.000 A 
BRANCH  16  19
ATOM     19  O   UNL     1     110.959 125.279 138.150  0.00  0.00    +0.000 OA
ATOM     20  C   UNL     1     110.808 125.800 138.772  0.00  0.00    +0.000 C 
ENDBRANCH  16  19
BRANCH  17  21
ATOM     21  O   UNL     1     111.461 124.317 136.908  0.00  0.00    +0.000 OA
ATOM     22  C   UNL     1     111.812 123.887 136.297  0.00  0.00    +0.000 C 
ENDBRANCH  17  21
ENDBRANCH   7  13
BRANCH   6  23
ATOM     23  O   UNL     1     111.399 129.354 136.329  0.00  0.00    +0.000 OA
ATOM     24  C   UNL     1     111.960 129.397 135.727  0.00  0.00    +0.000 C 
ENDBRANCH   6  23
BRANCH   9  25
ATOM     25  O   UNL     1     110.699 130.814 136.013  0.00  0.00    +0.000 OA
ATOM     26  C   UNL     1     110.754 131.250 136.710  0.00  0.00    +0.000 C 
ENDBRANCH   9  25
BRANCH  11  27
ATOM     27  O   UNL     1     109.091 130.897 135.651  0.00  0.00    +0.000 OA
ATOM     28  C   UNL     1     108.923 131.113 134.873  0.00  0.00    +0.000 C 
ENDBRANCH  11  27
TORSDOF 6
ENDMDL
MODEL 4
REMARK VINA RESULT:      -7.3     10.037     11.925
REMARK  Name = 358832
REMARK  6 active torsions:
REMARK  status: ('A' for Active; 'I' for Inactive)
REMARK    1  A    between atoms: O_2  and  C_11
REMARK    2  A    between atoms: O_3  and  C_14
REMARK    3  A    between atoms: O_4  and  C_16
REMARK    4  A    between atoms: O_7  and  C_21
REMARK    5  A    between atoms: O_8  and  C_22
REMARK    6  A    between atoms: C_12  and  C_17
REMARK                            x       y       z     vdW  Elec       q    Type
REMARK                         _______ _______ _______ _____ _____    ______ ____
ROOT
ATOM      1  O   UNL     1     112.444 127.476 137.299  0.00  0.00    +0.000 OA
ATOM      2  O   UNL     1     114.118 129.635 136.343  0.00  0.00    +0.000 OA
ATOM      3  O   UNL     1     114.202 128.346 135.698  0.00  0.00    +0.000 OA
ATOM      4  C   UNL     1     113.290 128.570 136.817  0.00  0.00    +0.000 A 
ATOM      5  C   UNL     1     112.717 128.289 137.340  0.00  0.00    +0.000 A 
ATOM      6  C   UNL     1     112.399 128.792 137.912  0.00  0.00    +0.000 A 
ATOM      7  C   UNL     1     112.771 126.948 136.706  0.00  0.00    +0.000 A 
ATOM      8  C   UNL     1     113.545 129.354 136.866  0.00  0.00    +0.000 A 
ATOM      9  C   UNL     1     112.654 129.575 137.961  0.00  0.00    +0.000 A 
ATOM     10  C   UNL     1     113.629 128.057 136.217  0.00  0.00    +0.000 A 
ATOM     11  C   UNL     1     113.227 129.856 137.438  0.00  0.00    +0.000 A 
ATOM     12  C   UNL     1     113.368 127.240 136.161  0.00  0.00    +0.000 A 
ENDROOT
BRANCH   7  13
ATOM     13  C   UNL     1     112.515 126.165 136.659  0.00  0.00    +0.000 A 
ATOM     14  C   UNL     1     111.856 125.974 136.201  0.00  0.00    +0.000 A 
ATOM     15  C   UNL     1     112.917 125.574 137.071  0.00  0.00    +0.000 A 
ATOM     16  C   UNL     1     111.599 125.192 136.154  0.00  0.00    +0.000 A 
ATOM     17  C   UNL     1     112.001 124.599 136.565  0.00  0.00    +0.000 A 
ATOM     18  C   UNL     1     112.659 124.791 137.023  0.00  0.00    +0.000 A 
BRANCH  16  19
ATOM     19  O   UNL     1     110.940 125.001 135.695  0.00  0.00    +0.000 OA
ATOM     20  C   UNL     1     110.516 125.596 135.313  0.00  0.00    +0.000 C 
ENDBRANCH  16  19
BRANCH  17  21
ATOM     21  O   UNL     1     111.744 123.818 136.518  0.00  0.00    +0.000 OA
ATOM     22  C   UNL     1     112.094 123.240 136.992  0.00  0.00    +0.000 C 
ENDBRANCH  17  21
ENDBRANCH   7  13
BRANCH   6  23
ATOM     23  O   UNL     1     111.826 128.512 138.435  0.00  0.00    +0.000 OA
ATOM     24  C   UNL     1     111.031 128.691 138.311  0.00  0.00    +0.000 C 
ENDBRANCH   6  23
BRANCH   9  25
ATOM     25  O   UNL     1     112.336 130.078 138.533  0.00  0.00    +0.000 OA
ATOM     26  C   UNL     1     112.701 130.149 139.268  0.00  0.00    +0.000 C 
ENDBRANCH   9  25
BRANCH  11  27
ATOM     27  O   UNL     1     113.482 130.639 137.487  0.00  0.00    +0.000 OA
ATOM     28  C   UNL     1     113.243 131.187 136.918  0.00  0.00    +0.000 C 
ENDBRANCH  11  27
TORSDOF 6
ENDMDL
MODEL 5
REMARK VINA RESULT:      -7.2     11.656     13.132
REMARK  Name = 358832
REMARK  6 active torsions:
REMARK  status: ('A' for Active; 'I' for Inactive)
REMARK    1  A    between atoms: O_2  and  C_11
REMARK    2  A    between atoms: O_3  and  C_14
REMARK    3  A    between atoms: O_4  and  C_16
REMARK    4  A    between atoms: O_7  and  C_21
REMARK    5  A    between atoms: O_8  and  C_22
REMARK    6  A    between atoms: C_12  and  C_17
REMARK                            x       y       z     vdW  Elec       q    Type
REMARK                         _______ _______ _______ _____ _____    ______ ____
ROOT
ATOM      1  O   UNL     1     113.299 127.875 136.111  0.00  0.00    +0.000 OA
ATOM      2  O   UNL     1     110.671 126.828 135.496  0.00  0.00    +0.000 OA
ATOM      3  O   UNL     1     111.029 128.142 135.019  0.00  0.00    +0.000 OA
ATOM      4  C   UNL     1     111.969 127.343 135.801  0.00  0.00    +0.000 A 
ATOM      5  C   UNL     1     112.708 127.254 136.158  0.00  0.00    +0.000 A 
ATOM      6  C   UNL     1     112.887 126.559 136.566  0.00  0.00    +0.000 A 
ATOM      7  C   UNL     1     113.118 128.601 135.686  0.00  0.00    +0.000 A 
ATOM      8  C   UNL     1     111.410 126.739 135.853  0.00  0.00    +0.000 A 
ATOM      9  C   UNL     1     112.328 125.955 136.618  0.00  0.00    +0.000 A 
ATOM     10  C   UNL     1     111.770 128.061 135.373  0.00  0.00    +0.000 A 
ATOM     11  C   UNL     1     111.589 126.045 136.262  0.00  0.00    +0.000 A 
ATOM     12  C   UNL     1     112.349 128.694 135.315  0.00  0.00    +0.000 A 
ENDROOT
BRANCH   7  13
ATOM     13  C   UNL     1     113.679 129.204 135.636  0.00  0.00    +0.000 A 
ATOM     14  C   UNL     1     113.778 129.728 136.265  0.00  0.00    +0.000 A 
ATOM     15  C   UNL     1     114.140 129.282 134.956  0.00  0.00    +0.000 A 
ATOM     16  C   UNL     1     114.339 130.331 136.215  0.00  0.00    +0.000 A 
ATOM     17  C   UNL     1     114.801 130.410 135.536  0.00  0.00    +0.000 A 
ATOM     18  C   UNL     1     114.701 129.886 134.907  0.00  0.00    +0.000 A 
BRANCH  16  19
ATOM     19  O   UNL     1     114.438 130.855 136.844  0.00  0.00    +0.000 OA
ATOM     20  C   UNL     1     114.156 130.659 137.594  0.00  0.00    +0.000 C 
ENDBRANCH  16  19
BRANCH  17  21
ATOM     21  O   UNL     1     115.361 131.012 135.486  0.00  0.00    +0.000 OA
ATOM     22  C   UNL     1     115.710 131.192 134.760  0.00  0.00    +0.000 C 
ENDBRANCH  17  21
ENDBRANCH   7  13
BRANCH   6  23
ATOM     23  O   UNL     1     113.625 126.470 136.923  0.00  0.00    +0.000 OA
ATOM     24  C   UNL     1     114.205 126.008 136.561  0.00  0.00    +0.000 C 
ENDBRANCH   6  23
BRANCH   9  25
ATOM     25  O   UNL     1     112.507 125.261 137.027  0.00  0.00    +0.000 OA
ATOM     26  C   UNL     1     112.293 125.181 137.819  0.00  0.00    +0.000 C 
ENDBRANCH   9  25
BRANCH  11  27
ATOM     27  O   UNL     1     111.030 125.440 136.313  0.00  0.00    +0.000 OA
ATOM     28  C   UNL     1     110.848 124.989 135.647  0.00  0.00    +0.000 C 
ENDBRANCH  11  27
TORSDOF 6
ENDMDL
MODEL 6
REMARK VINA RESULT:      -7.2     10.394     11.882
REMARK  Name = 358832
REMARK  6 active torsions:
REMARK  status: ('A' for Active; 'I' for Inactive)
REMARK    1  A    between atoms: O_2  and  C_11
REMARK    2  A    between atoms: O_3  and  C_14
REMARK    3  A    between atoms: O_4  and  C_16
REMARK    4  A    between atoms: O_7  and  C_21
REMARK    5  A    between atoms: O_8  and  C_22
REMARK    6  A    between atoms: C_12  and  C_17
REMARK                            x       y       z     vdW  Elec       q    Type
REMARK                         _______ _______ _______ _____ _____    ______ ____
ROOT
ATOM      1  O   UNL     1     111.945 126.796 137.616  0.00  0.00    +0.000 OA
ATOM      2  O   UNL     1     110.990 124.800 135.750  0.00  0.00    +0.000 OA
ATOM      3  O   UNL     1     111.651 124.369 136.958  0.00  0.00    +0.000 OA
ATOM      4  C   UNL     1     111.461 125.788 136.670  0.00  0.00    +0.000 A 
ATOM      5  C   UNL     1     111.556 126.579 136.882  0.00  0.00    +0.000 A 
ATOM      6  C   UNL     1     111.274 127.175 136.385  0.00  0.00    +0.000 A 
ATOM      7  C   UNL     1     112.241 126.180 138.137  0.00  0.00    +0.000 A 
ATOM      8  C   UNL     1     111.085 125.592 135.962  0.00  0.00    +0.000 A 
ATOM      9  C   UNL     1     110.898 126.980 135.678  0.00  0.00    +0.000 A 
ATOM     10  C   UNL     1     111.750 125.158 137.178  0.00  0.00    +0.000 A 
ATOM     11  C   UNL     1     110.803 126.188 135.467  0.00  0.00    +0.000 A 
ATOM     12  C   UNL     1     112.143 125.355 137.917  0.00  0.00    +0.000 A 
ENDROOT
BRANCH   7  13
ATOM     13  C   UNL     1     112.617 126.378 138.844  0.00  0.00    +0.000 A 
ATOM     14  C   UNL     1     112.178 126.446 139.540  0.00  0.00    +0.000 A 
ATOM     15  C   UNL     1     113.432 126.508 138.856  0.00  0.00    +0.000 A 
ATOM     16  C   UNL     1     112.553 126.645 140.246  0.00  0.00    +0.000 A 
ATOM     17  C   UNL     1     113.368 126.775 140.259  0.00  0.00    +0.000 A 
ATOM     18  C   UNL     1     113.807 126.707 139.564  0.00  0.00    +0.000 A 
BRANCH  16  19
ATOM     19  O   UNL     1     112.114 126.713 140.941  0.00  0.00    +0.000 OA
ATOM     20  C   UNL     1     111.290 126.741 140.909  0.00  0.00    +0.000 C 
ENDBRANCH  16  19
BRANCH  17  21
ATOM     21  O   UNL     1     113.743 126.973 140.966  0.00  0.00    +0.000 OA
ATOM     22  C   UNL     1     114.548 127.155 140.969  0.00  0.00    +0.000 C 
ENDBRANCH  17  21
ENDBRANCH   7  13
BRANCH   6  23
ATOM     23  O   UNL     1     111.368 127.967 136.597  0.00  0.00    +0.000 OA
ATOM     24  C   UNL     1     110.737 128.385 136.926  0.00  0.00    +0.000 C 
ENDBRANCH   6  23
BRANCH   9  25
ATOM     25  O   UNL     1     110.616 127.576 135.182  0.00  0.00    +0.000 OA
ATOM     26  C   UNL     1     111.111 127.907 134.612  0.00  0.00    +0.000 C 
ENDBRANCH   9  25
BRANCH  11  27
ATOM     27  O   UNL     1     110.427 125.992 134.758  0.00  0.00    +0.000 OA
ATOM     28  C   UNL     1     109.650 125.714 134.768  0.00  0.00    +0.000 C 
ENDBRANCH  11  27
TORSDOF 6
ENDMDL
MODEL 7
REMARK VINA RESULT:      -7.1      8.864     10.729
REMARK  Name = 358832
REMARK  6 active torsions:
REMARK  status: ('A' for Active; 'I' for Inactive)
REMARK    1  A    between atoms: O_2  and  C_11
REMARK    2  A    between atoms: O_3  and  C_14
REMARK    3  A    between atoms: O_4  and  C_16
REMARK    4  A    between atoms: O_7  and  C_21
REMARK    5  A    between atoms: O_8  and  C_22
REMARK    6  A    between atoms: C_12  and  C_17
REMARK                            x       y       z     vdW  Elec       q    Type
REMARK                         _______ _______ _______ _____ _____    ______ ____
ROOT
ATOM      1  O   UNL     1     111.605 131.386 145.099  0.00  0.00    +0.000 OA
ATOM      2  O   UNL     1     112.437 131.671 142.342  0.00  0.00    +0.000 OA
ATOM      3  O   UNL     1     112.508 132.817 143.216  0.00  0.00    +0.000 OA
ATOM      4  C   UNL     1     112.026 131.528 143.703  0.00  0.00    +0.000 A 
ATOM      5  C   UNL     1     111.731 131.059 144.315  0.00  0.00    +0.000 A 
ATOM      6  C   UNL     1     111.554 130.265 144.177  0.00  0.00    +0.000 A 
ATOM      7  C   UNL     1     111.788 132.212 145.249  0.00  0.00    +0.000 A 
ATOM      8  C   UNL     1     112.143 131.203 142.953  0.00  0.00    +0.000 A 
ATOM      9  C   UNL     1     111.671 129.940 143.428  0.00  0.00    +0.000 A 
ATOM     10  C   UNL     1     112.214 132.356 143.833  0.00  0.00    +0.000 A 
ATOM     11  C   UNL     1     111.965 130.409 142.817  0.00  0.00    +0.000 A 
ATOM     12  C   UNL     1     112.094 132.700 144.612  0.00  0.00    +0.000 A 
ENDROOT
BRANCH   7  13
ATOM     13  C   UNL     1     111.670 132.535 145.999  0.00  0.00    +0.000 A 
ATOM     14  C   UNL     1     110.949 132.891 146.186  0.00  0.00    +0.000 A 
ATOM     15  C   UNL     1     112.272 132.502 146.562  0.00  0.00    +0.000 A 
ATOM     16  C   UNL     1     110.831 133.213 146.935  0.00  0.00    +0.000 A 
ATOM     17  C   UNL     1     111.432 133.180 147.499  0.00  0.00    +0.000 A 
ATOM     18  C   UNL     1     112.153 132.825 147.312  0.00  0.00    +0.000 A 
BRANCH  16  19
ATOM     19  O   UNL     1     110.110 133.569 147.122  0.00  0.00    +0.000 OA
ATOM     20  C   UNL     1     109.415 133.311 146.759  0.00  0.00    +0.000 C 
ENDBRANCH  16  19
BRANCH  17  21
ATOM     21  O   UNL     1     111.314 133.503 148.248  0.00  0.00    +0.000 OA
ATOM     22  C   UNL     1     111.865 133.368 148.847  0.00  0.00    +0.000 C 
ENDBRANCH  17  21
ENDBRANCH   7  13
BRANCH   6  23
ATOM     23  O   UNL     1     111.259 129.796 144.788  0.00  0.00    +0.000 OA
ATOM     24  C   UNL     1     111.758 129.269 145.182  0.00  0.00    +0.000 C 
ENDBRANCH   6  23
BRANCH   9  25
ATOM     25  O   UNL     1     111.494 129.146 143.290  0.00  0.00    +0.000 OA
ATOM     26  C   UNL     1     110.753 128.933 142.998  0.00  0.00    +0.000 C 
ENDBRANCH   9  25
BRANCH  11  27
ATOM     27  O   UNL     1     112.083 130.083 142.067  0.00  0.00    +0.000 OA
ATOM     28  C   UNL     1     112.849 129.958 141.788  0.00  0.00    +0.000 C 
ENDBRANCH  11  27
TORSDOF 6
ENDMDL
MODEL 8
REMARK VINA RESULT:      -7.1      8.488     10.156
REMARK  Name = 358832
REMARK  6 active torsions:
REMARK  status: ('A' for Active; 'I' for Inactive)
REMARK    1  A    between atoms: O_2  and  C_11
REMARK    2  A    between atoms: O_3  and  C_14
REMARK    3  A    between atoms: O_4  and  C_16
REMARK    4  A    between atoms: O_7  and  C_21
REMARK    5  A    between atoms: O_8  and  C_22
REMARK    6  A    between atoms: C_12  and  C_17
REMARK                            x       y       z     vdW  Elec       q    Type
REMARK                         _______ _______ _______ _____ _____    ______ ____
ROOT
ATOM      1  O   UNL     1     104.367 125.090 147.107  0.00  0.00    +0.000 OA
ATOM      2  O   UNL     1     102.533 124.293 149.199  0.00  0.00    +0.000 OA
ATOM      3  O   UNL     1     103.626 125.178 149.526  0.00  0.00    +0.000 OA
ATOM      4  C   UNL     1     103.438 124.685 148.164  0.00  0.00    +0.000 A 
ATOM      5  C   UNL     1     103.677 124.655 147.375  0.00  0.00    +0.000 A 
ATOM      6  C   UNL     1     103.251 124.202 146.833  0.00  0.00    +0.000 A 
ATOM      7  C   UNL     1     104.815 125.564 147.667  0.00  0.00    +0.000 A 
ATOM      8  C   UNL     1     102.772 124.263 148.410  0.00  0.00    +0.000 A 
ATOM      9  C   UNL     1     102.587 123.780 147.078  0.00  0.00    +0.000 A 
ATOM     10  C   UNL     1     103.872 125.153 148.739  0.00  0.00    +0.000 A 
ATOM     11  C   UNL     1     102.347 123.811 147.867  0.00  0.00    +0.000 A 
ATOM     12  C   UNL     1     104.566 125.595 148.489  0.00  0.00    +0.000 A 
ENDROOT
BRANCH   7  13
ATOM     13  C   UNL     1     105.479 125.985 147.419  0.00  0.00    +0.000 A 
ATOM     14  C   UNL     1     106.230 125.652 147.494  0.00  0.00    +0.000 A 
ATOM     15  C   UNL     1     105.392 126.739 147.095  0.00  0.00    +0.000 A 
ATOM     16  C   UNL     1     106.894 126.072 147.246  0.00  0.00    +0.000 A 
ATOM     17  C   UNL     1     106.809 126.827 146.922  0.00  0.00    +0.000 A 
ATOM     18  C   UNL     1     106.057 127.159 146.846  0.00  0.00    +0.000 A 
BRANCH  16  19
ATOM     19  O   UNL     1     107.645 125.740 147.321  0.00  0.00    +0.000 OA
ATOM     20  C   UNL     1     107.758 125.076 147.798  0.00  0.00    +0.000 C 
ENDBRANCH  16  19
BRANCH  17  21
ATOM     21  O   UNL     1     107.473 127.247 146.673  0.00  0.00    +0.000 OA
ATOM     22  C   UNL     1     107.383 127.986 146.317  0.00  0.00    +0.000 C 
ENDBRANCH  17  21
ENDBRANCH   7  13
BRANCH   6  23
ATOM     23  O   UNL     1     103.490 124.172 146.044  0.00  0.00    +0.000 OA
ATOM     24  C   UNL     1     103.888 123.508 145.758  0.00  0.00    +0.000 C 
ENDBRANCH   6  23
BRANCH   9  25
ATOM     25  O   UNL     1     102.161 123.327 146.536  0.00  0.00    +0.000 OA
ATOM     26  C   UNL     1     101.485 123.637 146.179  0.00  0.00    +0.000 C 
ENDBRANCH   9  25
BRANCH  11  27
ATOM     27  O   UNL     1     101.682 123.388 148.113  0.00  0.00    +0.000 OA
ATOM     28  C   UNL     1     101.769 122.739 148.615  0.00  0.00    +0.000 C 
ENDBRANCH  11  27
TORSDOF 6
ENDMDL
MODEL 9
REMARK VINA RESULT:      -7.1     10.332     11.314
REMARK  Name = 358832
REMARK  6 active torsions:
REMARK  status: ('A' for Active; 'I' for Inactive)
REMARK    1  A    between atoms: O_2  and  C_11
REMARK    2  A    between atoms: O_3  and  C_14
REMARK    3  A    between atoms: O_4  and  C_16
REMARK    4  A    between atoms: O_7  and  C_21
REMARK    5  A    between atoms: O_8  and  C_22
REMARK    6  A    between atoms: C_12  and  C_17
REMARK                            x       y       z     vdW  Elec       q    Type
REMARK                         _______ _______ _______ _____ _____    ______ ____
ROOT
ATOM      1  O   UNL     1     111.806 126.471 138.493  0.00  0.00    +0.000 OA
ATOM      2  O   UNL     1     111.083 126.394 141.295  0.00  0.00    +0.000 OA
ATOM      3  O   UNL     1     110.216 125.760 140.331  0.00  0.00    +0.000 OA
ATOM      4  C   UNL     1     111.442 126.433 139.912  0.00  0.00    +0.000 A 
ATOM      5  C   UNL     1     111.962 126.666 139.315  0.00  0.00    +0.000 A 
ATOM      6  C   UNL     1     112.643 127.093 139.505  0.00  0.00    +0.000 A 
ATOM      7  C   UNL     1     111.098 126.027 138.290  0.00  0.00    +0.000 A 
ATOM      8  C   UNL     1     111.603 126.627 140.698  0.00  0.00    +0.000 A 
ATOM      9  C   UNL     1     112.804 127.286 140.290  0.00  0.00    +0.000 A 
ATOM     10  C   UNL     1     110.730 125.989 139.728  0.00  0.00    +0.000 A 
ATOM     11  C   UNL     1     112.284 127.053 140.887  0.00  0.00    +0.000 A 
ATOM     12  C   UNL     1     110.557 125.785 138.912  0.00  0.00    +0.000 A 
ENDROOT
BRANCH   7  13
ATOM     13  C   UNL     1     110.940 125.835 137.504  0.00  0.00    +0.000 A 
ATOM     14  C   UNL     1     111.302 125.180 137.158  0.00  0.00    +0.000 A 
ATOM     15  C   UNL     1     110.419 126.299 137.063  0.00  0.00    +0.000 A 
ATOM     16  C   UNL     1     111.145 124.987 136.372  0.00  0.00    +0.000 A 
ATOM     17  C   UNL     1     110.624 125.450 135.930  0.00  0.00    +0.000 A 
ATOM     18  C   UNL     1     110.261 126.106 136.276  0.00  0.00    +0.000 A 
BRANCH  16  19
ATOM     19  O   UNL     1     111.507 124.332 136.027  0.00  0.00    +0.000 OA
ATOM     20  C   UNL     1     111.994 123.842 136.479  0.00  0.00    +0.000 C 
ENDBRANCH  16  19
BRANCH  17  21
ATOM     21  O   UNL     1     110.466 125.258 135.144  0.00  0.00    +0.000 OA
ATOM     22  C   UNL     1     109.977 125.745 134.691  0.00  0.00    +0.000 C 
ENDBRANCH  17  21
ENDBRANCH   7  13
BRANCH   6  23
ATOM     23  O   UNL     1     113.162 127.326 138.908  0.00  0.00    +0.000 OA
ATOM     24  C   UNL     1     113.144 128.100 138.623  0.00  0.00    +0.000 C 
ENDBRANCH   6  23
BRANCH   9  25
ATOM     25  O   UNL     1     113.484 127.712 140.479  0.00  0.00    +0.000 OA
ATOM     26  C   UNL     1     114.173 127.315 140.697  0.00  0.00    +0.000 C 
ENDBRANCH   9  25
BRANCH  11  27
ATOM     27  O   UNL     1     112.445 127.247 141.673  0.00  0.00    +0.000 OA
ATOM     28  C   UNL     1     112.025 127.854 142.042  0.00  0.00    +0.000 C 
ENDBRANCH  11  27
TORSDOF 6
ENDMDL
MODEL 10
REMARK VINA RESULT:      -7.0      9.002     12.008
REMARK  Name = 358832
REMARK  6 active torsions:
REMARK  status: ('A' for Active; 'I' for Inactive)
REMARK    1  A    between atoms: O_2  and  C_11
REMARK    2  A    between atoms: O_3  and  C_14
REMARK    3  A    between atoms: O_4  and  C_16
REMARK    4  A    between atoms: O_7  and  C_21
REMARK    5  A    between atoms: O_8  and  C_22
REMARK    6  A    between atoms: C_12  and  C_17
REMARK                            x       y       z     vdW  Elec       q    Type
REMARK                         _______ _______ _______ _____ _____    ______ ____
ROOT
ATOM      1  O   UNL     1     111.296 127.355 136.055  0.00  0.00    +0.000 OA
ATOM      2  O   UNL     1     111.145 124.485 135.710  0.00  0.00    +0.000 OA
ATOM      3  O   UNL     1     110.049 125.304 135.251  0.00  0.00    +0.000 OA
ATOM      4  C   UNL     1     111.222 125.903 135.882  0.00  0.00    +0.000 A 
ATOM      5  C   UNL     1     111.631 126.569 136.145  0.00  0.00    +0.000 A 
ATOM      6  C   UNL     1     112.371 126.485 136.499  0.00  0.00    +0.000 A 
ATOM      7  C   UNL     1     110.525 127.449 135.687  0.00  0.00    +0.000 A 
ATOM      8  C   UNL     1     111.554 125.152 135.973  0.00  0.00    +0.000 A 
ATOM      9  C   UNL     1     112.703 125.736 136.591  0.00  0.00    +0.000 A 
ATOM     10  C   UNL     1     110.451 125.976 135.511  0.00  0.00    +0.000 A 
ATOM     11  C   UNL     1     112.294 125.070 136.328  0.00  0.00    +0.000 A 
ATOM     12  C   UNL     1     110.100 126.754 135.413  0.00  0.00    +0.000 A 
ENDROOT
BRANCH   7  13
ATOM     13  C   UNL     1     110.196 128.200 135.597  0.00  0.00    +0.000 A 
ATOM     14  C   UNL     1     109.792 128.551 136.224  0.00  0.00    +0.000 A 
ATOM     15  C   UNL     1     110.270 128.599 134.878  0.00  0.00    +0.000 A 
ATOM     16  C   UNL     1     109.463 129.301 136.135  0.00  0.00    +0.000 A 
ATOM     17  C   UNL     1     109.537 129.702 135.417  0.00  0.00    +0.000 A 
ATOM     18  C   UNL     1     109.940 129.350 134.789  0.00  0.00    +0.000 A 
BRANCH  16  19
ATOM     19  O   UNL     1     109.060 129.653 136.763  0.00  0.00    +0.000 OA
ATOM     20  C   UNL     1     109.311 129.526 137.539  0.00  0.00    +0.000 C 
ENDBRANCH  16  19
BRANCH  17  21
ATOM     21  O   UNL     1     109.207 130.452 135.327  0.00  0.00    +0.000 OA
ATOM     22  C   UNL     1     109.292 130.857 134.613  0.00  0.00    +0.000 C 
ENDBRANCH  17  21
ENDBRANCH   7  13
BRANCH   6  23
ATOM     23  O   UNL     1     112.780 127.152 136.762  0.00  0.00    +0.000 OA
ATOM     24  C   UNL     1     112.792 127.339 137.565  0.00  0.00    +0.000 C 
ENDBRANCH   6  23
BRANCH   9  25
ATOM     25  O   UNL     1     113.443 125.652 136.945  0.00  0.00    +0.000 OA
ATOM     26  C   UNL     1     114.124 125.633 136.480  0.00  0.00    +0.000 C 
ENDBRANCH   9  25
BRANCH  11  27
ATOM     27  O   UNL     1     112.626 124.319 136.419  0.00  0.00    +0.000 OA
ATOM     28  C   UNL     1     112.299 123.787 136.958  0.00  0.00    +0.000 C 
ENDBRANCH  11  27
TORSDOF 6
ENDMDL
