MODEL 1
REMARK VINA RESULT:     -11.0      0.000      0.000
REMARK  Name = 44259287
REMARK  9 active torsions:
REMARK  status: ('A' for Active; 'I' for Inactive)
REMARK    1  A    between atoms: O_1  and  C_22
REMARK    2  A    between atoms: O_1  and  C_27
REMARK    3  A    between atoms: O_4  and  C_32
REMARK    4  A    between atoms: O_4  and  C_33
REMARK    5  A    between atoms: O_6  and  C_26
REMARK    6  A    between atoms: O_6  and  C_40
REMARK    7  A    between atoms: C_25  and  C_32
REMARK    8  A    between atoms: C_31  and  C_38
REMARK    9  A    between atoms: C_41  and  C_44
REMARK                            x       y       z     vdW  Elec       q    Type
REMARK                         _______ _______ _______ _____ _____    ______ ____
ROOT
ATOM      1  O   UNL     1     111.116 128.483 138.105  0.00  0.00    +0.000 OA
ATOM      2  O   UNL     1     108.930 129.617 138.352  0.00  0.00    +0.000 OA
ATOM      3  O   UNL     1     109.013 128.133 137.635  0.00  0.00    +0.000 OA
ATOM      4  C   UNL     1     110.346 129.604 138.546  0.00  0.00    +0.000 C 
ATOM      5  C   UNL     1     109.659 129.239 138.270  0.00  0.00    +0.000 C 
ATOM      6  C   UNL     1     109.700 128.498 137.912  0.00  0.00    +0.000 C 
ATOM      7  C   UNL     1     110.429 128.120 137.829  0.00  0.00    +0.000 C 
ATOM      8  C   UNL     1     111.074 129.226 138.463  0.00  0.00    +0.000 C 
ENDROOT
BRANCH   4   9
ATOM      9  O   UNL     1     110.304 130.345 138.904  0.00  0.00    +0.000 OA
BRANCH   9  14
ATOM     10  O   UNL     1     110.161 130.959 137.621  0.00  0.00    +0.000 OA
ATOM     11  O   UNL     1     110.331 131.835 139.613  0.00  0.00    +0.000 OA
ATOM     12  O   UNL     1     110.201 133.193 138.685  0.00  0.00    +0.000 OA
ATOM     13  O   UNL     1     110.045 133.061 137.047  0.00  0.00    +0.000 OA
ATOM     14  C   UNL     1     110.239 131.024 138.440  0.00  0.00    +0.000 C 
ATOM     15  C   UNL     1     110.253 131.770 138.794  0.00  0.00    +0.000 C 
ATOM     16  C   UNL     1     110.188 132.448 138.330  0.00  0.00    +0.000 C 
ATOM     17  C   UNL     1     110.110 132.382 137.511  0.00  0.00    +0.000 C 
ATOM     18  C   UNL     1     110.096 131.638 137.157  0.00  0.00    +0.000 C 
BRANCH  18  20
ATOM     19  O   UNL     1     110.621 131.230 135.892  0.00  0.00    +0.000 OA
ATOM     20  C   UNL     1     110.018 131.571 136.338  0.00  0.00    +0.000 C 
ENDBRANCH  18  20
ENDBRANCH   9  14
ENDBRANCH   4   9
BRANCH   8  21
ATOM     21  O   UNL     1     111.762 129.589 138.739  0.00  0.00    +0.000 OA
BRANCH  21  26
ATOM     22  O   UNL     1     113.693 128.691 139.215  0.00  0.00    +0.000 OA
ATOM     23  O   UNL     1     111.372 128.705 140.077  0.00  0.00    +0.000 OA
ATOM     24  O   UNL     1     111.733 127.808 141.148  0.00  0.00    +0.000 OA
ATOM     25  O   UNL     1     114.494 126.879 141.350  0.00  0.00    +0.000 OA
ATOM     26  C   UNL     1     112.341 129.142 139.121  0.00  0.00    +0.000 A 
ATOM     27  C   UNL     1     113.114 129.138 138.833  0.00  0.00    +0.000 A 
ATOM     28  C   UNL     1     112.146 128.701 139.789  0.00  0.00    +0.000 A 
ATOM     29  C   UNL     1     112.725 128.254 140.171  0.00  0.00    +0.000 A 
ATOM     30  C   UNL     1     113.498 128.248 139.885  0.00  0.00    +0.000 A 
ATOM     31  C   UNL     1     112.510 127.797 140.868  0.00  0.00    +0.000 A 
ATOM     32  C   UNL     1     114.110 127.787 140.274  0.00  0.00    +0.000 A 
ATOM     33  C   UNL     1     113.108 127.330 141.270  0.00  0.00    +0.000 A 
ATOM     34  C   UNL     1     113.914 127.325 140.970  0.00  0.00    +0.000 A 
BRANCH  27  37
ATOM     35  O   UNL     1     113.575 129.293 136.017  0.00  0.00    +0.000 OA
ATOM     36  O   UNL     1     113.893 130.906 136.158  0.00  0.00    +0.000 OA
ATOM     37  C   UNL     1     113.309 129.579 138.165  0.00  0.00    +0.000 A 
ATOM     38  C   UNL     1     113.344 129.215 137.425  0.00  0.00    +0.000 A 
ATOM     39  C   UNL     1     113.468 130.385 138.236  0.00  0.00    +0.000 A 
ATOM     40  C   UNL     1     113.539 129.657 136.757  0.00  0.00    +0.000 A 
ATOM     41  C   UNL     1     113.663 130.828 137.566  0.00  0.00    +0.000 A 
ATOM     42  C   UNL     1     113.698 130.463 136.827  0.00  0.00    +0.000 A 
ENDBRANCH  27  37
ENDBRANCH  21  26
ENDBRANCH   8  21
BRANCH   7  43
ATOM     43  C   UNL     1     110.471 127.377 137.471  0.00  0.00    +0.000 C 
BRANCH  43  44
ATOM     44  O   UNL     1     110.855 126.756 137.854  0.00  0.00    +0.000 OA
BRANCH  44  49
ATOM     45  O   UNL     1     110.932 126.032 136.624  0.00  0.00    +0.000 OA
ATOM     46  O   UNL     1     111.370 125.419 138.673  0.00  0.00    +0.000 OA
ATOM     47  O   UNL     1     111.704 124.027 137.853  0.00  0.00    +0.000 OA
ATOM     48  O   UNL     1     111.523 123.971 136.214  0.00  0.00    +0.000 OA
ATOM     49  C   UNL     1     111.022 126.059 137.444  0.00  0.00    +0.000 C 
ATOM     50  C   UNL     1     111.280 125.391 137.853  0.00  0.00    +0.000 C 
ATOM     51  C   UNL     1     111.447 124.695 137.443  0.00  0.00    +0.000 C 
ATOM     52  C   UNL     1     111.356 124.667 136.625  0.00  0.00    +0.000 C 
ATOM     53  C   UNL     1     111.099 125.335 136.215  0.00  0.00    +0.000 C 
ATOM     54  C   UNL     1     111.008 125.307 135.395  0.00  0.00    +0.000 C 
ENDBRANCH  44  49
ENDBRANCH  43  44
ENDBRANCH   7  43
TORSDOF 9
ENDMDL
MODEL 2
REMARK VINA RESULT:     -10.8      1.790      4.864
REMARK  Name = 44259287
REMARK  9 active torsions:
REMARK  status: ('A' for Active; 'I' for Inactive)
REMARK    1  A    between atoms: O_1  and  C_22
REMARK    2  A    between atoms: O_1  and  C_27
REMARK    3  A    between atoms: O_4  and  C_32
REMARK    4  A    between atoms: O_4  and  C_33
REMARK    5  A    between atoms: O_6  and  C_26
REMARK    6  A    between atoms: O_6  and  C_40
REMARK    7  A    between atoms: C_25  and  C_32
REMARK    8  A    between atoms: C_31  and  C_38
REMARK    9  A    between atoms: C_41  and  C_44
REMARK                            x       y       z     vdW  Elec       q    Type
REMARK                         _______ _______ _______ _____ _____    ______ ____
ROOT
ATOM      1  O   UNL     1     111.431 128.074 139.285  0.00  0.00    +0.000 OA
ATOM      2  O   UNL     1     111.161 125.623 139.500  0.00  0.00    +0.000 OA
ATOM      3  O   UNL     1     110.121 126.639 140.281  0.00  0.00    +0.000 OA
ATOM      4  C   UNL     1     111.861 126.748 138.966  0.00  0.00    +0.000 C 
ATOM      5  C   UNL     1     111.251 126.440 139.428  0.00  0.00    +0.000 C 
ATOM      6  C   UNL     1     110.732 126.947 139.818  0.00  0.00    +0.000 C 
ATOM      7  C   UNL     1     110.822 127.764 139.747  0.00  0.00    +0.000 C 
ATOM      8  C   UNL     1     111.951 127.565 138.895  0.00  0.00    +0.000 C 
ENDROOT
BRANCH   4   9
ATOM      9  O   UNL     1     112.381 126.241 138.576  0.00  0.00    +0.000 OA
BRANCH   9  14
ATOM     10  O   UNL     1     111.383 125.979 137.586  0.00  0.00    +0.000 OA
ATOM     11  O   UNL     1     113.404 125.190 137.821  0.00  0.00    +0.000 OA
ATOM     12  O   UNL     1     112.918 124.403 136.454  0.00  0.00    +0.000 OA
ATOM     13  O   UNL     1     111.409 124.668 135.842  0.00  0.00    +0.000 OA
ATOM     14  C   UNL     1     112.138 125.847 137.893  0.00  0.00    +0.000 C 
ATOM     15  C   UNL     1     112.650 125.321 137.515  0.00  0.00    +0.000 C 
ATOM     16  C   UNL     1     112.407 124.928 136.831  0.00  0.00    +0.000 C 
ATOM     17  C   UNL     1     111.652 125.061 136.526  0.00  0.00    +0.000 C 
ATOM     18  C   UNL     1     111.140 125.586 136.903  0.00  0.00    +0.000 C 
BRANCH  18  20
ATOM     19  O   UNL     1     110.193 126.454 136.278  0.00  0.00    +0.000 OA
ATOM     20  C   UNL     1     110.385 125.719 136.597  0.00  0.00    +0.000 C 
ENDBRANCH  18  20
ENDBRANCH   9  14
ENDBRANCH   4   9
BRANCH   8  21
ATOM     21  O   UNL     1     112.561 127.875 138.433  0.00  0.00    +0.000 OA
BRANCH  21  26
ATOM     22  O   UNL     1     113.442 129.871 138.438  0.00  0.00    +0.000 OA
ATOM     23  O   UNL     1     113.252 127.906 139.931  0.00  0.00    +0.000 OA
ATOM     24  O   UNL     1     114.011 128.576 140.958  0.00  0.00    +0.000 OA
ATOM     25  O   UNL     1     114.981 131.286 140.466  0.00  0.00    +0.000 OA
ATOM     26  C   UNL     1     112.970 128.545 138.685  0.00  0.00    +0.000 A 
ATOM     27  C   UNL     1     113.033 129.200 138.187  0.00  0.00    +0.000 A 
ATOM     28  C   UNL     1     113.315 128.561 139.433  0.00  0.00    +0.000 A 
ATOM     29  C   UNL     1     113.724 129.232 139.685  0.00  0.00    +0.000 A 
ATOM     30  C   UNL     1     113.788 129.887 139.188  0.00  0.00    +0.000 A 
ATOM     31  C   UNL     1     114.080 129.236 140.468  0.00  0.00    +0.000 A 
ATOM     32  C   UNL     1     114.211 130.591 139.439  0.00  0.00    +0.000 A 
ATOM     33  C   UNL     1     114.507 129.932 140.736  0.00  0.00    +0.000 A 
ATOM     34  C   UNL     1     114.573 130.614 140.217  0.00  0.00    +0.000 A 
BRANCH  27  37
ATOM     35  O   UNL     1     110.866 129.865 136.446  0.00  0.00    +0.000 OA
ATOM     36  O   UNL     1     111.652 129.138 135.190  0.00  0.00    +0.000 OA
ATOM     37  C   UNL     1     112.688 129.185 137.438  0.00  0.00    +0.000 A 
ATOM     38  C   UNL     1     111.949 129.533 137.316  0.00  0.00    +0.000 A 
ATOM     39  C   UNL     1     113.080 128.821 136.810  0.00  0.00    +0.000 A 
ATOM     40  C   UNL     1     111.604 129.517 136.568  0.00  0.00    +0.000 A 
ATOM     41  C   UNL     1     112.735 128.806 136.061  0.00  0.00    +0.000 A 
ATOM     42  C   UNL     1     111.997 129.154 135.940  0.00  0.00    +0.000 A 
ENDBRANCH  27  37
ENDBRANCH  21  26
ENDBRANCH   8  21
BRANCH   7  43
ATOM     43  C   UNL     1     110.301 128.273 140.137  0.00  0.00    +0.000 C 
BRANCH  43  44
ATOM     44  O   UNL     1     109.989 128.925 139.742  0.00  0.00    +0.000 OA
BRANCH  44  49
ATOM     45  O   UNL     1     109.828 129.686 140.941  0.00  0.00    +0.000 OA
ATOM     46  O   UNL     1     108.757 129.770 139.041  0.00  0.00    +0.000 OA
ATOM     47  O   UNL     1     107.981 130.954 139.889  0.00  0.00    +0.000 OA
ATOM     48  O   UNL     1     108.436 131.292 141.439  0.00  0.00    +0.000 OA
ATOM     49  C   UNL     1     109.600 129.517 140.166  0.00  0.00    +0.000 C 
ATOM     50  C   UNL     1     108.984 129.940 139.816  0.00  0.00    +0.000 C 
ATOM     51  C   UNL     1     108.597 130.531 140.240  0.00  0.00    +0.000 C 
ATOM     52  C   UNL     1     108.824 130.700 141.014  0.00  0.00    +0.000 C 
ATOM     53  C   UNL     1     109.440 130.278 141.364  0.00  0.00    +0.000 C 
ATOM     54  C   UNL     1     109.668 130.447 142.140  0.00  0.00    +0.000 C 
ENDBRANCH  44  49
ENDBRANCH  43  44
ENDBRANCH   7  43
TORSDOF 9
ENDMDL
MODEL 3
REMARK VINA RESULT:     -10.7      1.744      5.519
REMARK  Name = 44259287
REMARK  9 active torsions:
REMARK  status: ('A' for Active; 'I' for Inactive)
REMARK    1  A    between atoms: O_1  and  C_22
REMARK    2  A    between atoms: O_1  and  C_27
REMARK    3  A    between atoms: O_4  and  C_32
REMARK    4  A    between atoms: O_4  and  C_33
REMARK    5  A    between atoms: O_6  and  C_26
REMARK    6  A    between atoms: O_6  and  C_40
REMARK    7  A    between atoms: C_25  and  C_32
REMARK    8  A    between atoms: C_31  and  C_38
REMARK    9  A    between atoms: C_41  and  C_44
REMARK                            x       y       z     vdW  Elec       q    Type
REMARK                         _______ _______ _______ _____ _____    ______ ____
ROOT
ATOM      1  O   UNL     1     112.536 128.127 138.848  0.00  0.00    +0.000 OA
ATOM      2  O   UNL     1     112.343 125.735 139.451  0.00  0.00    +0.000 OA
ATOM      3  O   UNL     1     113.140 126.776 140.452  0.00  0.00    +0.000 OA
ATOM      4  C   UNL     1     112.073 126.808 138.548  0.00  0.00    +0.000 C 
ATOM      5  C   UNL     1     112.408 126.532 139.250  0.00  0.00    +0.000 C 
ATOM      6  C   UNL     1     112.806 127.052 139.750  0.00  0.00    +0.000 C 
ATOM      7  C   UNL     1     112.870 127.850 139.550  0.00  0.00    +0.000 C 
ATOM      8  C   UNL     1     112.137 127.606 138.347  0.00  0.00    +0.000 C 
ENDROOT
BRANCH   4   9
ATOM      9  O   UNL     1     111.675 126.288 138.048  0.00  0.00    +0.000 OA
BRANCH   9  14
ATOM     10  O   UNL     1     112.923 125.805 137.547  0.00  0.00    +0.000 OA
ATOM     11  O   UNL     1     110.881 125.121 137.193  0.00  0.00    +0.000 OA
ATOM     12  O   UNL     1     111.732 124.054 136.266  0.00  0.00    +0.000 OA
ATOM     13  O   UNL     1     113.378 124.155 136.193  0.00  0.00    +0.000 OA
ATOM     14  C   UNL     1     112.101 125.755 137.584  0.00  0.00    +0.000 C 
ATOM     15  C   UNL     1     111.704 125.171 137.156  0.00  0.00    +0.000 C 
ATOM     16  C   UNL     1     112.129 124.637 136.693  0.00  0.00    +0.000 C 
ATOM     17  C   UNL     1     112.952 124.688 136.657  0.00  0.00    +0.000 C 
ATOM     18  C   UNL     1     113.349 125.271 137.083  0.00  0.00    +0.000 C 
BRANCH  18  20
ATOM     19  O   UNL     1     114.530 125.926 136.616  0.00  0.00    +0.000 OA
ATOM     20  C   UNL     1     114.172 125.322 137.047  0.00  0.00    +0.000 C 
ENDBRANCH  18  20
ENDBRANCH   9  14
ENDBRANCH   4   9
BRANCH   8  21
ATOM     21  O   UNL     1     111.804 127.884 137.646  0.00  0.00    +0.000 OA
BRANCH  21  26
ATOM     22  O   UNL     1     111.183 129.913 137.135  0.00  0.00    +0.000 OA
ATOM     23  O   UNL     1     110.502 128.071 138.643  0.00  0.00    +0.000 OA
ATOM     24  O   UNL     1     109.410 128.859 139.159  0.00  0.00    +0.000 OA
ATOM     25  O   UNL     1     108.999 131.561 138.131  0.00  0.00    +0.000 OA
ATOM     26  C   UNL     1     111.380 128.591 137.642  0.00  0.00    +0.000 A 
ATOM     27  C   UNL     1     111.607 129.205 137.139  0.00  0.00    +0.000 A 
ATOM     28  C   UNL     1     110.730 128.685 138.140  0.00  0.00    +0.000 A 
ATOM     29  C   UNL     1     110.306 129.393 138.136  0.00  0.00    +0.000 A 
ATOM     30  C   UNL     1     110.532 130.007 137.634  0.00  0.00    +0.000 A 
ATOM     31  C   UNL     1     109.629 129.479 138.660  0.00  0.00    +0.000 A 
ATOM     32  C   UNL     1     110.099 130.748 137.621  0.00  0.00    +0.000 A 
ATOM     33  C   UNL     1     109.184 130.213 138.661  0.00  0.00    +0.000 A 
ATOM     34  C   UNL     1     109.421 130.852 138.137  0.00  0.00    +0.000 A 
BRANCH  27  37
ATOM     35  O   UNL     1     114.359 129.694 136.542  0.00  0.00    +0.000 OA
ATOM     36  O   UNL     1     114.209 128.829 135.145  0.00  0.00    +0.000 OA
ATOM     37  C   UNL     1     112.257 129.111 136.641  0.00  0.00    +0.000 A 
ATOM     38  C   UNL     1     112.983 129.449 136.841  0.00  0.00    +0.000 A 
ATOM     39  C   UNL     1     112.182 128.679 135.942  0.00  0.00    +0.000 A 
ATOM     40  C   UNL     1     113.633 129.356 136.342  0.00  0.00    +0.000 A 
ATOM     41  C   UNL     1     112.833 128.585 135.443  0.00  0.00    +0.000 A 
ATOM     42  C   UNL     1     113.558 128.924 135.644  0.00  0.00    +0.000 A 
ENDBRANCH  27  37
ENDBRANCH  21  26
ENDBRANCH   8  21
BRANCH   7  43
ATOM     43  C   UNL     1     113.269 128.371 140.051  0.00  0.00    +0.000 C 
BRANCH  43  44
ATOM     44  O   UNL     1     112.895 129.058 140.312  0.00  0.00    +0.000 OA
BRANCH  44  49
ATOM     45  O   UNL     1     114.124 129.781 140.396  0.00  0.00    +0.000 OA
ATOM     46  O   UNL     1     112.222 130.073 141.425  0.00  0.00    +0.000 OA
ATOM     47  O   UNL     1     113.114 131.304 142.066  0.00  0.00    +0.000 OA
ATOM     48  O   UNL     1     114.681 131.520 141.594  0.00  0.00    +0.000 OA
ATOM     49  C   UNL     1     113.341 129.674 140.633  0.00  0.00    +0.000 C 
ATOM     50  C   UNL     1     113.005 130.181 141.190  0.00  0.00    +0.000 C 
ATOM     51  C   UNL     1     113.451 130.796 141.510  0.00  0.00    +0.000 C 
ATOM     52  C   UNL     1     114.233 130.904 141.274  0.00  0.00    +0.000 C 
ATOM     53  C   UNL     1     114.570 130.397 140.717  0.00  0.00    +0.000 C 
ATOM     54  C   UNL     1     115.354 130.505 140.481  0.00  0.00    +0.000 C 
ENDBRANCH  44  49
ENDBRANCH  43  44
ENDBRANCH   7  43
TORSDOF 9
ENDMDL
MODEL 4
REMARK VINA RESULT:     -10.6      1.763      3.173
REMARK  Name = 44259287
REMARK  9 active torsions:
REMARK  status: ('A' for Active; 'I' for Inactive)
REMARK    1  A    between atoms: O_1  and  C_22
REMARK    2  A    between atoms: O_1  and  C_27
REMARK    3  A    between atoms: O_4  and  C_32
REMARK    4  A    between atoms: O_4  and  C_33
REMARK    5  A    between atoms: O_6  and  C_26
REMARK    6  A    between atoms: O_6  and  C_40
REMARK    7  A    between atoms: C_25  and  C_32
REMARK    8  A    between atoms: C_31  and  C_38
REMARK    9  A    between atoms: C_41  and  C_44
REMARK                            x       y       z     vdW  Elec       q    Type
REMARK                         _______ _______ _______ _____ _____    ______ ____
ROOT
ATOM      1  O   UNL     1     112.001 128.642 137.075  0.00  0.00    +0.000 OA
ATOM      2  O   UNL     1     111.313 129.645 134.919  0.00  0.00    +0.000 OA
ATOM      3  O   UNL     1     112.158 128.228 134.937  0.00  0.00    +0.000 OA
ATOM      4  C   UNL     1     111.349 129.686 136.347  0.00  0.00    +0.000 C 
ATOM      5  C   UNL     1     111.542 129.311 135.637  0.00  0.00    +0.000 C 
ATOM      6  C   UNL     1     111.964 128.603 135.646  0.00  0.00    +0.000 C 
ATOM      7  C   UNL     1     112.193 128.268 136.365  0.00  0.00    +0.000 C 
ATOM      8  C   UNL     1     111.578 129.351 137.065  0.00  0.00    +0.000 C 
ENDROOT
BRANCH   4   9
ATOM      9  O   UNL     1     110.927 130.394 136.338  0.00  0.00    +0.000 OA
BRANCH   9  14
ATOM     10  O   UNL     1     109.718 129.672 136.092  0.00  0.00    +0.000 OA
ATOM     11  O   UNL     1     110.070 131.802 136.411  0.00  0.00    +0.000 OA
ATOM     12  O   UNL     1     108.434 131.784 136.202  0.00  0.00    +0.000 OA
ATOM     13  O   UNL     1     107.654 130.358 135.919  0.00  0.00    +0.000 OA
ATOM     14  C   UNL     1     110.108 130.385 136.233  0.00  0.00    +0.000 C 
ATOM     15  C   UNL     1     109.680 131.090 136.270  0.00  0.00    +0.000 C 
ATOM     16  C   UNL     1     108.861 131.081 136.165  0.00  0.00    +0.000 C 
ATOM     17  C   UNL     1     108.472 130.367 136.024  0.00  0.00    +0.000 C 
ATOM     18  C   UNL     1     108.900 129.663 135.987  0.00  0.00    +0.000 C 
BRANCH  18  20
ATOM     19  O   UNL     1     108.514 128.356 136.419  0.00  0.00    +0.000 OA
ATOM     20  C   UNL     1     108.510 128.950 135.846  0.00  0.00    +0.000 C 
ENDBRANCH  18  20
ENDBRANCH   9  14
ENDBRANCH   4   9
BRANCH   8  21
ATOM     21  O   UNL     1     111.385 129.725 137.775  0.00  0.00    +0.000 OA
BRANCH  21  26
ATOM     22  O   UNL     1     112.334 129.546 139.732  0.00  0.00    +0.000 OA
ATOM     23  O   UNL     1     112.850 130.424 137.476  0.00  0.00    +0.000 OA
ATOM     24  O   UNL     1     114.161 130.844 137.907  0.00  0.00    +0.000 OA
ATOM     25  O   UNL     1     114.965 130.367 140.673  0.00  0.00    +0.000 OA
ATOM     26  C   UNL     1     111.946 129.782 138.377  0.00  0.00    +0.000 A 
ATOM     27  C   UNL     1     111.773 129.489 139.129  0.00  0.00    +0.000 A 
ATOM     28  C   UNL     1     112.677 130.131 138.228  0.00  0.00    +0.000 A 
ATOM     29  C   UNL     1     113.238 130.188 138.830  0.00  0.00    +0.000 A 
ATOM     30  C   UNL     1     113.067 129.896 139.582  0.00  0.00    +0.000 A 
ATOM     31  C   UNL     1     113.998 130.554 138.662  0.00  0.00    +0.000 A 
ATOM     32  C   UNL     1     113.642 129.949 140.218  0.00  0.00    +0.000 A 
ATOM     33  C   UNL     1     114.586 130.616 139.285  0.00  0.00    +0.000 A 
ATOM     34  C   UNL     1     114.406 130.311 140.069  0.00  0.00    +0.000 A 
BRANCH  27  37
ATOM     35  O   UNL     1     108.982 129.736 139.693  0.00  0.00    +0.000 OA
ATOM     36  O   UNL     1     108.844 128.092 139.728  0.00  0.00    +0.000 OA
ATOM     37  C   UNL     1     111.042 129.141 139.279  0.00  0.00    +0.000 A 
ATOM     38  C   UNL     1     110.378 129.613 139.411  0.00  0.00    +0.000 A 
ATOM     39  C   UNL     1     110.973 128.319 139.296  0.00  0.00    +0.000 A 
ATOM     40  C   UNL     1     109.646 129.264 139.561  0.00  0.00    +0.000 A 
ATOM     41  C   UNL     1     110.240 127.969 139.446  0.00  0.00    +0.000 A 
ATOM     42  C   UNL     1     109.577 128.442 139.579  0.00  0.00    +0.000 A 
ENDBRANCH  27  37
ENDBRANCH  21  26
ENDBRANCH   8  21
BRANCH   7  43
ATOM     43  C   UNL     1     112.616 127.559 136.374  0.00  0.00    +0.000 C 
BRANCH  43  44
ATOM     44  O   UNL     1     112.319 126.908 136.785  0.00  0.00    +0.000 OA
BRANCH  44  49
ATOM     45  O   UNL     1     113.553 126.204 136.631  0.00  0.00    +0.000 OA
ATOM     46  O   UNL     1     111.558 125.493 137.159  0.00  0.00    +0.000 OA
ATOM     47  O   UNL     1     112.411 124.081 137.192  0.00  0.00    +0.000 OA
ATOM     48  O   UNL     1     114.025 124.084 136.851  0.00  0.00    +0.000 OA
ATOM     49  C   UNL     1     112.746 126.202 136.801  0.00  0.00    +0.000 C 
ATOM     50  C   UNL     1     112.365 125.494 136.988  0.00  0.00    +0.000 C 
ATOM     51  C   UNL     1     112.792 124.789 137.005  0.00  0.00    +0.000 C 
ATOM     52  C   UNL     1     113.598 124.790 136.835  0.00  0.00    +0.000 C 
ATOM     53  C   UNL     1     113.979 125.498 136.648  0.00  0.00    +0.000 C 
ATOM     54  C   UNL     1     114.787 125.500 136.477  0.00  0.00    +0.000 C 
ENDBRANCH  44  49
ENDBRANCH  43  44
ENDBRANCH   7  43
TORSDOF 9
ENDMDL
MODEL 5
REMARK VINA RESULT:     -10.6      1.576      5.261
REMARK  Name = 44259287
REMARK  9 active torsions:
REMARK  status: ('A' for Active; 'I' for Inactive)
REMARK    1  A    between atoms: O_1  and  C_22
REMARK    2  A    between atoms: O_1  and  C_27
REMARK    3  A    between atoms: O_4  and  C_32
REMARK    4  A    between atoms: O_4  and  C_33
REMARK    5  A    between atoms: O_6  and  C_26
REMARK    6  A    between atoms: O_6  and  C_40
REMARK    7  A    between atoms: C_25  and  C_32
REMARK    8  A    between atoms: C_31  and  C_38
REMARK    9  A    between atoms: C_41  and  C_44
REMARK                            x       y       z     vdW  Elec       q    Type
REMARK                         _______ _______ _______ _____ _____    ______ ____
ROOT
ATOM      1  O   UNL     1     111.937 128.907 138.209  0.00  0.00    +0.000 OA
ATOM      2  O   UNL     1     112.486 127.719 136.108  0.00  0.00    +0.000 OA
ATOM      3  O   UNL     1     111.463 129.013 136.081  0.00  0.00    +0.000 OA
ATOM      4  C   UNL     1     112.632 127.863 137.521  0.00  0.00    +0.000 C 
ATOM      5  C   UNL     1     112.303 128.115 136.808  0.00  0.00    +0.000 C 
ATOM      6  C   UNL     1     111.792 128.761 136.794  0.00  0.00    +0.000 C 
ATOM      7  C   UNL     1     111.609 129.157 137.495  0.00  0.00    +0.000 C 
ATOM      8  C   UNL     1     112.450 128.259 138.222  0.00  0.00    +0.000 C 
ENDROOT
BRANCH   4   9
ATOM      9  O   UNL     1     113.144 127.217 137.535  0.00  0.00    +0.000 OA
BRANCH   9  14
ATOM     10  O   UNL     1     112.028 126.330 137.430  0.00  0.00    +0.000 OA
ATOM     11  O   UNL     1     114.171 125.926 137.503  0.00  0.00    +0.000 OA
ATOM     12  O   UNL     1     113.568 124.395 137.382  0.00  0.00    +0.000 OA
ATOM     13  O   UNL     1     111.938 124.155 137.293  0.00  0.00    +0.000 OA
ATOM     14  C   UNL     1     112.843 126.451 137.474  0.00  0.00    +0.000 C 
ATOM     15  C   UNL     1     113.356 125.805 137.459  0.00  0.00    +0.000 C 
ATOM     16  C   UNL     1     113.055 125.040 137.398  0.00  0.00    +0.000 C 
ATOM     17  C   UNL     1     112.240 124.920 137.353  0.00  0.00    +0.000 C 
ATOM     18  C   UNL     1     111.726 125.565 137.369  0.00  0.00    +0.000 C 
BRANCH  18  20
ATOM     19  O   UNL     1     110.429 125.642 137.964  0.00  0.00    +0.000 OA
ATOM     20  C   UNL     1     110.911 125.445 137.324  0.00  0.00    +0.000 C 
ENDBRANCH  18  20
ENDBRANCH   9  14
ENDBRANCH   4   9
BRANCH   8  21
ATOM     21  O   UNL     1     112.778 128.008 138.936  0.00  0.00    +0.000 OA
BRANCH  21  26
ATOM     22  O   UNL     1     113.030 129.072 140.825  0.00  0.00    +0.000 OA
ATOM     23  O   UNL     1     113.813 129.210 138.481  0.00  0.00    +0.000 OA
ATOM     24  O   UNL     1     114.604 130.378 138.783  0.00  0.00    +0.000 OA
ATOM     25  O   UNL     1     114.602 131.426 141.509  0.00  0.00    +0.000 OA
ATOM     26  C   UNL     1     113.035 128.563 139.490  0.00  0.00    +0.000 A 
ATOM     27  C   UNL     1     112.773 128.517 140.271  0.00  0.00    +0.000 A 
ATOM     28  C   UNL     1     113.552 129.164 139.262  0.00  0.00    +0.000 A 
ATOM     29  C   UNL     1     113.809 129.718 139.816  0.00  0.00    +0.000 A 
ATOM     30  C   UNL     1     113.548 129.673 140.597  0.00  0.00    +0.000 A 
ATOM     31  C   UNL     1     114.348 130.340 139.567  0.00  0.00    +0.000 A 
ATOM     32  C   UNL     1     113.808 130.245 141.183  0.00  0.00    +0.000 A 
ATOM     33  C   UNL     1     114.619 130.921 140.139  0.00  0.00    +0.000 A 
ATOM     34  C   UNL     1     114.347 130.872 140.953  0.00  0.00    +0.000 A 
BRANCH  27  37
ATOM     35  O   UNL     1     110.116 127.608 140.799  0.00  0.00    +0.000 OA
ATOM     36  O   UNL     1     110.703 126.114 141.181  0.00  0.00    +0.000 OA
ATOM     37  C   UNL     1     112.256 127.917 140.498  0.00  0.00    +0.000 A 
ATOM     38  C   UNL     1     111.445 128.062 140.535  0.00  0.00    +0.000 A 
ATOM     39  C   UNL     1     112.550 127.170 140.689  0.00  0.00    +0.000 A 
ATOM     40  C   UNL     1     110.927 127.462 140.763  0.00  0.00    +0.000 A 
ATOM     41  C   UNL     1     112.032 126.568 140.917  0.00  0.00    +0.000 A 
ATOM     42  C   UNL     1     111.221 126.715 140.954  0.00  0.00    +0.000 A 
ENDBRANCH  27  37
ENDBRANCH  21  26
ENDBRANCH   8  21
BRANCH   7  43
ATOM     43  C   UNL     1     111.097 129.805 137.481  0.00  0.00    +0.000 C 
BRANCH  43  44
ATOM     44  O   UNL     1     110.489 129.860 138.037  0.00  0.00    +0.000 OA
BRANCH  44  49
ATOM     45  O   UNL     1     110.385 131.275 137.866  0.00  0.00    +0.000 OA
ATOM     46  O   UNL     1     108.951 129.819 138.633  0.00  0.00    +0.000 OA
ATOM     47  O   UNL     1     108.078 131.213 138.760  0.00  0.00    +0.000 OA
ATOM     48  O   UNL     1     108.743 132.649 138.292  0.00  0.00    +0.000 OA
ATOM     49  C   UNL     1     110.052 130.558 138.101  0.00  0.00    +0.000 C 
ATOM     50  C   UNL     1     109.283 130.537 138.399  0.00  0.00    +0.000 C 
ATOM     51  C   UNL     1     108.847 131.234 138.462  0.00  0.00    +0.000 C 
ATOM     52  C   UNL     1     109.179 131.951 138.228  0.00  0.00    +0.000 C 
ATOM     53  C   UNL     1     109.948 131.972 137.930  0.00  0.00    +0.000 C 
ATOM     54  C   UNL     1     110.281 132.690 137.696  0.00  0.00    +0.000 C 
ENDBRANCH  44  49
ENDBRANCH  43  44
ENDBRANCH   7  43
TORSDOF 9
ENDMDL
MODEL 6
REMARK VINA RESULT:     -10.5      1.444      5.017
REMARK  Name = 44259287
REMARK  9 active torsions:
REMARK  status: ('A' for Active; 'I' for Inactive)
REMARK    1  A    between atoms: O_1  and  C_22
REMARK    2  A    between atoms: O_1  and  C_27
REMARK    3  A    between atoms: O_4  and  C_32
REMARK    4  A    between atoms: O_4  and  C_33
REMARK    5  A    between atoms: O_6  and  C_26
REMARK    6  A    between atoms: O_6  and  C_40
REMARK    7  A    between atoms: C_25  and  C_32
REMARK    8  A    between atoms: C_31  and  C_38
REMARK    9  A    between atoms: C_41  and  C_44
REMARK                            x       y       z     vdW  Elec       q    Type
REMARK                         _______ _______ _______ _____ _____    ______ ____
ROOT
ATOM      1  O   UNL     1     111.582 129.504 137.779  0.00  0.00    +0.000 OA
ATOM      2  O   UNL     1     111.535 129.691 140.247  0.00  0.00    +0.000 OA
ATOM      3  O   UNL     1     110.448 130.533 139.335  0.00  0.00    +0.000 OA
ATOM      4  C   UNL     1     112.111 129.145 139.058  0.00  0.00    +0.000 C 
ATOM      5  C   UNL     1     111.551 129.629 139.424  0.00  0.00    +0.000 C 
ATOM      6  C   UNL     1     111.008 130.049 138.969  0.00  0.00    +0.000 C 
ATOM      7  C   UNL     1     111.023 129.987 138.146  0.00  0.00    +0.000 C 
ATOM      8  C   UNL     1     112.126 129.083 138.236  0.00  0.00    +0.000 C 
ENDROOT
BRANCH   4   9
ATOM      9  O   UNL     1     112.654 128.725 139.514  0.00  0.00    +0.000 OA
BRANCH   9  14
ATOM     10  O   UNL     1     111.683 127.707 139.769  0.00  0.00    +0.000 OA
ATOM     11  O   UNL     1     113.622 128.094 140.692  0.00  0.00    +0.000 OA
ATOM     12  O   UNL     1     113.135 126.761 141.534  0.00  0.00    +0.000 OA
ATOM     13  O   UNL     1     111.680 126.060 141.200  0.00  0.00    +0.000 OA
ATOM     14  C   UNL     1     112.410 128.058 139.935  0.00  0.00    +0.000 C 
ATOM     15  C   UNL     1     112.895 127.743 140.525  0.00  0.00    +0.000 C 
ATOM     16  C   UNL     1     112.651 127.076 140.946  0.00  0.00    +0.000 C 
ATOM     17  C   UNL     1     111.923 126.726 140.778  0.00  0.00    +0.000 C 
ATOM     18  C   UNL     1     111.439 127.041 140.190  0.00  0.00    +0.000 C 
BRANCH  18  20
ATOM     19  O   UNL     1     110.622 126.229 139.345  0.00  0.00    +0.000 OA
ATOM     20  C   UNL     1     110.711 126.691 140.022  0.00  0.00    +0.000 C 
ENDBRANCH  18  20
ENDBRANCH   9  14
ENDBRANCH   4   9
BRANCH   8  21
ATOM     21  O   UNL     1     112.686 128.600 137.869  0.00  0.00    +0.000 OA
BRANCH  21  26
ATOM     22  O   UNL     1     113.552 128.713 135.869  0.00  0.00    +0.000 OA
ATOM     23  O   UNL     1     113.482 130.043 137.956  0.00  0.00    +0.000 OA
ATOM     24  O   UNL     1     114.309 131.067 137.366  0.00  0.00    +0.000 OA
ATOM     25  O   UNL     1     115.224 130.740 134.612  0.00  0.00    +0.000 OA
ATOM     26  C   UNL     1     113.107 128.878 137.217  0.00  0.00    +0.000 A 
ATOM     27  C   UNL     1     113.130 128.435 136.521  0.00  0.00    +0.000 A 
ATOM     28  C   UNL     1     113.505 129.599 137.260  0.00  0.00    +0.000 A 
ATOM     29  C   UNL     1     113.927 129.877 136.608  0.00  0.00    +0.000 A 
ATOM     30  C   UNL     1     113.951 129.435 135.913  0.00  0.00    +0.000 A 
ATOM     31  C   UNL     1     114.338 130.631 136.666  0.00  0.00    +0.000 A 
ATOM     32  C   UNL     1     114.386 129.714 135.227  0.00  0.00    +0.000 A 
ATOM     33  C   UNL     1     114.779 130.926 135.990  0.00  0.00    +0.000 A 
ATOM     34  C   UNL     1     114.803 130.464 135.266  0.00  0.00    +0.000 A 
BRANCH  27  37
ATOM     35  O   UNL     1     110.844 126.914 135.730  0.00  0.00    +0.000 OA
ATOM     36  O   UNL     1     111.538 125.550 136.347  0.00  0.00    +0.000 OA
ATOM     37  C   UNL     1     112.732 127.714 136.478  0.00  0.00    +0.000 A 
ATOM     38  C   UNL     1     111.987 127.674 136.126  0.00  0.00    +0.000 A 
ATOM     39  C   UNL     1     113.080 127.032 136.786  0.00  0.00    +0.000 A 
ATOM     40  C   UNL     1     111.589 126.954 136.082  0.00  0.00    +0.000 A 
ATOM     41  C   UNL     1     112.681 126.310 136.742  0.00  0.00    +0.000 A 
ATOM     42  C   UNL     1     111.936 126.272 136.390  0.00  0.00    +0.000 A 
ENDBRANCH  27  37
ENDBRANCH  21  26
ENDBRANCH   8  21
BRANCH   7  43
ATOM     43  C   UNL     1     110.479 130.408 137.690  0.00  0.00    +0.000 C 
BRANCH  43  44
ATOM     44  O   UNL     1     110.037 130.018 137.113  0.00  0.00    +0.000 OA
BRANCH  44  49
ATOM     45  O   UNL     1     109.673 131.212 136.417  0.00  0.00    +0.000 OA
ATOM     46  O   UNL     1     108.612 129.320 136.660  0.00  0.00    +0.000 OA
ATOM     47  O   UNL     1     107.536 130.165 135.738  0.00  0.00    +0.000 OA
ATOM     48  O   UNL     1     107.884 131.708 135.269  0.00  0.00    +0.000 OA
ATOM     49  C   UNL     1     109.498 130.441 136.652  0.00  0.00    +0.000 C 
ATOM     50  C   UNL     1     108.786 130.092 136.425  0.00  0.00    +0.000 C 
ATOM     51  C   UNL     1     108.248 130.514 135.964  0.00  0.00    +0.000 C 
ATOM     52  C   UNL     1     108.422 131.285 135.730  0.00  0.00    +0.000 C 
ATOM     53  C   UNL     1     109.134 131.634 135.956  0.00  0.00    +0.000 C 
ATOM     54  C   UNL     1     109.309 132.406 135.722  0.00  0.00    +0.000 C 
ENDBRANCH  44  49
ENDBRANCH  43  44
ENDBRANCH   7  43
TORSDOF 9
ENDMDL
MODEL 7
REMARK VINA RESULT:     -10.5      1.914      4.665
REMARK  Name = 44259287
REMARK  9 active torsions:
REMARK  status: ('A' for Active; 'I' for Inactive)
REMARK    1  A    between atoms: O_1  and  C_22
REMARK    2  A    between atoms: O_1  and  C_27
REMARK    3  A    between atoms: O_4  and  C_32
REMARK    4  A    between atoms: O_4  and  C_33
REMARK    5  A    between atoms: O_6  and  C_26
REMARK    6  A    between atoms: O_6  and  C_40
REMARK    7  A    between atoms: C_25  and  C_32
REMARK    8  A    between atoms: C_31  and  C_38
REMARK    9  A    between atoms: C_41  and  C_44
REMARK                            x       y       z     vdW  Elec       q    Type
REMARK                         _______ _______ _______ _____ _____    ______ ____
ROOT
ATOM      1  O   UNL     1     111.588 127.663 138.004  0.00  0.00    +0.000 OA
ATOM      2  O   UNL     1     109.124 127.427 138.029  0.00  0.00    +0.000 OA
ATOM      3  O   UNL     1     109.836 128.548 137.050  0.00  0.00    +0.000 OA
ATOM      4  C   UNL     1     110.411 127.023 138.502  0.00  0.00    +0.000 C 
ATOM      5  C   UNL     1     109.946 127.506 138.021  0.00  0.00    +0.000 C 
ATOM      6  C   UNL     1     110.301 128.066 137.531  0.00  0.00    +0.000 C 
ATOM      7  C   UNL     1     111.122 128.144 137.523  0.00  0.00    +0.000 C 
ATOM      8  C   UNL     1     111.232 127.102 138.494  0.00  0.00    +0.000 C 
ENDROOT
BRANCH   4   9
ATOM      9  O   UNL     1     110.055 126.463 138.992  0.00  0.00    +0.000 OA
BRANCH   9  14
ATOM     10  O   UNL     1     109.679 127.494 139.907  0.00  0.00    +0.000 OA
ATOM     11  O   UNL     1     109.504 125.323 140.050  0.00  0.00    +0.000 OA
ATOM     12  O   UNL     1     108.852 125.785 141.494  0.00  0.00    +0.000 OA
ATOM     13  O   UNL     1     108.751 127.386 141.879  0.00  0.00    +0.000 OA
ATOM     14  C   UNL     1     109.729 126.694 139.714  0.00  0.00    +0.000 C 
ATOM     15  C   UNL     1     109.453 126.124 140.243  0.00  0.00    +0.000 C 
ATOM     16  C   UNL     1     109.127 126.354 140.965  0.00  0.00    +0.000 C 
ATOM     17  C   UNL     1     109.077 127.155 141.157  0.00  0.00    +0.000 C 
ATOM     18  C   UNL     1     109.353 127.725 140.629  0.00  0.00    +0.000 C 
BRANCH  18  20
ATOM     19  O   UNL     1     109.986 128.953 140.993  0.00  0.00    +0.000 OA
ATOM     20  C   UNL     1     109.302 128.526 140.821  0.00  0.00    +0.000 C 
ENDBRANCH  18  20
ENDBRANCH   9  14
ENDBRANCH   4   9
BRANCH   8  21
ATOM     21  O   UNL     1     111.698 126.620 138.975  0.00  0.00    +0.000 OA
BRANCH  21  26
ATOM     22  O   UNL     1     113.823 126.156 138.803  0.00  0.00    +0.000 OA
ATOM     23  O   UNL     1     111.707 125.709 137.599  0.00  0.00    +0.000 OA
ATOM     24  O   UNL     1     112.405 124.935 136.601  0.00  0.00    +0.000 OA
ATOM     25  O   UNL     1     115.297 124.606 136.826  0.00  0.00    +0.000 OA
ATOM     26  C   UNL     1     112.408 126.313 138.688  0.00  0.00    +0.000 A 
ATOM     27  C   UNL     1     113.113 126.462 139.090  0.00  0.00    +0.000 A 
ATOM     28  C   UNL     1     112.413 125.858 138.001  0.00  0.00    +0.000 A 
ATOM     29  C   UNL     1     113.123 125.552 137.714  0.00  0.00    +0.000 A 
ATOM     30  C   UNL     1     113.828 125.700 138.115  0.00  0.00    +0.000 A 
ATOM     31  C   UNL     1     113.115 125.079 136.996  0.00  0.00    +0.000 A 
ATOM     32  C   UNL     1     114.574 125.386 137.826  0.00  0.00    +0.000 A 
ATOM     33  C   UNL     1     113.851 124.756 136.692  0.00  0.00    +0.000 A 
ATOM     34  C   UNL     1     114.586 124.912 137.111  0.00  0.00    +0.000 A 
BRANCH  27  37
ATOM     35  O   UNL     1     113.521 128.968 140.403  0.00  0.00    +0.000 OA
ATOM     36  O   UNL     1     113.095 128.283 141.842  0.00  0.00    +0.000 OA
ATOM     37  C   UNL     1     113.109 126.917 139.777  0.00  0.00    +0.000 A 
ATOM     38  C   UNL     1     113.317 127.715 139.746  0.00  0.00    +0.000 A 
ATOM     39  C   UNL     1     112.896 126.575 140.497  0.00  0.00    +0.000 A 
ATOM     40  C   UNL     1     113.313 128.170 140.434  0.00  0.00    +0.000 A 
ATOM     41  C   UNL     1     112.891 127.030 141.186  0.00  0.00    +0.000 A 
ATOM     42  C   UNL     1     113.099 127.828 141.154  0.00  0.00    +0.000 A 
ENDBRANCH  27  37
ENDBRANCH  21  26
ENDBRANCH   8  21
BRANCH   7  43
ATOM     43  C   UNL     1     111.478 128.705 137.033  0.00  0.00    +0.000 C 
BRANCH  43  44
ATOM     44  O   UNL     1     111.958 129.292 137.359  0.00  0.00    +0.000 OA
BRANCH  44  49
ATOM     45  O   UNL     1     113.023 129.098 136.426  0.00  0.00    +0.000 OA
ATOM     46  O   UNL     1     112.363 130.886 137.490  0.00  0.00    +0.000 OA
ATOM     47  O   UNL     1     113.631 131.489 136.623  0.00  0.00    +0.000 OA
ATOM     48  O   UNL     1     114.494 130.498 135.625  0.00  0.00    +0.000 OA
ATOM     49  C   UNL     1     112.592 129.594 136.925  0.00  0.00    +0.000 C 
ATOM     50  C   UNL     1     112.795 130.391 136.991  0.00  0.00    +0.000 C 
ATOM     51  C   UNL     1     113.428 130.692 136.558  0.00  0.00    +0.000 C 
ATOM     52  C   UNL     1     113.860 130.197 136.059  0.00  0.00    +0.000 C 
ATOM     53  C   UNL     1     113.657 129.400 135.993  0.00  0.00    +0.000 C 
ATOM     54  C   UNL     1     114.088 128.904 135.494  0.00  0.00    +0.000 C 
ENDBRANCH  44  49
ENDBRANCH  43  44
ENDBRANCH   7  43
TORSDOF 9
ENDMDL
MODEL 8
REMARK VINA RESULT:     -10.5      1.299      3.699
REMARK  Name = 44259287
REMARK  9 active torsions:
REMARK  status: ('A' for Active; 'I' for Inactive)
REMARK    1  A    between atoms: O_1  and  C_22
REMARK    2  A    between atoms: O_1  and  C_27
REMARK    3  A    between atoms: O_4  and  C_32
REMARK    4  A    between atoms: O_4  and  C_33
REMARK    5  A    between atoms: O_6  and  C_26
REMARK    6  A    between atoms: O_6  and  C_40
REMARK    7  A    between atoms: C_25  and  C_32
REMARK    8  A    between atoms: C_31  and  C_38
REMARK    9  A    between atoms: C_41  and  C_44
REMARK                            x       y       z     vdW  Elec       q    Type
REMARK                         _______ _______ _______ _____ _____    ______ ____
ROOT
ATOM      1  O   UNL     1     111.291 128.393 138.111  0.00  0.00    +0.000 OA
ATOM      2  O   UNL     1     109.096 129.486 138.446  0.00  0.00    +0.000 OA
ATOM      3  O   UNL     1     110.137 129.320 139.715  0.00  0.00    +0.000 OA
ATOM      4  C   UNL     1     110.038 128.840 137.588  0.00  0.00    +0.000 C 
ATOM      5  C   UNL     1     109.827 129.121 138.334  0.00  0.00    +0.000 C 
ATOM      6  C   UNL     1     110.348 129.039 138.968  0.00  0.00    +0.000 C 
ATOM      7  C   UNL     1     111.079 128.674 138.857  0.00  0.00    +0.000 C 
ATOM      8  C   UNL     1     110.769 128.476 137.476  0.00  0.00    +0.000 C 
ENDROOT
BRANCH   4   9
ATOM      9  O   UNL     1     109.517 128.923 136.954  0.00  0.00    +0.000 OA
BRANCH   9  14
ATOM     10  O   UNL     1     109.881 130.300 136.834  0.00  0.00    +0.000 OA
ATOM     11  O   UNL     1     108.431 129.103 135.724  0.00  0.00    +0.000 OA
ATOM     12  O   UNL     1     108.252 130.570 134.990  0.00  0.00    +0.000 OA
ATOM     13  O   UNL     1     109.159 131.856 135.486  0.00  0.00    +0.000 OA
ATOM     14  C   UNL     1     109.428 129.656 136.587  0.00  0.00    +0.000 C 
ATOM     15  C   UNL     1     108.884 129.746 135.971  0.00  0.00    +0.000 C 
ATOM     16  C   UNL     1     108.795 130.480 135.604  0.00  0.00    +0.000 C 
ATOM     17  C   UNL     1     109.248 131.123 135.853  0.00  0.00    +0.000 C 
ATOM     18  C   UNL     1     109.791 131.033 136.467  0.00  0.00    +0.000 C 
BRANCH  18  20
ATOM     19  O   UNL     1     111.064 131.663 136.624  0.00  0.00    +0.000 OA
ATOM     20  C   UNL     1     110.245 131.676 136.715  0.00  0.00    +0.000 C 
ENDBRANCH  18  20
ENDBRANCH   9  14
ENDBRANCH   4   9
BRANCH   8  21
ATOM     21  O   UNL     1     110.981 128.194 136.730  0.00  0.00    +0.000 OA
BRANCH  21  26
ATOM     22  O   UNL     1     112.484 126.709 136.183  0.00  0.00    +0.000 OA
ATOM     23  O   UNL     1     110.323 126.830 137.385  0.00  0.00    +0.000 OA
ATOM     24  O   UNL     1     110.361 125.413 137.655  0.00  0.00    +0.000 OA
ATOM     25  O   UNL     1     112.628 123.845 136.692  0.00  0.00    +0.000 OA
ATOM     26  C   UNL     1     111.372 127.471 136.657  0.00  0.00    +0.000 A 
ATOM     27  C   UNL     1     112.092 127.432 136.256  0.00  0.00    +0.000 A 
ATOM     28  C   UNL     1     111.043 126.790 136.984  0.00  0.00    +0.000 A 
ATOM     29  C   UNL     1     111.435 126.067 136.911  0.00  0.00    +0.000 A 
ATOM     30  C   UNL     1     112.155 126.026 136.511  0.00  0.00    +0.000 A 
ATOM     31  C   UNL     1     111.082 125.363 137.256  0.00  0.00    +0.000 A 
ATOM     32  C   UNL     1     112.572 125.280 136.428  0.00  0.00    +0.000 A 
ATOM     33  C   UNL     1     111.484 124.608 137.184  0.00  0.00    +0.000 A 
ATOM     34  C   UNL     1     112.235 124.566 136.766  0.00  0.00    +0.000 A 
BRANCH  27  37
ATOM     35  O   UNL     1     113.952 129.597 136.398  0.00  0.00    +0.000 OA
ATOM     36  O   UNL     1     113.408 130.160 134.946  0.00  0.00    +0.000 OA
ATOM     37  C   UNL     1     112.421 128.113 135.929  0.00  0.00    +0.000 A 
ATOM     38  C   UNL     1     113.022 128.514 136.327  0.00  0.00    +0.000 A 
ATOM     39  C   UNL     1     112.149 128.395 135.203  0.00  0.00    +0.000 A 
ATOM     40  C   UNL     1     113.351 129.196 136.000  0.00  0.00    +0.000 A 
ATOM     41  C   UNL     1     112.478 129.077 134.875  0.00  0.00    +0.000 A 
ATOM     42  C   UNL     1     113.079 129.477 135.274  0.00  0.00    +0.000 A 
ENDBRANCH  27  37
ENDBRANCH  21  26
ENDBRANCH   8  21
BRANCH   7  43
ATOM     43  C   UNL     1     111.601 128.591 139.491  0.00  0.00    +0.000 C 
BRANCH  43  44
ATOM     44  O   UNL     1     112.350 128.934 139.456  0.00  0.00    +0.000 OA
BRANCH  44  49
ATOM     45  O   UNL     1     113.016 127.760 139.926  0.00  0.00    +0.000 OA
ATOM     46  O   UNL     1     113.550 129.870 140.095  0.00  0.00    +0.000 OA
ATOM     47  O   UNL     1     114.815 129.164 140.884  0.00  0.00    +0.000 OA
ATOM     48  O   UNL     1     114.882 127.522 141.034  0.00  0.00    +0.000 OA
ATOM     49  C   UNL     1     112.984 128.581 139.851  0.00  0.00    +0.000 C 
ATOM     50  C   UNL     1     113.583 129.049 140.170  0.00  0.00    +0.000 C 
ATOM     51  C   UNL     1     114.216 128.696 140.564  0.00  0.00    +0.000 C 
ATOM     52  C   UNL     1     114.249 127.876 140.640  0.00  0.00    +0.000 C 
ATOM     53  C   UNL     1     113.649 127.408 140.320  0.00  0.00    +0.000 C 
ATOM     54  C   UNL     1     113.682 126.586 140.395  0.00  0.00    +0.000 C 
ENDBRANCH  44  49
ENDBRANCH  43  44
ENDBRANCH   7  43
TORSDOF 9
ENDMDL
MODEL 9
REMARK VINA RESULT:     -10.4      1.749      4.340
REMARK  Name = 44259287
REMARK  9 active torsions:
REMARK  status: ('A' for Active; 'I' for Inactive)
REMARK    1  A    between atoms: O_1  and  C_22
REMARK    2  A    between atoms: O_1  and  C_27
REMARK    3  A    between atoms: O_4  and  C_32
REMARK    4  A    between atoms: O_4  and  C_33
REMARK    5  A    between atoms: O_6  and  C_26
REMARK    6  A    between atoms: O_6  and  C_40
REMARK    7  A    between atoms: C_25  and  C_32
REMARK    8  A    between atoms: C_31  and  C_38
REMARK    9  A    between atoms: C_41  and  C_44
REMARK                            x       y       z     vdW  Elec       q    Type
REMARK                         _______ _______ _______ _____ _____    ______ ____
ROOT
ATOM      1  O   UNL     1     112.744 127.782 139.159  0.00  0.00    +0.000 OA
ATOM      2  O   UNL     1     114.266 128.288 141.044  0.00  0.00    +0.000 OA
ATOM      3  O   UNL     1     114.300 126.799 140.333  0.00  0.00    +0.000 OA
ATOM      4  C   UNL     1     113.235 128.696 140.143  0.00  0.00    +0.000 C 
ATOM      5  C   UNL     1     113.759 128.120 140.416  0.00  0.00    +0.000 C 
ATOM      6  C   UNL     1     113.776 127.376 140.061  0.00  0.00    +0.000 C 
ATOM      7  C   UNL     1     113.268 127.207 139.432  0.00  0.00    +0.000 C 
ATOM      8  C   UNL     1     112.728 128.527 139.514  0.00  0.00    +0.000 C 
ENDROOT
BRANCH   4   9
ATOM      9  O   UNL     1     113.218 129.440 140.498  0.00  0.00    +0.000 OA
BRANCH   9  14
ATOM     10  O   UNL     1     112.502 128.894 141.608  0.00  0.00    +0.000 OA
ATOM     11  O   UNL     1     113.174 130.931 141.203  0.00  0.00    +0.000 OA
ATOM     12  O   UNL     1     112.436 131.131 142.665  0.00  0.00    +0.000 OA
ATOM     13  O   UNL     1     111.742 129.839 143.422  0.00  0.00    +0.000 OA
ATOM     14  C   UNL     1     112.849 129.540 141.229  0.00  0.00    +0.000 C 
ATOM     15  C   UNL     1     112.827 130.286 141.582  0.00  0.00    +0.000 C 
ATOM     16  C   UNL     1     112.458 130.386 142.313  0.00  0.00    +0.000 C 
ATOM     17  C   UNL     1     112.111 129.739 142.691  0.00  0.00    +0.000 C 
ATOM     18  C   UNL     1     112.133 128.994 142.339  0.00  0.00    +0.000 C 
BRANCH  18  20
ATOM     19  O   UNL     1     111.080 128.034 142.433  0.00  0.00    +0.000 OA
ATOM     20  C   UNL     1     111.787 128.348 142.717  0.00  0.00    +0.000 C 
ENDBRANCH  18  20
ENDBRANCH   9  14
ENDBRANCH   4   9
BRANCH   8  21
ATOM     21  O   UNL     1     112.204 129.103 139.241  0.00  0.00    +0.000 OA
BRANCH  21  26
ATOM     22  O   UNL     1     111.114 129.218 137.353  0.00  0.00    +0.000 OA
ATOM     23  O   UNL     1     113.449 129.272 138.172  0.00  0.00    +0.000 OA
ATOM     24  O   UNL     1     113.948 129.426 136.827  0.00  0.00    +0.000 OA
ATOM     25  O   UNL     1     112.048 129.527 134.612  0.00  0.00    +0.000 OA
ATOM     26  C   UNL     1     112.048 129.169 138.433  0.00  0.00    +0.000 A 
ATOM     27  C   UNL     1     111.269 129.151 138.161  0.00  0.00    +0.000 A 
ATOM     28  C   UNL     1     112.671 129.254 137.900  0.00  0.00    +0.000 A 
ATOM     29  C   UNL     1     112.515 129.321 137.092  0.00  0.00    +0.000 A 
ATOM     30  C   UNL     1     111.737 129.303 136.819  0.00  0.00    +0.000 A 
ATOM     31  C   UNL     1     113.173 129.409 136.545  0.00  0.00    +0.000 A 
ATOM     32  C   UNL     1     111.563 129.371 135.980  0.00  0.00    +0.000 A 
ATOM     33  C   UNL     1     113.018 129.479 135.703  0.00  0.00    +0.000 A 
ATOM     34  C   UNL     1     112.206 129.460 135.419  0.00  0.00    +0.000 A 
BRANCH  27  37
ATOM     35  O   UNL     1     109.355 127.495 139.488  0.00  0.00    +0.000 OA
ATOM     36  O   UNL     1     108.778 128.812 140.298  0.00  0.00    +0.000 OA
ATOM     37  C   UNL     1     110.647 129.066 138.695  0.00  0.00    +0.000 A 
ATOM     38  C   UNL     1     110.312 128.323 138.824  0.00  0.00    +0.000 A 
ATOM     39  C   UNL     1     110.358 129.724 139.100  0.00  0.00    +0.000 A 
ATOM     40  C   UNL     1     109.690 128.238 139.358  0.00  0.00    +0.000 A 
ATOM     41  C   UNL     1     109.735 129.640 139.634  0.00  0.00    +0.000 A 
ATOM     42  C   UNL     1     109.401 128.897 139.763  0.00  0.00    +0.000 A 
ENDBRANCH  27  37
ENDBRANCH  21  26
ENDBRANCH   8  21
BRANCH   7  43
ATOM     43  C   UNL     1     113.285 126.462 139.077  0.00  0.00    +0.000 C 
BRANCH  43  44
ATOM     44  O   UNL     1     112.616 126.176 138.688  0.00  0.00    +0.000 OA
BRANCH  44  49
ATOM     45  O   UNL     1     113.384 125.551 137.658  0.00  0.00    +0.000 OA
ATOM     46  O   UNL     1     111.391 125.102 138.427  0.00  0.00    +0.000 OA
ATOM     47  O   UNL     1     111.546 123.940 137.267  0.00  0.00    +0.000 OA
ATOM     48  O   UNL     1     112.927 123.851 136.367  0.00  0.00    +0.000 OA
ATOM     49  C   UNL     1     112.693 125.595 138.107  0.00  0.00    +0.000 C 
ATOM     50  C   UNL     1     112.081 125.057 137.977  0.00  0.00    +0.000 C 
ATOM     51  C   UNL     1     112.159 124.477 137.397  0.00  0.00    +0.000 C 
ATOM     52  C   UNL     1     112.848 124.433 136.947  0.00  0.00    +0.000 C 
ATOM     53  C   UNL     1     113.461 124.970 137.078  0.00  0.00    +0.000 C 
ATOM     54  C   UNL     1     114.151 124.926 136.628  0.00  0.00    +0.000 C 
ENDBRANCH  44  49
ENDBRANCH  43  44
ENDBRANCH   7  43
TORSDOF 9
ENDMDL
MODEL 10
REMARK VINA RESULT:     -10.4      1.622      5.448
REMARK  Name = 44259287
REMARK  9 active torsions:
REMARK  status: ('A' for Active; 'I' for Inactive)
REMARK    1  A    between atoms: O_1  and  C_22
REMARK    2  A    between atoms: O_1  and  C_27
REMARK    3  A    between atoms: O_4  and  C_32
REMARK    4  A    between atoms: O_4  and  C_33
REMARK    5  A    between atoms: O_6  and  C_26
REMARK    6  A    between atoms: O_6  and  C_40
REMARK    7  A    between atoms: C_25  and  C_32
REMARK    8  A    between atoms: C_31  and  C_38
REMARK    9  A    between atoms: C_41  and  C_44
REMARK                            x       y       z     vdW  Elec       q    Type
REMARK                         _______ _______ _______ _____ _____    ______ ____
ROOT
ATOM      1  O   UNL     1     111.388 128.466 136.297  0.00  0.00    +0.000 OA
ATOM      2  O   UNL     1     110.991 126.289 135.188  0.00  0.00    +0.000 OA
ATOM      3  O   UNL     1     109.947 127.543 134.941  0.00  0.00    +0.000 OA
ATOM      4  C   UNL     1     111.778 127.113 136.051  0.00  0.00    +0.000 C 
ATOM      5  C   UNL     1     111.123 127.015 135.558  0.00  0.00    +0.000 C 
ATOM      6  C   UNL     1     110.602 127.641 135.434  0.00  0.00    +0.000 C 
ATOM      7  C   UNL     1     110.734 128.367 135.804  0.00  0.00    +0.000 C 
ATOM      8  C   UNL     1     111.910 127.839 136.420  0.00  0.00    +0.000 C 
ENDROOT
BRANCH   4   9
ATOM      9  O   UNL     1     112.299 126.487 136.174  0.00  0.00    +0.000 OA
BRANCH   9  14
ATOM     10  O   UNL     1     111.412 125.920 137.140  0.00  0.00    +0.000 OA
ATOM     11  O   UNL     1     113.203 125.106 136.195  0.00  0.00    +0.000 OA
ATOM     12  O   UNL     1     112.767 123.850 137.171  0.00  0.00    +0.000 OA
ATOM     13  O   UNL     1     111.427 123.973 138.126  0.00  0.00    +0.000 OA
ATOM     14  C   UNL     1     112.081 125.858 136.662  0.00  0.00    +0.000 C 
ATOM     15  C   UNL     1     112.533 125.168 136.673  0.00  0.00    +0.000 C 
ATOM     16  C   UNL     1     112.315 124.539 137.161  0.00  0.00    +0.000 C 
ATOM     17  C   UNL     1     111.645 124.602 137.638  0.00  0.00    +0.000 C 
ATOM     18  C   UNL     1     111.193 125.291 137.628  0.00  0.00    +0.000 C 
BRANCH  18  20
ATOM     19  O   UNL     1     110.491 125.924 138.699  0.00  0.00    +0.000 OA
ATOM     20  C   UNL     1     110.523 125.354 138.105  0.00  0.00    +0.000 C 
ENDBRANCH  18  20
ENDBRANCH   9  14
ENDBRANCH   4   9
BRANCH   8  21
ATOM     21  O   UNL     1     112.564 127.938 136.914  0.00  0.00    +0.000 OA
BRANCH  21  26
ATOM     22  O   UNL     1     113.663 129.750 137.434  0.00  0.00    +0.000 OA
ATOM     23  O   UNL     1     113.199 128.348 135.447  0.00  0.00    +0.000 OA
ATOM     24  O   UNL     1     113.992 129.218 134.612  0.00  0.00    +0.000 OA
ATOM     25  O   UNL     1     115.278 131.550 135.811  0.00  0.00    +0.000 OA
ATOM     26  C   UNL     1     113.036 128.610 136.842  0.00  0.00    +0.000 A 
ATOM     27  C   UNL     1     113.191 129.077 137.505  0.00  0.00    +0.000 A 
ATOM     28  C   UNL     1     113.354 128.815 136.110  0.00  0.00    +0.000 A 
ATOM     29  C   UNL     1     113.826 129.488 136.039  0.00  0.00    +0.000 A 
ATOM     30  C   UNL     1     113.981 129.955 136.700  0.00  0.00    +0.000 A 
ATOM     31  C   UNL     1     114.152 129.691 135.269  0.00  0.00    +0.000 A 
ATOM     32  C   UNL     1     114.472 130.658 136.639  0.00  0.00    +0.000 A 
ATOM     33  C   UNL     1     114.645 130.390 135.188  0.00  0.00    +0.000 A 
ATOM     34  C   UNL     1     114.806 130.877 135.879  0.00  0.00    +0.000 A 
BRANCH  27  37
ATOM     35  O   UNL     1     111.259 129.495 139.570  0.00  0.00    +0.000 OA
ATOM     36  O   UNL     1     111.920 128.257 140.438  0.00  0.00    +0.000 OA
ATOM     37  C   UNL     1     112.873 128.873 138.238  0.00  0.00    +0.000 A 
ATOM     38  C   UNL     1     112.225 129.286 138.537  0.00  0.00    +0.000 A 
ATOM     39  C   UNL     1     113.203 128.254 138.672  0.00  0.00    +0.000 A 
ATOM     40  C   UNL     1     111.907 129.081 139.270  0.00  0.00    +0.000 A 
ATOM     41  C   UNL     1     112.886 128.049 139.406  0.00  0.00    +0.000 A 
ATOM     42  C   UNL     1     112.238 128.462 139.704  0.00  0.00    +0.000 A 
ENDBRANCH  27  37
ENDBRANCH  21  26
ENDBRANCH   8  21
BRANCH   7  43
ATOM     43  C   UNL     1     110.211 128.994 135.681  0.00  0.00    +0.000 C 
BRANCH  43  44
ATOM     44  O   UNL     1     109.869 129.378 136.326  0.00  0.00    +0.000 OA
BRANCH  44  49
ATOM     45  O   UNL     1     109.411 130.433 135.478  0.00  0.00    +0.000 OA
ATOM     46  O   UNL     1     108.898 129.930 137.540  0.00  0.00    +0.000 OA
ATOM     47  O   UNL     1     107.953 131.262 137.299  0.00  0.00    +0.000 OA
ATOM     48  O   UNL     1     107.980 132.041 135.845  0.00  0.00    +0.000 OA
ATOM     49  C   UNL     1     109.397 130.044 136.206  0.00  0.00    +0.000 C 
ATOM     50  C   UNL     1     108.911 130.320 136.813  0.00  0.00    +0.000 C 
ATOM     51  C   UNL     1     108.439 130.986 136.692  0.00  0.00    +0.000 C 
ATOM     52  C   UNL     1     108.452 131.375 135.966  0.00  0.00    +0.000 C 
ATOM     53  C   UNL     1     108.938 131.099 135.359  0.00  0.00    +0.000 C 
ATOM     54  C   UNL     1     108.952 131.489 134.631  0.00  0.00    +0.000 C 
ENDBRANCH  44  49
ENDBRANCH  43  44
ENDBRANCH   7  43
TORSDOF 9
ENDMDL
