MODEL 1
REMARK VINA RESULT:      -9.9      0.000      0.000
REMARK  Name = 44259800
REMARK  4 active torsions:
REMARK  status: ('A' for Active; 'I' for Inactive)
REMARK    1  A    between atoms: O_2  and  C_17
REMARK    2  A    between atoms: O_2  and  C_19
REMARK    3  A    between atoms: O_9  and  C_27
REMARK    4  A    between atoms: C_20  and  C_24
REMARK                            x       y       z     vdW  Elec       q    Type
REMARK                         _______ _______ _______ _____ _____    ______ ____
ROOT
ATOM      1  O   UNL     1     105.115 124.118 147.057  0.00  0.00    +0.000 OA
ATOM      2  O   UNL     1     103.471 125.741 147.944  0.00  0.00    +0.000 OA
ATOM      3  O   UNL     1     102.416 125.140 147.164  0.00  0.00    +0.000 OA
ATOM      4  O   UNL     1     103.036 122.854 145.456  0.00  0.00    +0.000 OA
ATOM      5  C   UNL     1     104.807 125.236 147.892  0.00  0.00    +0.000 A 
ATOM      6  C   UNL     1     105.355 124.695 147.597  0.00  0.00    +0.000 A 
ATOM      7  C   UNL     1     104.019 125.200 147.649  0.00  0.00    +0.000 A 
ATOM      8  C   UNL     1     103.780 124.622 147.109  0.00  0.00    +0.000 A 
ATOM      9  C   UNL     1     104.329 124.082 146.814  0.00  0.00    +0.000 A 
ATOM     10  C   UNL     1     102.957 124.595 146.864  0.00  0.00    +0.000 A 
ATOM     11  C   UNL     1     104.092 123.476 146.253  0.00  0.00    +0.000 A 
ATOM     12  C   UNL     1     102.702 123.996 146.303  0.00  0.00    +0.000 A 
ATOM     13  C   UNL     1     103.273 123.433 145.995  0.00  0.00    +0.000 A 
ENDROOT
BRANCH   6  16
ATOM     14  O   UNL     1     108.088 125.331 147.053  0.00  0.00    +0.000 OA
ATOM     15  O   UNL     1     108.504 124.837 148.572  0.00  0.00    +0.000 OA
ATOM     16  C   UNL     1     106.142 124.731 147.840  0.00  0.00    +0.000 A 
ATOM     17  C   UNL     1     106.721 125.013 147.325  0.00  0.00    +0.000 A 
ATOM     18  C   UNL     1     106.351 124.484 148.599  0.00  0.00    +0.000 A 
ATOM     19  C   UNL     1     107.509 125.049 147.568  0.00  0.00    +0.000 A 
ATOM     20  C   UNL     1     107.138 124.519 148.843  0.00  0.00    +0.000 A 
ATOM     21  C   UNL     1     107.717 124.802 148.327  0.00  0.00    +0.000 A 
ENDBRANCH   6  16
BRANCH  12  22
ATOM     22  O   UNL     1     101.914 123.963 146.061  0.00  0.00    +0.000 OA
ATOM     23  C   UNL     1     101.410 123.389 146.375  0.00  0.00    +0.000 C 
ENDBRANCH  12  22
BRANCH   5  24
ATOM     24  O   UNL     1     105.046 125.813 148.431  0.00  0.00    +0.000 OA
BRANCH  24  33
ATOM     25  O   UNL     1     105.065 126.864 147.463  0.00  0.00    +0.000 OA
ATOM     26  O   UNL     1     104.522 128.505 149.234  0.00  0.00    +0.000 OA
ATOM     27  O   UNL     1     104.723 129.010 147.676  0.00  0.00    +0.000 OA
ATOM     28  O   UNL     1     104.684 126.907 149.612  0.00  0.00    +0.000 OA
ATOM     29  C   UNL     1     104.703 127.958 148.644  0.00  0.00    +0.000 C 
ATOM     30  C   UNL     1     104.804 128.210 147.865  0.00  0.00    +0.000 C 
ATOM     31  C   UNL     1     104.784 127.159 148.832  0.00  0.00    +0.000 C 
ATOM     32  C   UNL     1     104.985 127.664 147.275  0.00  0.00    +0.000 C 
ATOM     33  C   UNL     1     104.965 126.613 148.242  0.00  0.00    +0.000 C 
ATOM     34  C   UNL     1     105.085 127.916 146.495  0.00  0.00    +0.000 C 
ENDBRANCH  24  33
ENDBRANCH   5  24
TORSDOF 4
ENDMDL
MODEL 2
REMARK VINA RESULT:      -9.5     11.290     13.244
REMARK  Name = 44259800
REMARK  4 active torsions:
REMARK  status: ('A' for Active; 'I' for Inactive)
REMARK    1  A    between atoms: O_2  and  C_17
REMARK    2  A    between atoms: O_2  and  C_19
REMARK    3  A    between atoms: O_9  and  C_27
REMARK    4  A    between atoms: C_20  and  C_24
REMARK                            x       y       z     vdW  Elec       q    Type
REMARK                         _______ _______ _______ _____ _____    ______ ____
ROOT
ATOM      1  O   UNL     1     113.538 127.282 136.581  0.00  0.00    +0.000 OA
ATOM      2  O   UNL     1     112.180 128.246 138.412  0.00  0.00    +0.000 OA
ATOM      3  O   UNL     1     112.407 129.582 137.915  0.00  0.00    +0.000 OA
ATOM      4  O   UNL     1     114.039 129.948 135.521  0.00  0.00    +0.000 OA
ATOM      5  C   UNL     1     112.738 127.108 137.753  0.00  0.00    +0.000 A 
ATOM      6  C   UNL     1     113.190 126.786 137.143  0.00  0.00    +0.000 A 
ATOM      7  C   UNL     1     112.632 127.925 137.802  0.00  0.00    +0.000 A 
ATOM      8  C   UNL     1     112.979 128.420 137.240  0.00  0.00    +0.000 A 
ATOM      9  C   UNL     1     113.432 128.098 136.630  0.00  0.00    +0.000 A 
ATOM     10  C   UNL     1     112.862 129.269 137.301  0.00  0.00    +0.000 A 
ATOM     11  C   UNL     1     113.798 128.603 136.039  0.00  0.00    +0.000 A 
ATOM     12  C   UNL     1     113.220 129.790 136.720  0.00  0.00    +0.000 A 
ATOM     13  C   UNL     1     113.691 129.455 136.084  0.00  0.00    +0.000 A 
ENDROOT
BRANCH   6  16
ATOM     14  O   UNL     1     114.850 124.481 137.462  0.00  0.00    +0.000 OA
ATOM     15  O   UNL     1     113.613 123.519 136.945  0.00  0.00    +0.000 OA
ATOM     16  C   UNL     1     113.297 125.969 137.094  0.00  0.00    +0.000 A 
ATOM     17  C   UNL     1     114.020 125.634 137.303  0.00  0.00    +0.000 A 
ATOM     18  C   UNL     1     112.678 125.488 136.836  0.00  0.00    +0.000 A 
ATOM     19  C   UNL     1     114.126 124.817 137.253  0.00  0.00    +0.000 A 
ATOM     20  C   UNL     1     112.783 124.672 136.786  0.00  0.00    +0.000 A 
ATOM     21  C   UNL     1     113.508 124.336 136.995  0.00  0.00    +0.000 A 
ENDBRANCH   6  16
BRANCH  12  22
ATOM     22  O   UNL     1     113.112 130.606 136.771  0.00  0.00    +0.000 OA
ATOM     23  C   UNL     1     113.707 131.081 137.089  0.00  0.00    +0.000 C 
ENDBRANCH  12  22
BRANCH   5  24
ATOM     24  O   UNL     1     112.391 126.613 138.314  0.00  0.00    +0.000 OA
BRANCH  24  33
ATOM     25  O   UNL     1     113.343 126.934 139.331  0.00  0.00    +0.000 OA
ATOM     26  O   UNL     1     111.643 126.468 141.069  0.00  0.00    +0.000 OA
ATOM     27  O   UNL     1     113.160 126.945 141.506  0.00  0.00    +0.000 OA
ATOM     28  O   UNL     1     111.258 126.302 139.473  0.00  0.00    +0.000 OA
ATOM     29  C   UNL     1     112.209 126.623 140.489  0.00  0.00    +0.000 C 
ATOM     30  C   UNL     1     112.968 126.862 140.708  0.00  0.00    +0.000 C 
ATOM     31  C   UNL     1     112.018 126.540 139.691  0.00  0.00    +0.000 C 
ATOM     32  C   UNL     1     113.534 127.017 140.129  0.00  0.00    +0.000 C 
ATOM     33  C   UNL     1     112.584 126.696 139.113  0.00  0.00    +0.000 C 
ATOM     34  C   UNL     1     114.294 127.255 140.348  0.00  0.00    +0.000 C 
ENDBRANCH  24  33
ENDBRANCH   5  24
TORSDOF 4
ENDMDL
MODEL 3
REMARK VINA RESULT:      -9.3     11.118     12.821
REMARK  Name = 44259800
REMARK  4 active torsions:
REMARK  status: ('A' for Active; 'I' for Inactive)
REMARK    1  A    between atoms: O_2  and  C_17
REMARK    2  A    between atoms: O_2  and  C_19
REMARK    3  A    between atoms: O_9  and  C_27
REMARK    4  A    between atoms: C_20  and  C_24
REMARK                            x       y       z     vdW  Elec       q    Type
REMARK                         _______ _______ _______ _____ _____    ______ ____
ROOT
ATOM      1  O   UNL     1     112.952 126.092 138.572  0.00  0.00    +0.000 OA
ATOM      2  O   UNL     1     110.636 125.714 137.785  0.00  0.00    +0.000 OA
ATOM      3  O   UNL     1     110.103 126.193 139.037  0.00  0.00    +0.000 OA
ATOM      4  O   UNL     1     111.947 127.072 141.123  0.00  0.00    +0.000 OA
ATOM      5  C   UNL     1     112.046 125.663 137.554  0.00  0.00    +0.000 A 
ATOM      6  C   UNL     1     112.817 125.789 137.815  0.00  0.00    +0.000 A 
ATOM      7  C   UNL     1     111.408 125.839 138.047  0.00  0.00    +0.000 A 
ATOM      8  C   UNL     1     111.543 126.143 138.803  0.00  0.00    +0.000 A 
ATOM      9  C   UNL     1     112.315 126.268 139.064  0.00  0.00    +0.000 A 
ATOM     10  C   UNL     1     110.872 126.323 139.307  0.00  0.00    +0.000 A 
ATOM     11  C   UNL     1     112.469 126.583 139.849  0.00  0.00    +0.000 A 
ATOM     12  C   UNL     1     111.005 126.638 140.095  0.00  0.00    +0.000 A 
ATOM     13  C   UNL     1     111.809 126.770 140.368  0.00  0.00    +0.000 A 
ENDROOT
BRANCH   6  16
ATOM     14  O   UNL     1     114.874 126.644 136.025  0.00  0.00    +0.000 OA
ATOM     15  O   UNL     1     115.367 125.079 135.844  0.00  0.00    +0.000 OA
ATOM     16  C   UNL     1     113.455 125.612 137.322  0.00  0.00    +0.000 A 
ATOM     17  C   UNL     1     113.846 126.216 136.920  0.00  0.00    +0.000 A 
ATOM     18  C   UNL     1     113.701 124.830 137.232  0.00  0.00    +0.000 A 
ATOM     19  C   UNL     1     114.483 126.039 136.427  0.00  0.00    +0.000 A 
ATOM     20  C   UNL     1     114.339 124.652 136.739  0.00  0.00    +0.000 A 
ATOM     21  C   UNL     1     114.730 125.257 136.337  0.00  0.00    +0.000 A 
ENDBRANCH   6  16
BRANCH  12  22
ATOM     22  O   UNL     1     110.366 126.814 140.586  0.00  0.00    +0.000 OA
ATOM     23  C   UNL     1     110.137 126.280 141.172  0.00  0.00    +0.000 C 
ENDBRANCH  12  22
BRANCH   5  24
ATOM     24  O   UNL     1     111.911 125.360 136.798  0.00  0.00    +0.000 OA
BRANCH  24  33
ATOM     25  O   UNL     1     111.516 126.618 136.248  0.00  0.00    +0.000 OA
ATOM     26  O   UNL     1     110.061 125.451 134.621  0.00  0.00    +0.000 OA
ATOM     27  O   UNL     1     110.151 127.099 134.613  0.00  0.00    +0.000 OA
ATOM     28  O   UNL     1     110.940 124.582 135.714  0.00  0.00    +0.000 OA
ATOM     29  C   UNL     1     110.546 125.840 135.164  0.00  0.00    +0.000 C 
ATOM     30  C   UNL     1     110.592 126.664 135.160  0.00  0.00    +0.000 C 
ATOM     31  C   UNL     1     110.986 125.406 135.710  0.00  0.00    +0.000 C 
ATOM     32  C   UNL     1     111.076 127.052 135.702  0.00  0.00    +0.000 C 
ATOM     33  C   UNL     1     111.470 125.795 136.251  0.00  0.00    +0.000 C 
ATOM     34  C   UNL     1     111.121 127.877 135.698  0.00  0.00    +0.000 C 
ENDBRANCH  24  33
ENDBRANCH   5  24
TORSDOF 4
ENDMDL
MODEL 4
REMARK VINA RESULT:      -9.2     12.188     13.754
REMARK  Name = 44259800
REMARK  4 active torsions:
REMARK  status: ('A' for Active; 'I' for Inactive)
REMARK    1  A    between atoms: O_2  and  C_17
REMARK    2  A    between atoms: O_2  and  C_19
REMARK    3  A    between atoms: O_9  and  C_27
REMARK    4  A    between atoms: C_20  and  C_24
REMARK                            x       y       z     vdW  Elec       q    Type
REMARK                         _______ _______ _______ _____ _____    ______ ____
ROOT
ATOM      1  O   UNL     1     113.445 126.947 136.587  0.00  0.00    +0.000 OA
ATOM      2  O   UNL     1     111.201 126.522 135.634  0.00  0.00    +0.000 OA
ATOM      3  O   UNL     1     111.323 125.110 135.902  0.00  0.00    +0.000 OA
ATOM      4  O   UNL     1     113.762 124.109 137.158  0.00  0.00    +0.000 OA
ATOM      5  C   UNL     1     112.249 127.432 135.972  0.00  0.00    +0.000 A 
ATOM      6  C   UNL     1     112.997 127.574 136.290  0.00  0.00    +0.000 A 
ATOM      7  C   UNL     1     111.948 126.664 135.951  0.00  0.00    +0.000 A 
ATOM      8  C   UNL     1     112.396 126.037 136.249  0.00  0.00    +0.000 A 
ATOM      9  C   UNL     1     113.144 126.180 136.567  0.00  0.00    +0.000 A 
ATOM     10  C   UNL     1     112.072 125.242 136.222  0.00  0.00    +0.000 A 
ATOM     11  C   UNL     1     113.620 125.536 136.879  0.00  0.00    +0.000 A 
ATOM     12  C   UNL     1     112.533 124.586 136.530  0.00  0.00    +0.000 A 
ATOM     13  C   UNL     1     113.312 124.733 136.861  0.00  0.00    +0.000 A 
ENDROOT
BRANCH   6  16
ATOM     14  O   UNL     1     113.640 129.943 137.754  0.00  0.00    +0.000 OA
ATOM     15  O   UNL     1     114.202 130.645 136.371  0.00  0.00    +0.000 OA
ATOM     16  C   UNL     1     113.298 128.342 136.311  0.00  0.00    +0.000 A 
ATOM     17  C   UNL     1     113.318 128.758 137.022  0.00  0.00    +0.000 A 
ATOM     18  C   UNL     1     113.579 128.693 135.619  0.00  0.00    +0.000 A 
ATOM     19  C   UNL     1     113.620 129.526 137.043  0.00  0.00    +0.000 A 
ATOM     20  C   UNL     1     113.880 129.461 135.639  0.00  0.00    +0.000 A 
ATOM     21  C   UNL     1     113.901 129.877 136.351  0.00  0.00    +0.000 A 
ENDBRANCH   6  16
BRANCH  12  22
ATOM     22  O   UNL     1     112.230 123.819 136.508  0.00  0.00    +0.000 OA
ATOM     23  C   UNL     1     111.912 123.481 137.190  0.00  0.00    +0.000 C 
ENDBRANCH  12  22
BRANCH   5  24
ATOM     24  O   UNL     1     111.802 128.058 135.675  0.00  0.00    +0.000 OA
BRANCH  24  33
ATOM     25  O   UNL     1     110.920 128.106 136.799  0.00  0.00    +0.000 OA
ATOM     26  O   UNL     1     109.105 128.943 135.339  0.00  0.00    +0.000 OA
ATOM     27  O   UNL     1     108.829 128.712 136.950  0.00  0.00    +0.000 OA
ATOM     28  O   UNL     1     110.592 128.616 134.702  0.00  0.00    +0.000 OA
ATOM     29  C   UNL     1     109.710 128.664 135.826  0.00  0.00    +0.000 C 
ATOM     30  C   UNL     1     109.573 128.549 136.631  0.00  0.00    +0.000 C 
ATOM     31  C   UNL     1     110.454 128.501 135.508  0.00  0.00    +0.000 C 
ATOM     32  C   UNL     1     110.177 128.270 137.117  0.00  0.00    +0.000 C 
ATOM     33  C   UNL     1     111.058 128.222 135.994  0.00  0.00    +0.000 C 
ATOM     34  C   UNL     1     110.039 128.155 137.923  0.00  0.00    +0.000 C 
ENDBRANCH  24  33
ENDBRANCH   5  24
TORSDOF 4
ENDMDL
MODEL 5
REMARK VINA RESULT:      -9.2     12.178     14.074
REMARK  Name = 44259800
REMARK  4 active torsions:
REMARK  status: ('A' for Active; 'I' for Inactive)
REMARK    1  A    between atoms: O_2  and  C_17
REMARK    2  A    between atoms: O_2  and  C_19
REMARK    3  A    between atoms: O_9  and  C_27
REMARK    4  A    between atoms: C_20  and  C_24
REMARK                            x       y       z     vdW  Elec       q    Type
REMARK                         _______ _______ _______ _____ _____    ______ ____
ROOT
ATOM      1  O   UNL     1     111.733 129.425 135.683  0.00  0.00    +0.000 OA
ATOM      2  O   UNL     1     112.385 130.634 137.742  0.00  0.00    +0.000 OA
ATOM      3  O   UNL     1     113.758 130.700 137.302  0.00  0.00    +0.000 OA
ATOM      4  O   UNL     1     114.484 129.521 134.731  0.00  0.00    +0.000 OA
ATOM      5  C   UNL     1     111.383 130.004 136.941  0.00  0.00    +0.000 A 
ATOM      6  C   UNL     1     111.165 129.601 136.256  0.00  0.00    +0.000 A 
ATOM      7  C   UNL     1     112.168 130.231 137.056  0.00  0.00    +0.000 A 
ATOM      8  C   UNL     1     112.736 130.056 136.483  0.00  0.00    +0.000 A 
ATOM      9  C   UNL     1     112.517 129.653 135.796  0.00  0.00    +0.000 A 
ATOM     10  C   UNL     1     113.549 130.297 136.613  0.00  0.00    +0.000 A 
ATOM     11  C   UNL     1     113.099 129.464 135.193  0.00  0.00    +0.000 A 
ATOM     12  C   UNL     1     114.145 130.117 136.020  0.00  0.00    +0.000 A 
ATOM     13  C   UNL     1     113.919 129.698 135.305  0.00  0.00    +0.000 A 
ENDROOT
BRANCH   6  16
ATOM     14  O   UNL     1     108.634 129.990 134.986  0.00  0.00    +0.000 OA
ATOM     15  O   UNL     1     108.026 128.690 135.800  0.00  0.00    +0.000 OA
ATOM     16  C   UNL     1     110.380 129.374 136.141  0.00  0.00    +0.000 A 
ATOM     17  C   UNL     1     109.900 129.796 135.621  0.00  0.00    +0.000 A 
ATOM     18  C   UNL     1     110.076 128.724 136.548  0.00  0.00    +0.000 A 
ATOM     19  C   UNL     1     109.115 129.568 135.506  0.00  0.00    +0.000 A 
ATOM     20  C   UNL     1     109.292 128.495 136.435  0.00  0.00    +0.000 A 
ATOM     21  C   UNL     1     108.811 128.918 135.913  0.00  0.00    +0.000 A 
ENDBRANCH   6  16
BRANCH  12  22
ATOM     22  O   UNL     1     114.929 130.346 136.137  0.00  0.00    +0.000 OA
ATOM     23  C   UNL     1     115.256 130.948 135.677  0.00  0.00    +0.000 C 
ENDBRANCH  12  22
BRANCH   5  24
ATOM     24  O   UNL     1     110.815 130.180 137.514  0.00  0.00    +0.000 OA
BRANCH  24  33
ATOM     25  O   UNL     1     110.728 131.560 137.155  0.00  0.00    +0.000 OA
ATOM     26  O   UNL     1     110.111 132.127 139.483  0.00  0.00    +0.000 OA
ATOM     27  O   UNL     1     110.229 133.318 138.348  0.00  0.00    +0.000 OA
ATOM     28  O   UNL     1     110.404 130.558 139.066  0.00  0.00    +0.000 OA
ATOM     29  C   UNL     1     110.316 131.938 138.707  0.00  0.00    +0.000 C 
ATOM     30  C   UNL     1     110.376 132.533 138.139  0.00  0.00    +0.000 C 
ATOM     31  C   UNL     1     110.463 131.154 138.498  0.00  0.00    +0.000 C 
ATOM     32  C   UNL     1     110.581 132.344 137.364  0.00  0.00    +0.000 C 
ATOM     33  C   UNL     1     110.669 130.965 137.723  0.00  0.00    +0.000 C 
ATOM     34  C   UNL     1     110.641 132.940 136.795  0.00  0.00    +0.000 C 
ENDBRANCH  24  33
ENDBRANCH   5  24
TORSDOF 4
ENDMDL
MODEL 6
REMARK VINA RESULT:      -9.2     11.823     13.215
REMARK  Name = 44259800
REMARK  4 active torsions:
REMARK  status: ('A' for Active; 'I' for Inactive)
REMARK    1  A    between atoms: O_2  and  C_17
REMARK    2  A    between atoms: O_2  and  C_19
REMARK    3  A    between atoms: O_9  and  C_27
REMARK    4  A    between atoms: C_20  and  C_24
REMARK                            x       y       z     vdW  Elec       q    Type
REMARK                         _______ _______ _______ _____ _____    ______ ____
ROOT
ATOM      1  O   UNL     1     113.221 126.127 138.891  0.00  0.00    +0.000 OA
ATOM      2  O   UNL     1     112.232 128.318 138.304  0.00  0.00    +0.000 OA
ATOM      3  O   UNL     1     112.880 128.944 139.430  0.00  0.00    +0.000 OA
ATOM      4  O   UNL     1     114.561 127.323 141.183  0.00  0.00    +0.000 OA
ATOM      5  C   UNL     1     112.400 126.924 138.036  0.00  0.00    +0.000 A 
ATOM      6  C   UNL     1     112.729 126.194 138.231  0.00  0.00    +0.000 A 
ATOM      7  C   UNL     1     112.561 127.588 138.499  0.00  0.00    +0.000 A 
ATOM      8  C   UNL     1     113.053 127.520 139.159  0.00  0.00    +0.000 A 
ATOM      9  C   UNL     1     113.383 126.789 139.354  0.00  0.00    +0.000 A 
ATOM     10  C   UNL     1     113.214 128.217 139.634  0.00  0.00    +0.000 A 
ATOM     11  C   UNL     1     113.897 126.706 140.038  0.00  0.00    +0.000 A 
ATOM     12  C   UNL     1     113.726 128.154 140.321  0.00  0.00    +0.000 A 
ATOM     13  C   UNL     1     114.069 127.393 140.525  0.00  0.00    +0.000 A 
ENDROOT
BRANCH   6  16
ATOM     14  O   UNL     1     113.562 124.263 136.296  0.00  0.00    +0.000 OA
ATOM     15  O   UNL     1     112.081 123.540 136.380  0.00  0.00    +0.000 OA
ATOM     16  C   UNL     1     112.568 125.530 137.768  0.00  0.00    +0.000 A 
ATOM     17  C   UNL     1     113.145 125.228 137.264  0.00  0.00    +0.000 A 
ATOM     18  C   UNL     1     111.827 125.169 137.811  0.00  0.00    +0.000 A 
ATOM     19  C   UNL     1     112.984 124.565 136.801  0.00  0.00    +0.000 A 
ATOM     20  C   UNL     1     111.665 124.505 137.348  0.00  0.00    +0.000 A 
ATOM     21  C   UNL     1     112.243 124.203 136.843  0.00  0.00    +0.000 A 
ENDBRANCH   6  16
BRANCH  12  22
ATOM     22  O   UNL     1     113.886 128.819 140.783  0.00  0.00    +0.000 OA
ATOM     23  C   UNL     1     114.569 129.261 140.647  0.00  0.00    +0.000 C 
ENDBRANCH  12  22
BRANCH   5  24
ATOM     24  O   UNL     1     111.908 126.991 137.377  0.00  0.00    +0.000 OA
BRANCH  24  33
ATOM     25  O   UNL     1     112.897 127.644 136.579  0.00  0.00    +0.000 OA
ATOM     26  O   UNL     1     111.113 128.797 135.309  0.00  0.00    +0.000 OA
ATOM     27  O   UNL     1     112.698 129.064 134.934  0.00  0.00    +0.000 OA
ATOM     28  O   UNL     1     110.718 127.760 136.531  0.00  0.00    +0.000 OA
ATOM     29  C   UNL     1     111.708 128.412 135.732  0.00  0.00    +0.000 C 
ATOM     30  C   UNL     1     112.500 128.546 135.545  0.00  0.00    +0.000 C 
ATOM     31  C   UNL     1     111.511 127.894 136.343  0.00  0.00    +0.000 C 
ATOM     32  C   UNL     1     113.094 128.162 135.968  0.00  0.00    +0.000 C 
ATOM     33  C   UNL     1     112.105 127.510 136.766  0.00  0.00    +0.000 C 
ATOM     34  C   UNL     1     113.887 128.296 135.781  0.00  0.00    +0.000 C 
ENDBRANCH  24  33
ENDBRANCH   5  24
TORSDOF 4
ENDMDL
MODEL 7
REMARK VINA RESULT:      -9.0     12.016     13.801
REMARK  Name = 44259800
REMARK  4 active torsions:
REMARK  status: ('A' for Active; 'I' for Inactive)
REMARK    1  A    between atoms: O_2  and  C_17
REMARK    2  A    between atoms: O_2  and  C_19
REMARK    3  A    between atoms: O_9  and  C_27
REMARK    4  A    between atoms: C_20  and  C_24
REMARK                            x       y       z     vdW  Elec       q    Type
REMARK                         _______ _______ _______ _____ _____    ______ ____
ROOT
ATOM      1  O   UNL     1     111.417 126.294 136.170  0.00  0.00    +0.000 OA
ATOM      2  O   UNL     1     113.465 127.680 136.273  0.00  0.00    +0.000 OA
ATOM      3  O   UNL     1     114.279 126.511 136.498  0.00  0.00    +0.000 OA
ATOM      4  O   UNL     1     112.997 123.890 136.623  0.00  0.00    +0.000 OA
ATOM      5  C   UNL     1     112.049 127.575 136.110  0.00  0.00    +0.000 A 
ATOM      6  C   UNL     1     111.367 127.113 136.076  0.00  0.00    +0.000 A 
ATOM      7  C   UNL     1     112.783 127.219 136.238  0.00  0.00    +0.000 A 
ATOM      8  C   UNL     1     112.833 126.400 136.333  0.00  0.00    +0.000 A 
ATOM      9  C   UNL     1     112.150 125.939 136.298  0.00  0.00    +0.000 A 
ATOM     10  C   UNL     1     113.602 126.041 136.466  0.00  0.00    +0.000 A 
ATOM     11  C   UNL     1     112.189 125.086 136.395  0.00  0.00    +0.000 A 
ATOM     12  C   UNL     1     113.661 125.190 136.565  0.00  0.00    +0.000 A 
ATOM     13  C   UNL     1     112.950 124.708 136.529  0.00  0.00    +0.000 A 
ENDROOT
BRANCH   6  16
ATOM     14  O   UNL     1     108.834 127.991 137.065  0.00  0.00    +0.000 OA
ATOM     15  O   UNL     1     108.435 128.536 135.560  0.00  0.00    +0.000 OA
ATOM     16  C   UNL     1     110.634 127.469 135.947  0.00  0.00    +0.000 A 
ATOM     17  C   UNL     1     110.100 127.552 136.571  0.00  0.00    +0.000 A 
ATOM     18  C   UNL     1     110.434 127.742 135.195  0.00  0.00    +0.000 A 
ATOM     19  C   UNL     1     109.367 127.908 136.442  0.00  0.00    +0.000 A 
ATOM     20  C   UNL     1     109.701 128.097 135.065  0.00  0.00    +0.000 A 
ATOM     21  C   UNL     1     109.167 128.181 135.689  0.00  0.00    +0.000 A 
ENDBRANCH   6  16
BRANCH  12  22
ATOM     22  O   UNL     1     114.395 124.836 136.693  0.00  0.00    +0.000 OA
ATOM     23  C   UNL     1     114.648 124.678 137.462  0.00  0.00    +0.000 C 
ENDBRANCH  12  22
BRANCH   5  24
ATOM     24  O   UNL     1     111.999 128.393 136.016  0.00  0.00    +0.000 OA
BRANCH  24  33
ATOM     25  O   UNL     1     112.177 128.674 137.406  0.00  0.00    +0.000 OA
ATOM     26  O   UNL     1     113.233 130.838 136.833  0.00  0.00    +0.000 OA
ATOM     27  O   UNL     1     113.058 130.398 138.414  0.00  0.00    +0.000 OA
ATOM     28  O   UNL     1     112.703 129.835 135.634  0.00  0.00    +0.000 OA
ATOM     29  C   UNL     1     112.881 130.117 137.024  0.00  0.00    +0.000 C 
ATOM     30  C   UNL     1     112.793 129.896 137.814  0.00  0.00    +0.000 C 
ATOM     31  C   UNL     1     112.616 129.615 136.425  0.00  0.00    +0.000 C 
ATOM     32  C   UNL     1     112.441 129.176 138.004  0.00  0.00    +0.000 C 
ATOM     33  C   UNL     1     112.264 128.895 136.616  0.00  0.00    +0.000 C 
ATOM     34  C   UNL     1     112.354 128.955 138.795  0.00  0.00    +0.000 C 
ENDBRANCH  24  33
ENDBRANCH   5  24
TORSDOF 4
ENDMDL
MODEL 8
REMARK VINA RESULT:      -9.0     11.258     13.367
REMARK  Name = 44259800
REMARK  4 active torsions:
REMARK  status: ('A' for Active; 'I' for Inactive)
REMARK    1  A    between atoms: O_2  and  C_17
REMARK    2  A    between atoms: O_2  and  C_19
REMARK    3  A    between atoms: O_9  and  C_27
REMARK    4  A    between atoms: C_20  and  C_24
REMARK                            x       y       z     vdW  Elec       q    Type
REMARK                         _______ _______ _______ _____ _____    ______ ____
ROOT
ATOM      1  O   UNL     1     113.001 128.333 138.291  0.00  0.00    +0.000 OA
ATOM      2  O   UNL     1     111.859 126.153 138.557  0.00  0.00    +0.000 OA
ATOM      3  O   UNL     1     111.991 126.228 139.992  0.00  0.00    +0.000 OA
ATOM      4  O   UNL     1     113.302 128.551 141.180  0.00  0.00    +0.000 OA
ATOM      5  C   UNL     1     112.359 127.194 137.715  0.00  0.00    +0.000 A 
ATOM      6  C   UNL     1     112.739 127.920 137.626  0.00  0.00    +0.000 A 
ATOM      7  C   UNL     1     112.240 126.879 138.468  0.00  0.00    +0.000 A 
ATOM      8  C   UNL     1     112.502 127.292 139.134  0.00  0.00    +0.000 A 
ATOM      9  C   UNL     1     112.883 128.019 139.044  0.00  0.00    +0.000 A 
ATOM     10  C   UNL     1     112.373 126.955 139.913  0.00  0.00    +0.000 A 
ATOM     11  C   UNL     1     113.160 128.458 139.729  0.00  0.00    +0.000 A 
ATOM     12  C   UNL     1     112.643 127.380 140.609  0.00  0.00    +0.000 A 
ATOM     13  C   UNL     1     113.039 128.136 140.517  0.00  0.00    +0.000 A 
ENDROOT
BRANCH   6  16
ATOM     14  O   UNL     1     114.483 128.538 135.447  0.00  0.00    +0.000 OA
ATOM     15  O   UNL     1     113.212 129.179 134.612  0.00  0.00    +0.000 OA
ATOM     16  C   UNL     1     112.858 128.235 136.872  0.00  0.00    +0.000 A 
ATOM     17  C   UNL     1     113.611 128.229 136.537  0.00  0.00    +0.000 A 
ATOM     18  C   UNL     1     112.223 128.555 136.455  0.00  0.00    +0.000 A 
ATOM     19  C   UNL     1     113.730 128.543 135.783  0.00  0.00    +0.000 A 
ATOM     20  C   UNL     1     112.340 128.870 135.701  0.00  0.00    +0.000 A 
ATOM     21  C   UNL     1     113.095 128.864 135.365  0.00  0.00    +0.000 A 
ENDBRANCH   6  16
BRANCH  12  22
ATOM     22  O   UNL     1     112.523 127.063 141.362  0.00  0.00    +0.000 OA
ATOM     23  C   UNL     1     111.897 127.333 141.827  0.00  0.00    +0.000 C 
ENDBRANCH  12  22
BRANCH   5  24
ATOM     24  O   UNL     1     112.097 126.781 137.050  0.00  0.00    +0.000 OA
BRANCH  24  33
ATOM     25  O   UNL     1     113.153 125.819 137.081  0.00  0.00    +0.000 OA
ATOM     26  O   UNL     1     111.634 124.122 136.111  0.00  0.00    +0.000 OA
ATOM     27  O   UNL     1     113.196 123.725 136.465  0.00  0.00    +0.000 OA
ATOM     28  O   UNL     1     111.084 125.650 136.404  0.00  0.00    +0.000 OA
ATOM     29  C   UNL     1     112.140 124.688 136.434  0.00  0.00    +0.000 C 
ATOM     30  C   UNL     1     112.921 124.490 136.612  0.00  0.00    +0.000 C 
ATOM     31  C   UNL     1     111.866 125.452 136.581  0.00  0.00    +0.000 C 
ATOM     32  C   UNL     1     113.427 125.055 136.934  0.00  0.00    +0.000 C 
ATOM     33  C   UNL     1     112.372 126.017 136.904  0.00  0.00    +0.000 C 
ATOM     34  C   UNL     1     114.209 124.857 137.112  0.00  0.00    +0.000 C 
ENDBRANCH  24  33
ENDBRANCH   5  24
TORSDOF 4
ENDMDL
MODEL 9
REMARK VINA RESULT:      -9.0     11.222     13.335
REMARK  Name = 44259800
REMARK  4 active torsions:
REMARK  status: ('A' for Active; 'I' for Inactive)
REMARK    1  A    between atoms: O_2  and  C_17
REMARK    2  A    between atoms: O_2  and  C_19
REMARK    3  A    between atoms: O_9  and  C_27
REMARK    4  A    between atoms: C_20  and  C_24
REMARK                            x       y       z     vdW  Elec       q    Type
REMARK                         _______ _______ _______ _____ _____    ______ ____
ROOT
ATOM      1  O   UNL     1     112.799 128.345 138.512  0.00  0.00    +0.000 OA
ATOM      2  O   UNL     1     112.381 127.068 136.433  0.00  0.00    +0.000 OA
ATOM      3  O   UNL     1     112.975 128.114 135.637  0.00  0.00    +0.000 OA
ATOM      4  O   UNL     1     114.011 130.498 136.969  0.00  0.00    +0.000 OA
ATOM      5  C   UNL     1     112.293 127.181 137.855  0.00  0.00    +0.000 A 
ATOM      6  C   UNL     1     112.432 127.606 138.548  0.00  0.00    +0.000 A 
ATOM      7  C   UNL     1     112.520 127.493 137.126  0.00  0.00    +0.000 A 
ATOM      8  C   UNL     1     112.887 128.232 137.090  0.00  0.00    +0.000 A 
ATOM      9  C   UNL     1     113.026 128.657 137.783  0.00  0.00    +0.000 A 
ATOM     10  C   UNL     1     113.118 128.547 136.325  0.00  0.00    +0.000 A 
ATOM     11  C   UNL     1     113.406 129.427 137.759  0.00  0.00    +0.000 A 
ATOM     12  C   UNL     1     113.500 129.315 136.281  0.00  0.00    +0.000 A 
ATOM     13  C   UNL     1     113.645 129.759 137.002  0.00  0.00    +0.000 A 
ENDROOT
BRANCH   6  16
ATOM     14  O   UNL     1     113.122 126.454 141.071  0.00  0.00    +0.000 OA
ATOM     15  O   UNL     1     111.523 126.358 141.464  0.00  0.00    +0.000 OA
ATOM     16  C   UNL     1     112.205 127.294 139.277  0.00  0.00    +0.000 A 
ATOM     17  C   UNL     1     112.777 127.030 139.809  0.00  0.00    +0.000 A 
ATOM     18  C   UNL     1     111.406 127.246 139.474  0.00  0.00    +0.000 A 
ATOM     19  C   UNL     1     112.550 126.718 140.539  0.00  0.00    +0.000 A 
ATOM     20  C   UNL     1     111.178 126.934 140.203  0.00  0.00    +0.000 A 
ATOM     21  C   UNL     1     111.751 126.670 140.735  0.00  0.00    +0.000 A 
ENDBRANCH   6  16
BRANCH  12  22
ATOM     22  O   UNL     1     113.726 129.626 135.550  0.00  0.00    +0.000 OA
ATOM     23  C   UNL     1     114.513 129.576 135.307  0.00  0.00    +0.000 C 
ENDBRANCH  12  22
BRANCH   5  24
ATOM     24  O   UNL     1     111.927 126.442 137.891  0.00  0.00    +0.000 OA
BRANCH  24  33
ATOM     25  O   UNL     1     113.135 125.713 137.665  0.00  0.00    +0.000 OA
ATOM     26  O   UNL     1     111.837 123.897 136.594  0.00  0.00    +0.000 OA
ATOM     27  O   UNL     1     113.477 123.773 136.724  0.00  0.00    +0.000 OA
ATOM     28  O   UNL     1     111.062 125.232 137.177  0.00  0.00    +0.000 OA
ATOM     29  C   UNL     1     112.270 124.502 136.951  0.00  0.00    +0.000 C 
ATOM     30  C   UNL     1     113.090 124.441 137.016  0.00  0.00    +0.000 C 
ATOM     31  C   UNL     1     111.883 125.170 137.243  0.00  0.00    +0.000 C 
ATOM     32  C   UNL     1     113.522 125.045 137.373  0.00  0.00    +0.000 C 
ATOM     33  C   UNL     1     112.315 125.774 137.599  0.00  0.00    +0.000 C 
ATOM     34  C   UNL     1     114.342 124.983 137.438  0.00  0.00    +0.000 C 
ENDBRANCH  24  33
ENDBRANCH   5  24
TORSDOF 4
ENDMDL
MODEL 10
REMARK VINA RESULT:      -9.0     12.318     13.760
REMARK  Name = 44259800
REMARK  4 active torsions:
REMARK  status: ('A' for Active; 'I' for Inactive)
REMARK    1  A    between atoms: O_2  and  C_17
REMARK    2  A    between atoms: O_2  and  C_19
REMARK    3  A    between atoms: O_9  and  C_27
REMARK    4  A    between atoms: C_20  and  C_24
REMARK                            x       y       z     vdW  Elec       q    Type
REMARK                         _______ _______ _______ _____ _____    ______ ____
ROOT
ATOM      1  O   UNL     1     111.509 126.688 136.747  0.00  0.00    +0.000 OA
ATOM      2  O   UNL     1     112.004 128.696 135.387  0.00  0.00    +0.000 OA
ATOM      3  O   UNL     1     110.597 128.939 135.181  0.00  0.00    +0.000 OA
ATOM      4  O   UNL     1     108.652 127.116 136.374  0.00  0.00    +0.000 OA
ATOM      5  C   UNL     1     112.457 127.583 136.161  0.00  0.00    +0.000 A 
ATOM      6  C   UNL     1     112.292 126.914 136.614  0.00  0.00    +0.000 A 
ATOM      7  C   UNL     1     111.840 128.027 135.840  0.00  0.00    +0.000 A 
ATOM      8  C   UNL     1     111.056 127.801 135.972  0.00  0.00    +0.000 A 
ATOM      9  C   UNL     1     110.892 127.132 136.426  0.00  0.00    +0.000 A 
ATOM     10  C   UNL     1     110.423 128.271 135.633  0.00  0.00    +0.000 A 
ATOM     11  C   UNL     1     110.081 126.886 136.571  0.00  0.00    +0.000 A 
ATOM     12  C   UNL     1     109.606 128.041 135.768  0.00  0.00    +0.000 A 
ATOM     13  C   UNL     1     109.433 127.344 136.240  0.00  0.00    +0.000 A 
ENDROOT
BRANCH   6  16
ATOM     14  O   UNL     1     113.852 126.112 138.870  0.00  0.00    +0.000 OA
ATOM     15  O   UNL     1     114.760 125.138 137.896  0.00  0.00    +0.000 OA
ATOM     16  C   UNL     1     112.909 126.470 136.935  0.00  0.00    +0.000 A 
ATOM     17  C   UNL     1     113.072 126.513 137.742  0.00  0.00    +0.000 A 
ATOM     18  C   UNL     1     113.363 125.984 136.448  0.00  0.00    +0.000 A 
ATOM     19  C   UNL     1     113.689 126.069 138.063  0.00  0.00    +0.000 A 
ATOM     20  C   UNL     1     113.980 125.539 136.768  0.00  0.00    +0.000 A 
ATOM     21  C   UNL     1     114.143 125.582 137.576  0.00  0.00    +0.000 A 
ENDBRANCH   6  16
BRANCH  12  22
ATOM     22  O   UNL     1     108.990 128.486 135.446  0.00  0.00    +0.000 OA
ATOM     23  C   UNL     1     108.623 129.071 135.898  0.00  0.00    +0.000 C 
ENDBRANCH  12  22
BRANCH   5  24
ATOM     24  O   UNL     1     113.239 127.809 136.028  0.00  0.00    +0.000 OA
BRANCH  24  33
ATOM     25  O   UNL     1     113.202 128.896 136.955  0.00  0.00    +0.000 OA
ATOM     26  O   UNL     1     114.872 130.114 135.594  0.00  0.00    +0.000 OA
ATOM     27  O   UNL     1     114.278 130.795 136.975  0.00  0.00    +0.000 OA
ATOM     28  O   UNL     1     114.353 128.621 135.121  0.00  0.00    +0.000 OA
ATOM     29  C   UNL     1     114.315 129.708 136.048  0.00  0.00    +0.000 C 
ATOM     30  C   UNL     1     114.018 130.048 136.738  0.00  0.00    +0.000 C 
ATOM     31  C   UNL     1     114.055 128.961 135.812  0.00  0.00    +0.000 C 
ATOM     32  C   UNL     1     113.462 129.642 137.191  0.00  0.00    +0.000 C 
ATOM     33  C   UNL     1     113.499 128.556 136.265  0.00  0.00    +0.000 C 
ATOM     34  C   UNL     1     113.164 129.983 137.882  0.00  0.00    +0.000 C 
ENDBRANCH  24  33
ENDBRANCH   5  24
TORSDOF 4
ENDMDL
