MODEL 1
REMARK VINA RESULT:     -10.2      0.000      0.000
REMARK  Name = 12305632
REMARK  7 active torsions:
REMARK  status: ('A' for Active; 'I' for Inactive)
REMARK    1  A    between atoms: O_3  and  C_18
REMARK    2  A    between atoms: O_3  and  C_20
REMARK    3  A    between atoms: O_6  and  C_19
REMARK    4  A    between atoms: O_6  and  C_23
REMARK    5  A    between atoms: C_16  and  C_19
REMARK    6  A    between atoms: C_23  and  C_27
REMARK    7  A    between atoms: C_29  and  C_31
REMARK                            x       y       z     vdW  Elec       q    Type
REMARK                         _______ _______ _______ _____ _____    ______ ____
ROOT
ATOM      1  O   UNL     1     111.535 129.907 138.423  0.00  0.00    +0.000 OA
ENDROOT
BRANCH   1   5
ATOM      2  O   UNL     1     112.705 127.464 137.352  0.00  0.00    +0.000 OA
ATOM      3  O   UNL     1     113.105 129.963 135.960  0.00  0.00    +0.000 OA
ATOM      4  O   UNL     1     113.669 128.733 135.460  0.00  0.00    +0.000 OA
ATOM      5  C   UNL     1     111.981 129.520 137.847  0.00  0.00    +0.000 A 
ATOM      6  C   UNL     1     112.114 128.673 137.900  0.00  0.00    +0.000 A 
ATOM      7  C   UNL     1     112.316 129.961 137.189  0.00  0.00    +0.000 A 
ATOM      8  C   UNL     1     112.580 128.278 137.296  0.00  0.00    +0.000 A 
ATOM      9  C   UNL     1     112.902 128.701 136.665  0.00  0.00    +0.000 A 
ATOM     10  C   UNL     1     112.780 129.548 136.595  0.00  0.00    +0.000 A 
ATOM     11  C   UNL     1     113.347 128.310 136.091  0.00  0.00    +0.000 A 
ATOM     12  C   UNL     1     113.150 127.073 136.779  0.00  0.00    +0.000 A 
ATOM     13  C   UNL     1     113.472 127.496 136.148  0.00  0.00    +0.000 A 
BRANCH  12  16
ATOM     14  O   UNL     1     114.778 124.870 137.590  0.00  0.00    +0.000 OA
ATOM     15  O   UNL     1     113.648 123.819 137.005  0.00  0.00    +0.000 OA
ATOM     16  C   UNL     1     113.274 126.259 136.835  0.00  0.00    +0.000 A 
ATOM     17  C   UNL     1     113.964 125.972 137.184  0.00  0.00    +0.000 A 
ATOM     18  C   UNL     1     112.709 125.734 136.543  0.00  0.00    +0.000 A 
ATOM     19  C   UNL     1     114.089 125.157 137.241  0.00  0.00    +0.000 A 
ATOM     20  C   UNL     1     112.834 124.921 136.600  0.00  0.00    +0.000 A 
ATOM     21  C   UNL     1     113.524 124.632 136.949  0.00  0.00    +0.000 A 
ENDBRANCH  12  16
ENDBRANCH   1   5
BRANCH   1  30
ATOM     22  O   UNL     1     110.303 129.787 137.709  0.00  0.00    +0.000 OA
ATOM     23  O   UNL     1     108.537 131.070 137.680  0.00  0.00    +0.000 OA
ATOM     24  O   UNL     1     109.502 131.891 138.737  0.00  0.00    +0.000 OA
ATOM     25  O   UNL     1     111.001 131.310 139.109  0.00  0.00    +0.000 OA
ATOM     26  C   UNL     1     109.286 130.779 137.865  0.00  0.00    +0.000 C 
ATOM     27  C   UNL     1     109.769 131.190 138.394  0.00  0.00    +0.000 C 
ATOM     28  C   UNL     1     109.553 130.078 137.522  0.00  0.00    +0.000 C 
ATOM     29  C   UNL     1     110.518 130.899 138.580  0.00  0.00    +0.000 C 
ATOM     30  C   UNL     1     110.785 130.197 138.237  0.00  0.00    +0.000 C 
BRANCH  28  31
ATOM     31  C   UNL     1     109.071 129.668 136.994  0.00  0.00    +0.000 C 
BRANCH  31  32
ATOM     32  O   UNL     1     109.330 128.958 136.664  0.00  0.00    +0.000 OA
BRANCH  32  34
ATOM     33  O   UNL     1     108.187 128.936 135.808  0.00  0.00    +0.000 OA
ATOM     34  C   UNL     1     108.900 128.604 136.056  0.00  0.00    +0.000 C 
BRANCH  34  36
ATOM     35  O   UNL     1     110.029 125.859 134.613  0.00  0.00    +0.000 OA
ATOM     36  C   UNL     1     109.182 127.917 135.696  0.00  0.00    +0.000 A 
ATOM     37  C   UNL     1     109.634 127.969 135.008  0.00  0.00    +0.000 A 
ATOM     38  C   UNL     1     109.012 127.179 136.022  0.00  0.00    +0.000 A 
ATOM     39  C   UNL     1     109.917 127.283 134.646  0.00  0.00    +0.000 A 
ATOM     40  C   UNL     1     109.294 126.494 135.662  0.00  0.00    +0.000 A 
ATOM     41  C   UNL     1     109.746 126.546 134.974  0.00  0.00    +0.000 A 
ENDBRANCH  34  36
ENDBRANCH  32  34
ENDBRANCH  31  32
ENDBRANCH  28  31
ENDBRANCH   1  30
TORSDOF 7
ENDMDL
MODEL 2
REMARK VINA RESULT:     -10.1      1.743      4.437
REMARK  Name = 12305632
REMARK  7 active torsions:
REMARK  status: ('A' for Active; 'I' for Inactive)
REMARK    1  A    between atoms: O_3  and  C_18
REMARK    2  A    between atoms: O_3  and  C_20
REMARK    3  A    between atoms: O_6  and  C_19
REMARK    4  A    between atoms: O_6  and  C_23
REMARK    5  A    between atoms: C_16  and  C_19
REMARK    6  A    between atoms: C_23  and  C_27
REMARK    7  A    between atoms: C_29  and  C_31
REMARK                            x       y       z     vdW  Elec       q    Type
REMARK                         _______ _______ _______ _____ _____    ______ ____
ROOT
ATOM      1  O   UNL     1     113.339 128.626 138.350  0.00  0.00    +0.000 OA
ENDROOT
BRANCH   1   5
ATOM      2  O   UNL     1     111.100 129.455 136.682  0.00  0.00    +0.000 OA
ATOM      3  O   UNL     1     113.526 128.501 135.437  0.00  0.00    +0.000 OA
ATOM      4  O   UNL     1     112.396 128.920 134.644  0.00  0.00    +0.000 OA
ATOM      5  C   UNL     1     113.006 128.740 137.604  0.00  0.00    +0.000 A 
ATOM      6  C   UNL     1     112.206 129.046 137.529  0.00  0.00    +0.000 A 
ATOM      7  C   UNL     1     113.457 128.555 136.895  0.00  0.00    +0.000 A 
ATOM      8  C   UNL     1     111.868 129.161 136.748  0.00  0.00    +0.000 A 
ATOM      9  C   UNL     1     112.301 128.983 136.068  0.00  0.00    +0.000 A 
ATOM     10  C   UNL     1     113.101 128.677 136.123  0.00  0.00    +0.000 A 
ATOM     11  C   UNL     1     111.964 129.098 135.324  0.00  0.00    +0.000 A 
ATOM     12  C   UNL     1     110.763 129.570 135.938  0.00  0.00    +0.000 A 
ATOM     13  C   UNL     1     111.196 129.392 135.259  0.00  0.00    +0.000 A 
BRANCH  12  16
ATOM     14  O   UNL     1     107.949 129.115 135.751  0.00  0.00    +0.000 OA
ATOM     15  O   UNL     1     107.690 130.743 135.676  0.00  0.00    +0.000 OA
ATOM     16  C   UNL     1     109.995 129.863 135.873  0.00  0.00    +0.000 A 
ATOM     17  C   UNL     1     109.356 129.342 135.844  0.00  0.00    +0.000 A 
ATOM     18  C   UNL     1     109.866 130.677 135.835  0.00  0.00    +0.000 A 
ATOM     19  C   UNL     1     108.587 129.635 135.779  0.00  0.00    +0.000 A 
ATOM     20  C   UNL     1     109.097 130.970 135.770  0.00  0.00    +0.000 A 
ATOM     21  C   UNL     1     108.458 130.449 135.742  0.00  0.00    +0.000 A 
ENDBRANCH  12  16
ENDBRANCH   1   5
BRANCH   1  30
ATOM     22  O   UNL     1     112.805 127.307 138.472  0.00  0.00    +0.000 OA
ATOM     23  O   UNL     1     112.334 126.114 140.239  0.00  0.00    +0.000 OA
ATOM     24  O   UNL     1     112.900 127.497 140.938  0.00  0.00    +0.000 OA
ATOM     25  O   UNL     1     113.403 128.753 139.994  0.00  0.00    +0.000 OA
ATOM     26  C   UNL     1     112.585 126.742 139.766  0.00  0.00    +0.000 C 
ATOM     27  C   UNL     1     112.868 127.434 140.116  0.00  0.00    +0.000 C 
ATOM     28  C   UNL     1     112.553 126.678 138.944  0.00  0.00    +0.000 C 
ATOM     29  C   UNL     1     113.119 128.061 139.644  0.00  0.00    +0.000 C 
ATOM     30  C   UNL     1     113.088 127.998 138.822  0.00  0.00    +0.000 C 
BRANCH  28  31
ATOM     31  C   UNL     1     112.270 125.987 138.595  0.00  0.00    +0.000 C 
BRANCH  31  32
ATOM     32  O   UNL     1     111.674 126.026 138.026  0.00  0.00    +0.000 OA
BRANCH  32  34
ATOM     33  O   UNL     1     111.753 124.622 137.774  0.00  0.00    +0.000 OA
ATOM     34  C   UNL     1     111.529 125.379 137.535  0.00  0.00    +0.000 C 
BRANCH  34  36
ATOM     35  O   UNL     1     110.051 125.816 134.617  0.00  0.00    +0.000 OA
ATOM     36  C   UNL     1     111.158 125.489 136.806  0.00  0.00    +0.000 A 
ATOM     37  C   UNL     1     111.552 125.285 136.110  0.00  0.00    +0.000 A 
ATOM     38  C   UNL     1     110.397 125.802 136.772  0.00  0.00    +0.000 A 
ATOM     39  C   UNL     1     111.183 125.394 135.380  0.00  0.00    +0.000 A 
ATOM     40  C   UNL     1     110.027 125.911 136.043  0.00  0.00    +0.000 A 
ATOM     41  C   UNL     1     110.420 125.707 135.347  0.00  0.00    +0.000 A 
ENDBRANCH  34  36
ENDBRANCH  32  34
ENDBRANCH  31  32
ENDBRANCH  28  31
ENDBRANCH   1  30
TORSDOF 7
ENDMDL
MODEL 3
REMARK VINA RESULT:     -10.0      1.702      3.837
REMARK  Name = 12305632
REMARK  7 active torsions:
REMARK  status: ('A' for Active; 'I' for Inactive)
REMARK    1  A    between atoms: O_3  and  C_18
REMARK    2  A    between atoms: O_3  and  C_20
REMARK    3  A    between atoms: O_6  and  C_19
REMARK    4  A    between atoms: O_6  and  C_23
REMARK    5  A    between atoms: C_16  and  C_19
REMARK    6  A    between atoms: C_23  and  C_27
REMARK    7  A    between atoms: C_29  and  C_31
REMARK                            x       y       z     vdW  Elec       q    Type
REMARK                         _______ _______ _______ _____ _____    ______ ____
ROOT
ATOM      1  O   UNL     1     110.516 129.416 135.219  0.00  0.00    +0.000 OA
ENDROOT
BRANCH   1   5
ATOM      2  O   UNL     1     112.524 129.536 137.325  0.00  0.00    +0.000 OA
ATOM      3  O   UNL     1     113.338 128.967 134.612  0.00  0.00    +0.000 OA
ATOM      4  O   UNL     1     114.305 129.034 135.681  0.00  0.00    +0.000 OA
ATOM      5  C   UNL     1     111.303 129.362 135.462  0.00  0.00    +0.000 A 
ATOM      6  C   UNL     1     111.510 129.480 136.287  0.00  0.00    +0.000 A 
ATOM      7  C   UNL     1     111.922 129.188 134.890  0.00  0.00    +0.000 A 
ATOM      8  C   UNL     1     112.332 129.422 136.531  0.00  0.00    +0.000 A 
ATOM      9  C   UNL     1     112.925 129.255 135.983  0.00  0.00    +0.000 A 
ATOM     10  C   UNL     1     112.738 129.134 135.153  0.00  0.00    +0.000 A 
ATOM     11  C   UNL     1     113.710 129.202 136.229  0.00  0.00    +0.000 A 
ATOM     12  C   UNL     1     113.310 129.483 137.572  0.00  0.00    +0.000 A 
ATOM     13  C   UNL     1     113.903 129.316 137.024  0.00  0.00    +0.000 A 
BRANCH  12  16
ATOM     14  O   UNL     1     114.407 131.119 139.641  0.00  0.00    +0.000 OA
ATOM     15  O   UNL     1     114.079 129.940 140.748  0.00  0.00    +0.000 OA
ATOM     16  C   UNL     1     113.502 129.597 138.366  0.00  0.00    +0.000 A 
ATOM     17  C   UNL     1     113.858 130.301 138.606  0.00  0.00    +0.000 A 
ATOM     18  C   UNL     1     113.338 129.008 138.919  0.00  0.00    +0.000 A 
ATOM     19  C   UNL     1     114.051 130.416 139.400  0.00  0.00    +0.000 A 
ATOM     20  C   UNL     1     113.531 129.122 139.713  0.00  0.00    +0.000 A 
ATOM     21  C   UNL     1     113.887 129.826 139.954  0.00  0.00    +0.000 A 
ENDBRANCH  12  16
ENDBRANCH   1   5
BRANCH   1  30
ATOM     22  O   UNL     1     110.244 128.048 135.529  0.00  0.00    +0.000 OA
ATOM     23  O   UNL     1     108.373 127.042 136.029  0.00  0.00    +0.000 OA
ATOM     24  O   UNL     1     107.846 128.591 135.814  0.00  0.00    +0.000 OA
ATOM     25  O   UNL     1     108.918 129.778 135.409  0.00  0.00    +0.000 OA
ATOM     26  C   UNL     1     108.909 127.635 135.827  0.00  0.00    +0.000 C 
ATOM     27  C   UNL     1     108.645 128.410 135.719  0.00  0.00    +0.000 C 
ATOM     28  C   UNL     1     109.708 127.454 135.731  0.00  0.00    +0.000 C 
ATOM     29  C   UNL     1     109.181 129.003 135.517  0.00  0.00    +0.000 C 
ATOM     30  C   UNL     1     109.981 128.822 135.421  0.00  0.00    +0.000 C 
BRANCH  28  31
ATOM     31  C   UNL     1     109.971 126.680 135.839  0.00  0.00    +0.000 C 
BRANCH  31  32
ATOM     32  O   UNL     1     110.571 126.519 136.382  0.00  0.00    +0.000 OA
BRANCH  32  34
ATOM     33  O   UNL     1     110.693 125.181 135.898  0.00  0.00    +0.000 OA
ATOM     34  C   UNL     1     110.995 125.814 136.332  0.00  0.00    +0.000 C 
BRANCH  34  36
ATOM     35  O   UNL     1     113.903 125.524 137.865  0.00  0.00    +0.000 OA
ATOM     36  C   UNL     1     111.723 125.742 136.715  0.00  0.00    +0.000 A 
ATOM     37  C   UNL     1     111.762 125.788 137.537  0.00  0.00    +0.000 A 
ATOM     38  C   UNL     1     112.410 125.623 136.276  0.00  0.00    +0.000 A 
ATOM     39  C   UNL     1     112.488 125.716 137.921  0.00  0.00    +0.000 A 
ATOM     40  C   UNL     1     113.137 125.550 136.659  0.00  0.00    +0.000 A 
ATOM     41  C   UNL     1     113.176 125.597 137.481  0.00  0.00    +0.000 A 
ENDBRANCH  34  36
ENDBRANCH  32  34
ENDBRANCH  31  32
ENDBRANCH  28  31
ENDBRANCH   1  30
TORSDOF 7
ENDMDL
MODEL 4
REMARK VINA RESULT:      -9.9      1.087      4.781
REMARK  Name = 12305632
REMARK  7 active torsions:
REMARK  status: ('A' for Active; 'I' for Inactive)
REMARK    1  A    between atoms: O_3  and  C_18
REMARK    2  A    between atoms: O_3  and  C_20
REMARK    3  A    between atoms: O_6  and  C_19
REMARK    4  A    between atoms: O_6  and  C_23
REMARK    5  A    between atoms: C_16  and  C_19
REMARK    6  A    between atoms: C_23  and  C_27
REMARK    7  A    between atoms: C_29  and  C_31
REMARK                            x       y       z     vdW  Elec       q    Type
REMARK                         _______ _______ _______ _____ _____    ______ ____
ROOT
ATOM      1  O   UNL     1     113.178 126.348 137.538  0.00  0.00    +0.000 OA
ENDROOT
BRANCH   1   5
ATOM      2  O   UNL     1     112.308 129.123 137.395  0.00  0.00    +0.000 OA
ATOM      3  O   UNL     1     114.261 128.144 135.505  0.00  0.00    +0.000 OA
ATOM      4  O   UNL     1     113.806 129.513 135.464  0.00  0.00    +0.000 OA
ATOM      5  C   UNL     1     113.213 127.092 137.183  0.00  0.00    +0.000 A 
ATOM      6  C   UNL     1     112.730 127.737 137.480  0.00  0.00    +0.000 A 
ATOM      7  C   UNL     1     113.734 127.227 136.512  0.00  0.00    +0.000 A 
ATOM      8  C   UNL     1     112.774 128.508 137.104  0.00  0.00    +0.000 A 
ATOM      9  C   UNL     1     113.274 128.637 136.461  0.00  0.00    +0.000 A 
ATOM     10  C   UNL     1     113.764 128.005 136.149  0.00  0.00    +0.000 A 
ATOM     11  C   UNL     1     113.307 129.382 136.108  0.00  0.00    +0.000 A 
ATOM     12  C   UNL     1     112.340 129.869 137.042  0.00  0.00    +0.000 A 
ATOM     13  C   UNL     1     112.840 129.998 136.399  0.00  0.00    +0.000 A 
BRANCH  12  16
ATOM     14  O   UNL     1     111.223 131.296 139.251  0.00  0.00    +0.000 OA
ATOM     15  O   UNL     1     110.475 132.330 138.205  0.00  0.00    +0.000 OA
ATOM     16  C   UNL     1     111.874 130.484 137.333  0.00  0.00    +0.000 A 
ATOM     17  C   UNL     1     111.782 130.582 138.146  0.00  0.00    +0.000 A 
ATOM     18  C   UNL     1     111.500 131.001 136.809  0.00  0.00    +0.000 A 
ATOM     19  C   UNL     1     111.316 131.198 138.438  0.00  0.00    +0.000 A 
ATOM     20  C   UNL     1     111.034 131.616 137.101  0.00  0.00    +0.000 A 
ATOM     21  C   UNL     1     110.942 131.715 137.914  0.00  0.00    +0.000 A 
ENDBRANCH  12  16
ENDBRANCH   1   5
BRANCH   1  30
ATOM     22  O   UNL     1     112.091 125.872 136.741  0.00  0.00    +0.000 OA
ATOM     23  O   UNL     1     111.620 123.867 136.018  0.00  0.00    +0.000 OA
ATOM     24  O   UNL     1     113.014 123.578 136.852  0.00  0.00    +0.000 OA
ATOM     25  O   UNL     1     113.793 124.818 137.612  0.00  0.00    +0.000 OA
ATOM     26  C   UNL     1     112.009 124.488 136.398  0.00  0.00    +0.000 C 
ATOM     27  C   UNL     1     112.706 124.343 136.815  0.00  0.00    +0.000 C 
ATOM     28  C   UNL     1     111.701 125.252 136.361  0.00  0.00    +0.000 C 
ATOM     29  C   UNL     1     113.095 124.963 137.195  0.00  0.00    +0.000 C 
ATOM     30  C   UNL     1     112.788 125.728 137.158  0.00  0.00    +0.000 C 
BRANCH  28  31
ATOM     31  C   UNL     1     111.005 125.396 135.944  0.00  0.00    +0.000 C 
BRANCH  31  32
ATOM     32  O   UNL     1     110.669 126.150 135.948  0.00  0.00    +0.000 OA
BRANCH  32  34
ATOM     33  O   UNL     1     109.707 125.739 134.976  0.00  0.00    +0.000 OA
ATOM     34  C   UNL     1     110.064 126.336 135.420  0.00  0.00    +0.000 C 
BRANCH  34  36
ATOM     35  O   UNL     1     109.067 129.463 135.079  0.00  0.00    +0.000 OA
ATOM     36  C   UNL     1     109.814 127.118 135.336  0.00  0.00    +0.000 A 
ATOM     37  C   UNL     1     110.120 127.584 134.728  0.00  0.00    +0.000 A 
ATOM     38  C   UNL     1     109.259 127.433 135.858  0.00  0.00    +0.000 A 
ATOM     39  C   UNL     1     109.871 128.366 134.642  0.00  0.00    +0.000 A 
ATOM     40  C   UNL     1     109.010 128.214 135.772  0.00  0.00    +0.000 A 
ATOM     41  C   UNL     1     109.316 128.680 135.165  0.00  0.00    +0.000 A 
ENDBRANCH  34  36
ENDBRANCH  32  34
ENDBRANCH  31  32
ENDBRANCH  28  31
ENDBRANCH   1  30
TORSDOF 7
ENDMDL
MODEL 5
REMARK VINA RESULT:      -9.9      1.679      2.437
REMARK  Name = 12305632
REMARK  7 active torsions:
REMARK  status: ('A' for Active; 'I' for Inactive)
REMARK    1  A    between atoms: O_3  and  C_18
REMARK    2  A    between atoms: O_3  and  C_20
REMARK    3  A    between atoms: O_6  and  C_19
REMARK    4  A    between atoms: O_6  and  C_23
REMARK    5  A    between atoms: C_16  and  C_19
REMARK    6  A    between atoms: C_23  and  C_27
REMARK    7  A    between atoms: C_29  and  C_31
REMARK                            x       y       z     vdW  Elec       q    Type
REMARK                         _______ _______ _______ _____ _____    ______ ____
ROOT
ATOM      1  O   UNL     1     110.884 130.379 136.137  0.00  0.00    +0.000 OA
ENDROOT
BRANCH   1   5
ATOM      2  O   UNL     1     112.337 128.619 137.947  0.00  0.00    +0.000 OA
ATOM      3  O   UNL     1     113.024 128.658 135.141  0.00  0.00    +0.000 OA
ATOM      4  O   UNL     1     113.722 127.799 136.067  0.00  0.00    +0.000 OA
ATOM      5  C   UNL     1     111.469 129.812 136.269  0.00  0.00    +0.000 A 
ATOM      6  C   UNL     1     111.602 129.502 137.059  0.00  0.00    +0.000 A 
ATOM      7  C   UNL     1     111.950 129.527 135.615  0.00  0.00    +0.000 A 
ATOM      8  C   UNL     1     112.214 128.913 137.186  0.00  0.00    +0.000 A 
ATOM      9  C   UNL     1     112.675 128.640 136.558  0.00  0.00    +0.000 A 
ATOM     10  C   UNL     1     112.557 128.937 135.761  0.00  0.00    +0.000 A 
ATOM     11  C   UNL     1     113.260 128.073 136.694  0.00  0.00    +0.000 A 
ATOM     12  C   UNL     1     112.921 128.052 138.082  0.00  0.00    +0.000 A 
ATOM     13  C   UNL     1     113.383 127.779 137.455  0.00  0.00    +0.000 A 
BRANCH  12  16
ATOM     14  O   UNL     1     113.967 128.380 140.721  0.00  0.00    +0.000 OA
ATOM     15  O   UNL     1     113.414 126.879 141.126  0.00  0.00    +0.000 OA
ATOM     16  C   UNL     1     113.044 127.759 138.843  0.00  0.00    +0.000 A 
ATOM     17  C   UNL     1     113.444 128.216 139.401  0.00  0.00    +0.000 A 
ATOM     18  C   UNL     1     112.768 127.008 139.045  0.00  0.00    +0.000 A 
ATOM     19  C   UNL     1     113.567 127.923 140.163  0.00  0.00    +0.000 A 
ATOM     20  C   UNL     1     112.891 126.716 139.806  0.00  0.00    +0.000 A 
ATOM     21  C   UNL     1     113.291 127.172 140.365  0.00  0.00    +0.000 A 
ENDBRANCH  12  16
ENDBRANCH   1   5
BRANCH   1  30
ATOM     22  O   UNL     1     109.884 129.384 135.909  0.00  0.00    +0.000 OA
ATOM     23  O   UNL     1     107.709 129.484 136.059  0.00  0.00    +0.000 OA
ATOM     24  O   UNL     1     108.121 131.026 136.477  0.00  0.00    +0.000 OA
ATOM     25  O   UNL     1     109.709 131.473 136.516  0.00  0.00    +0.000 OA
ATOM     26  C   UNL     1     108.502 129.707 136.079  0.00  0.00    +0.000 C 
ATOM     27  C   UNL     1     108.709 130.479 136.288  0.00  0.00    +0.000 C 
ATOM     28  C   UNL     1     109.090 129.159 135.890  0.00  0.00    +0.000 C 
ATOM     29  C   UNL     1     109.503 130.702 136.307  0.00  0.00    +0.000 C 
ATOM     30  C   UNL     1     110.090 130.154 136.118  0.00  0.00    +0.000 C 
BRANCH  28  31
ATOM     31  C   UNL     1     108.884 128.389 135.681  0.00  0.00    +0.000 C 
BRANCH  31  32
ATOM     32  O   UNL     1     109.286 127.749 136.013  0.00  0.00    +0.000 OA
BRANCH  32  34
ATOM     33  O   UNL     1     108.469 126.801 135.326  0.00  0.00    +0.000 OA
ATOM     34  C   UNL     1     109.171 126.990 135.714  0.00  0.00    +0.000 C 
BRANCH  34  36
ATOM     35  O   UNL     1     111.524 124.703 136.072  0.00  0.00    +0.000 OA
ATOM     36  C   UNL     1     109.760 126.418 135.803  0.00  0.00    +0.000 A 
ATOM     37  C   UNL     1     109.943 126.128 136.554  0.00  0.00    +0.000 A 
ATOM     38  C   UNL     1     110.164 126.136 135.143  0.00  0.00    +0.000 A 
ATOM     39  C   UNL     1     110.531 125.556 136.644  0.00  0.00    +0.000 A 
ATOM     40  C   UNL     1     110.752 125.564 135.232  0.00  0.00    +0.000 A 
ATOM     41  C   UNL     1     110.935 125.275 135.982  0.00  0.00    +0.000 A 
ENDBRANCH  34  36
ENDBRANCH  32  34
ENDBRANCH  31  32
ENDBRANCH  28  31
ENDBRANCH   1  30
TORSDOF 7
ENDMDL
MODEL 6
REMARK VINA RESULT:      -9.9      1.255      1.950
REMARK  Name = 12305632
REMARK  7 active torsions:
REMARK  status: ('A' for Active; 'I' for Inactive)
REMARK    1  A    between atoms: O_3  and  C_18
REMARK    2  A    between atoms: O_3  and  C_20
REMARK    3  A    between atoms: O_6  and  C_19
REMARK    4  A    between atoms: O_6  and  C_23
REMARK    5  A    between atoms: C_16  and  C_19
REMARK    6  A    between atoms: C_23  and  C_27
REMARK    7  A    between atoms: C_29  and  C_31
REMARK                            x       y       z     vdW  Elec       q    Type
REMARK                         _______ _______ _______ _____ _____    ______ ____
ROOT
ATOM      1  O   UNL     1     110.915 130.656 136.080  0.00  0.00    +0.000 OA
ENDROOT
BRANCH   1   5
ATOM      2  O   UNL     1     112.593 128.382 136.785  0.00  0.00    +0.000 OA
ATOM      3  O   UNL     1     111.918 130.335 138.805  0.00  0.00    +0.000 OA
ATOM      4  O   UNL     1     112.747 129.196 139.117  0.00  0.00    +0.000 OA
ATOM      5  C   UNL     1     111.351 130.234 136.639  0.00  0.00    +0.000 A 
ATOM      6  C   UNL     1     111.755 129.510 136.417  0.00  0.00    +0.000 A 
ATOM      7  C   UNL     1     111.404 130.517 137.450  0.00  0.00    +0.000 A 
ATOM      8  C   UNL     1     112.207 129.078 137.006  0.00  0.00    +0.000 A 
ATOM      9  C   UNL     1     112.258 129.349 137.783  0.00  0.00    +0.000 A 
ATOM     10  C   UNL     1     111.861 130.071 138.025  0.00  0.00    +0.000 A 
ATOM     11  C   UNL     1     112.695 128.925 138.339  0.00  0.00    +0.000 A 
ATOM     12  C   UNL     1     113.030 127.958 137.342  0.00  0.00    +0.000 A 
ATOM     13  C   UNL     1     113.081 128.230 138.119  0.00  0.00    +0.000 A 
BRANCH  12  16
ATOM     14  O   UNL     1     113.738 125.244 137.883  0.00  0.00    +0.000 OA
ATOM     15  O   UNL     1     114.573 125.177 136.462  0.00  0.00    +0.000 OA
ATOM     16  C   UNL     1     113.416 127.263 137.122  0.00  0.00    +0.000 A 
ATOM     17  C   UNL     1     113.384 126.601 137.613  0.00  0.00    +0.000 A 
ATOM     18  C   UNL     1     113.834 127.230 136.411  0.00  0.00    +0.000 A 
ATOM     19  C   UNL     1     113.770 125.905 137.393  0.00  0.00    +0.000 A 
ATOM     20  C   UNL     1     114.219 126.535 136.191  0.00  0.00    +0.000 A 
ATOM     21  C   UNL     1     114.187 125.873 136.682  0.00  0.00    +0.000 A 
ENDBRANCH  12  16
ENDBRANCH   1   5
BRANCH   1  30
ATOM     22  O   UNL     1     109.790 129.777 136.006  0.00  0.00    +0.000 OA
ATOM     23  O   UNL     1     107.655 130.200 135.846  0.00  0.00    +0.000 OA
ATOM     24  O   UNL     1     108.274 131.729 135.877  0.00  0.00    +0.000 OA
ATOM     25  O   UNL     1     109.904 131.957 135.994  0.00  0.00    +0.000 OA
ATOM     26  C   UNL     1     108.470 130.313 135.905  0.00  0.00    +0.000 C 
ATOM     27  C   UNL     1     108.779 131.078 135.920  0.00  0.00    +0.000 C 
ATOM     28  C   UNL     1     108.975 129.663 135.948  0.00  0.00    +0.000 C 
ATOM     29  C   UNL     1     109.594 131.192 135.978  0.00  0.00    +0.000 C 
ATOM     30  C   UNL     1     110.100 130.541 136.022  0.00  0.00    +0.000 C 
BRANCH  28  31
ATOM     31  C   UNL     1     108.666 128.899 135.933  0.00  0.00    +0.000 C 
BRANCH  31  32
ATOM     32  O   UNL     1     109.145 128.263 135.717  0.00  0.00    +0.000 OA
BRANCH  32  34
ATOM     33  O   UNL     1     108.078 127.350 135.978  0.00  0.00    +0.000 OA
ATOM     34  C   UNL     1     108.874 127.490 135.812  0.00  0.00    +0.000 C 
BRANCH  34  36
ATOM     35  O   UNL     1     110.969 124.955 135.535  0.00  0.00    +0.000 OA
ATOM     36  C   UNL     1     109.398 126.856 135.742  0.00  0.00    +0.000 A 
ATOM     37  C   UNL     1     109.641 126.447 136.416  0.00  0.00    +0.000 A 
ATOM     38  C   UNL     1     109.678 126.632 135.000  0.00  0.00    +0.000 A 
ATOM     39  C   UNL     1     110.165 125.813 136.347  0.00  0.00    +0.000 A 
ATOM     40  C   UNL     1     110.201 125.999 134.930  0.00  0.00    +0.000 A 
ATOM     41  C   UNL     1     110.445 125.590 135.604  0.00  0.00    +0.000 A 
ENDBRANCH  34  36
ENDBRANCH  32  34
ENDBRANCH  31  32
ENDBRANCH  28  31
ENDBRANCH   1  30
TORSDOF 7
ENDMDL
MODEL 7
REMARK VINA RESULT:      -9.9      1.552      3.662
REMARK  Name = 12305632
REMARK  7 active torsions:
REMARK  status: ('A' for Active; 'I' for Inactive)
REMARK    1  A    between atoms: O_3  and  C_18
REMARK    2  A    between atoms: O_3  and  C_20
REMARK    3  A    between atoms: O_6  and  C_19
REMARK    4  A    between atoms: O_6  and  C_23
REMARK    5  A    between atoms: C_16  and  C_19
REMARK    6  A    between atoms: C_23  and  C_27
REMARK    7  A    between atoms: C_29  and  C_31
REMARK                            x       y       z     vdW  Elec       q    Type
REMARK                         _______ _______ _______ _____ _____    ______ ____
ROOT
ATOM      1  O   UNL     1     109.403 127.591 136.114  0.00  0.00    +0.000 OA
ENDROOT
BRANCH   1   5
ATOM      2  O   UNL     1     111.683 126.042 137.053  0.00  0.00    +0.000 OA
ATOM      3  O   UNL     1     109.297 126.192 138.676  0.00  0.00    +0.000 OA
ATOM      4  O   UNL     1     110.446 125.434 139.108  0.00  0.00    +0.000 OA
ATOM      5  C   UNL     1     109.756 127.111 136.685  0.00  0.00    +0.000 A 
ATOM      6  C   UNL     1     110.555 126.819 136.570  0.00  0.00    +0.000 A 
ATOM      7  C   UNL     1     109.326 126.900 137.399  0.00  0.00    +0.000 A 
ATOM      8  C   UNL     1     110.915 126.319 137.169  0.00  0.00    +0.000 A 
ATOM      9  C   UNL     1     110.502 126.117 137.854  0.00  0.00    +0.000 A 
ATOM     10  C   UNL     1     109.702 126.400 137.987  0.00  0.00    +0.000 A 
ATOM     11  C   UNL     1     110.858 125.637 138.423  0.00  0.00    +0.000 A 
ATOM     12  C   UNL     1     112.039 125.561 137.621  0.00  0.00    +0.000 A 
ATOM     13  C   UNL     1     111.627 125.359 138.306  0.00  0.00    +0.000 A 
BRANCH  12  16
ATOM     14  O   UNL     1     114.826 125.658 138.245  0.00  0.00    +0.000 OA
ATOM     15  O   UNL     1     115.112 124.451 137.157  0.00  0.00    +0.000 OA
ATOM     16  C   UNL     1     112.807 125.284 137.505  0.00  0.00    +0.000 A 
ATOM     17  C   UNL     1     113.432 125.610 137.933  0.00  0.00    +0.000 A 
ATOM     18  C   UNL     1     112.950 124.680 136.961  0.00  0.00    +0.000 A 
ATOM     19  C   UNL     1     114.201 125.332 137.817  0.00  0.00    +0.000 A 
ATOM     20  C   UNL     1     113.718 124.403 136.845  0.00  0.00    +0.000 A 
ATOM     21  C   UNL     1     114.343 124.729 137.273  0.00  0.00    +0.000 A 
ENDBRANCH  12  16
ENDBRANCH   1   5
BRANCH   1  30
ATOM     22  O   UNL     1     109.947 128.816 136.611  0.00  0.00    +0.000 OA
ATOM     23  O   UNL     1     109.129 130.839 136.631  0.00  0.00    +0.000 OA
ATOM     24  O   UNL     1     107.903 130.015 135.896  0.00  0.00    +0.000 OA
ATOM     25  O   UNL     1     108.040 128.391 135.637  0.00  0.00    +0.000 OA
ATOM     26  C   UNL     1     109.198 130.027 136.502  0.00  0.00    +0.000 C 
ATOM     27  C   UNL     1     108.585 129.615 136.134  0.00  0.00    +0.000 C 
ATOM     28  C   UNL     1     109.879 129.628 136.740  0.00  0.00    +0.000 C 
ATOM     29  C   UNL     1     108.654 128.803 136.005  0.00  0.00    +0.000 C 
ATOM     30  C   UNL     1     109.335 128.403 136.244  0.00  0.00    +0.000 C 
BRANCH  28  31
ATOM     31  C   UNL     1     110.492 130.040 137.108  0.00  0.00    +0.000 C 
BRANCH  31  32
ATOM     32  O   UNL     1     110.833 129.744 137.798  0.00  0.00    +0.000 OA
BRANCH  32  34
ATOM     33  O   UNL     1     111.832 130.765 137.791  0.00  0.00    +0.000 OA
ATOM     34  C   UNL     1     111.562 130.031 138.054  0.00  0.00    +0.000 C 
BRANCH  34  36
ATOM     35  O   UNL     1     113.407 128.244 140.126  0.00  0.00    +0.000 OA
ATOM     36  C   UNL     1     112.023 129.584 138.573  0.00  0.00    +0.000 A 
ATOM     37  C   UNL     1     112.789 129.364 138.358  0.00  0.00    +0.000 A 
ATOM     38  C   UNL     1     111.719 129.357 139.305  0.00  0.00    +0.000 A 
ATOM     39  C   UNL     1     113.251 128.918 138.876  0.00  0.00    +0.000 A 
ATOM     40  C   UNL     1     112.180 128.911 139.822  0.00  0.00    +0.000 A 
ATOM     41  C   UNL     1     112.946 128.691 139.608  0.00  0.00    +0.000 A 
ENDBRANCH  34  36
ENDBRANCH  32  34
ENDBRANCH  31  32
ENDBRANCH  28  31
ENDBRANCH   1  30
TORSDOF 7
ENDMDL
MODEL 8
REMARK VINA RESULT:      -9.8      2.211      5.006
REMARK  Name = 12305632
REMARK  7 active torsions:
REMARK  status: ('A' for Active; 'I' for Inactive)
REMARK    1  A    between atoms: O_3  and  C_18
REMARK    2  A    between atoms: O_3  and  C_20
REMARK    3  A    between atoms: O_6  and  C_19
REMARK    4  A    between atoms: O_6  and  C_23
REMARK    5  A    between atoms: C_16  and  C_19
REMARK    6  A    between atoms: C_23  and  C_27
REMARK    7  A    between atoms: C_29  and  C_31
REMARK                            x       y       z     vdW  Elec       q    Type
REMARK                         _______ _______ _______ _____ _____    ______ ____
ROOT
ATOM      1  O   UNL     1     109.332 126.696 137.728  0.00  0.00    +0.000 OA
ENDROOT
BRANCH   1   5
ATOM      2  O   UNL     1     111.568 128.119 138.936  0.00  0.00    +0.000 OA
ATOM      3  O   UNL     1     110.806 125.528 139.964  0.00  0.00    +0.000 OA
ATOM      4  O   UNL     1     111.908 126.263 140.537  0.00  0.00    +0.000 OA
ATOM      5  C   UNL     1     109.935 126.736 138.289  0.00  0.00    +0.000 A 
ATOM      6  C   UNL     1     110.451 127.423 138.322  0.00  0.00    +0.000 A 
ATOM      7  C   UNL     1     110.054 126.091 138.846  0.00  0.00    +0.000 A 
ATOM      8  C   UNL     1     111.076 127.456 138.909  0.00  0.00    +0.000 A 
ATOM      9  C   UNL     1     111.190 126.837 139.443  0.00  0.00    +0.000 A 
ATOM     10  C   UNL     1     110.685 126.143 139.426  0.00  0.00    +0.000 A 
ATOM     11  C   UNL     1     111.794 126.882 140.002  0.00  0.00    +0.000 A 
ATOM     12  C   UNL     1     112.173 128.163 139.495  0.00  0.00    +0.000 A 
ATOM     13  C   UNL     1     112.286 127.544 140.029  0.00  0.00    +0.000 A 
BRANCH  12  16
ATOM     14  O   UNL     1     112.764 130.766 140.514  0.00  0.00    +0.000 OA
ATOM     15  O   UNL     1     114.137 130.812 139.601  0.00  0.00    +0.000 OA
ATOM     16  C   UNL     1     112.664 128.825 139.521  0.00  0.00    +0.000 A 
ATOM     17  C   UNL     1     112.468 129.464 140.005  0.00  0.00    +0.000 A 
ATOM     18  C   UNL     1     113.351 128.848 139.064  0.00  0.00    +0.000 A 
ATOM     19  C   UNL     1     112.959 130.127 140.031  0.00  0.00    +0.000 A 
ATOM     20  C   UNL     1     113.841 129.510 139.091  0.00  0.00    +0.000 A 
ATOM     21  C   UNL     1     113.646 130.150 139.574  0.00  0.00    +0.000 A 
ENDBRANCH  12  16
ENDBRANCH   1   5
BRANCH   1  30
ATOM     22  O   UNL     1     110.129 125.971 136.790  0.00  0.00    +0.000 OA
ATOM     23  O   UNL     1     110.028 125.863 134.612  0.00  0.00    +0.000 OA
ATOM     24  O   UNL     1     108.782 126.896 134.931  0.00  0.00    +0.000 OA
ATOM     25  O   UNL     1     108.433 127.312 136.489  0.00  0.00    +0.000 OA
ATOM     26  C   UNL     1     109.855 126.070 135.391  0.00  0.00    +0.000 C 
ATOM     27  C   UNL     1     109.231 126.587 135.551  0.00  0.00    +0.000 C 
ATOM     28  C   UNL     1     110.304 125.762 136.011  0.00  0.00    +0.000 C 
ATOM     29  C   UNL     1     109.057 126.795 136.330  0.00  0.00    +0.000 C 
ATOM     30  C   UNL     1     109.506 126.487 136.949  0.00  0.00    +0.000 C 
BRANCH  28  31
ATOM     31  C   UNL     1     110.926 125.246 135.851  0.00  0.00    +0.000 C 
BRANCH  31  32
ATOM     32  O   UNL     1     111.694 125.439 136.085  0.00  0.00    +0.000 OA
BRANCH  32  34
ATOM     33  O   UNL     1     112.132 124.095 135.882  0.00  0.00    +0.000 OA
ATOM     34  C   UNL     1     112.250 124.844 136.209  0.00  0.00    +0.000 C 
BRANCH  34  36
ATOM     35  O   UNL     1     114.947 125.448 138.012  0.00  0.00    +0.000 OA
ATOM     36  C   UNL     1     112.925 124.995 136.659  0.00  0.00    +0.000 A 
ATOM     37  C   UNL     1     113.172 124.450 137.227  0.00  0.00    +0.000 A 
ATOM     38  C   UNL     1     113.351 125.691 136.543  0.00  0.00    +0.000 A 
ATOM     39  C   UNL     1     113.846 124.600 137.678  0.00  0.00    +0.000 A 
ATOM     40  C   UNL     1     114.025 125.842 136.993  0.00  0.00    +0.000 A 
ATOM     41  C   UNL     1     114.273 125.297 137.560  0.00  0.00    +0.000 A 
ENDBRANCH  34  36
ENDBRANCH  32  34
ENDBRANCH  31  32
ENDBRANCH  28  31
ENDBRANCH   1  30
TORSDOF 7
ENDMDL
MODEL 9
REMARK VINA RESULT:      -9.8      1.693      3.760
REMARK  Name = 12305632
REMARK  7 active torsions:
REMARK  status: ('A' for Active; 'I' for Inactive)
REMARK    1  A    between atoms: O_3  and  C_18
REMARK    2  A    between atoms: O_3  and  C_20
REMARK    3  A    between atoms: O_6  and  C_19
REMARK    4  A    between atoms: O_6  and  C_23
REMARK    5  A    between atoms: C_16  and  C_19
REMARK    6  A    between atoms: C_23  and  C_27
REMARK    7  A    between atoms: C_29  and  C_31
REMARK                            x       y       z     vdW  Elec       q    Type
REMARK                         _______ _______ _______ _____ _____    ______ ____
ROOT
ATOM      1  O   UNL     1     113.030 129.391 134.883  0.00  0.00    +0.000 OA
ENDROOT
BRANCH   1   5
ATOM      2  O   UNL     1     111.907 126.922 135.943  0.00  0.00    +0.000 OA
ATOM      3  O   UNL     1     110.179 128.817 134.612  0.00  0.00    +0.000 OA
ATOM      4  O   UNL     1     109.658 127.583 135.150  0.00  0.00    +0.000 OA
ATOM      5  C   UNL     1     112.383 128.896 135.011  0.00  0.00    +0.000 A 
ATOM      6  C   UNL     1     112.484 128.148 135.421  0.00  0.00    +0.000 A 
ATOM      7  C   UNL     1     111.601 129.126 134.735  0.00  0.00    +0.000 A 
ATOM      8  C   UNL     1     111.803 127.639 135.549  0.00  0.00    +0.000 A 
ATOM      9  C   UNL     1     111.054 127.860 135.285  0.00  0.00    +0.000 A 
ATOM     10  C   UNL     1     110.933 128.605 134.873  0.00  0.00    +0.000 A 
ATOM     11  C   UNL     1     110.408 127.363 135.414  0.00  0.00    +0.000 A 
ATOM     12  C   UNL     1     111.261 126.425 136.073  0.00  0.00    +0.000 A 
ATOM     13  C   UNL     1     110.512 126.646 135.808  0.00  0.00    +0.000 A 
BRANCH  12  16
ATOM     14  O   UNL     1     111.228 124.903 138.491  0.00  0.00    +0.000 OA
ATOM     15  O   UNL     1     111.675 123.556 137.650  0.00  0.00    +0.000 OA
ATOM     16  C   UNL     1     111.365 125.707 136.467  0.00  0.00    +0.000 A 
ATOM     17  C   UNL     1     111.245 125.665 137.282  0.00  0.00    +0.000 A 
ATOM     18  C   UNL     1     111.588 125.034 136.046  0.00  0.00    +0.000 A 
ATOM     19  C   UNL     1     111.348 124.946 137.677  0.00  0.00    +0.000 A 
ATOM     20  C   UNL     1     111.691 124.317 136.441  0.00  0.00    +0.000 A 
ATOM     21  C   UNL     1     111.571 124.273 137.256  0.00  0.00    +0.000 A 
ENDBRANCH  12  16
ENDBRANCH   1   5
BRANCH   1  30
ATOM     22  O   UNL     1     112.895 130.043 136.147  0.00  0.00    +0.000 OA
ATOM     23  O   UNL     1     114.373 131.037 137.408  0.00  0.00    +0.000 OA
ATOM     24  O   UNL     1     115.316 130.556 136.143  0.00  0.00    +0.000 OA
ATOM     25  O   UNL     1     114.645 129.732 134.880  0.00  0.00    +0.000 OA
ATOM     26  C   UNL     1     114.037 130.626 136.777  0.00  0.00    +0.000 C 
ATOM     27  C   UNL     1     114.509 130.385 136.144  0.00  0.00    +0.000 C 
ATOM     28  C   UNL     1     113.230 130.455 136.779  0.00  0.00    +0.000 C 
ATOM     29  C   UNL     1     114.173 129.973 135.513  0.00  0.00    +0.000 C 
ATOM     30  C   UNL     1     113.366 129.803 135.515  0.00  0.00    +0.000 C 
BRANCH  28  31
ATOM     31  C   UNL     1     112.759 130.696 137.411  0.00  0.00    +0.000 C 
BRANCH  31  32
ATOM     32  O   UNL     1     112.320 130.140 137.835  0.00  0.00    +0.000 OA
BRANCH  32  34
ATOM     33  O   UNL     1     111.660 131.155 138.593  0.00  0.00    +0.000 OA
ATOM     34  C   UNL     1     111.685 130.384 138.301  0.00  0.00    +0.000 C 
BRANCH  34  36
ATOM     35  O   UNL     1     109.246 128.275 139.004  0.00  0.00    +0.000 OA
ATOM     36  C   UNL     1     111.075 129.857 138.476  0.00  0.00    +0.000 A 
ATOM     37  C   UNL     1     111.230 129.180 138.922  0.00  0.00    +0.000 A 
ATOM     38  C   UNL     1     110.310 130.006 138.207  0.00  0.00    +0.000 A 
ATOM     39  C   UNL     1     110.621 128.653 139.098  0.00  0.00    +0.000 A 
ATOM     40  C   UNL     1     109.701 129.480 138.383  0.00  0.00    +0.000 A 
ATOM     41  C   UNL     1     109.856 128.803 138.828  0.00  0.00    +0.000 A 
ENDBRANCH  34  36
ENDBRANCH  32  34
ENDBRANCH  31  32
ENDBRANCH  28  31
ENDBRANCH   1  30
TORSDOF 7
ENDMDL
MODEL 10
REMARK VINA RESULT:      -9.8      1.723      3.179
REMARK  Name = 12305632
REMARK  7 active torsions:
REMARK  status: ('A' for Active; 'I' for Inactive)
REMARK    1  A    between atoms: O_3  and  C_18
REMARK    2  A    between atoms: O_3  and  C_20
REMARK    3  A    between atoms: O_6  and  C_19
REMARK    4  A    between atoms: O_6  and  C_23
REMARK    5  A    between atoms: C_16  and  C_19
REMARK    6  A    between atoms: C_23  and  C_27
REMARK    7  A    between atoms: C_29  and  C_31
REMARK                            x       y       z     vdW  Elec       q    Type
REMARK                         _______ _______ _______ _____ _____    ______ ____
ROOT
ATOM      1  O   UNL     1     110.483 128.806 135.262  0.00  0.00    +0.000 OA
ENDROOT
BRANCH   1   5
ATOM      2  O   UNL     1     112.220 126.676 136.225  0.00  0.00    +0.000 OA
ATOM      3  O   UNL     1     109.660 126.010 135.062  0.00  0.00    +0.000 OA
ATOM      4  O   UNL     1     110.547 124.982 135.550  0.00  0.00    +0.000 OA
ATOM      5  C   UNL     1     110.631 128.004 135.386  0.00  0.00    +0.000 A 
ATOM      6  C   UNL     1     111.366 127.750 135.750  0.00  0.00    +0.000 A 
ATOM      7  C   UNL     1     110.049 127.415 135.151  0.00  0.00    +0.000 A 
ATOM      8  C   UNL     1     111.511 126.913 135.874  0.00  0.00    +0.000 A 
ATOM      9  C   UNL     1     110.953 126.348 135.649  0.00  0.00    +0.000 A 
ATOM     10  C   UNL     1     110.212 126.582 135.284  0.00  0.00    +0.000 A 
ATOM     11  C   UNL     1     111.105 125.547 135.775  0.00  0.00    +0.000 A 
ATOM     12  C   UNL     1     112.371 125.874 136.350  0.00  0.00    +0.000 A 
ATOM     13  C   UNL     1     111.813 125.310 136.125  0.00  0.00    +0.000 A 
BRANCH  12  16
ATOM     14  O   UNL     1     114.105 125.797 138.619  0.00  0.00    +0.000 OA
ATOM     15  O   UNL     1     115.205 124.926 137.751  0.00  0.00    +0.000 OA
ATOM     16  C   UNL     1     113.080 125.637 136.700  0.00  0.00    +0.000 A 
ATOM     17  C   UNL     1     113.238 125.836 137.485  0.00  0.00    +0.000 A 
ATOM     18  C   UNL     1     113.629 125.202 136.265  0.00  0.00    +0.000 A 
ATOM     19  C   UNL     1     113.947 125.599 137.835  0.00  0.00    +0.000 A 
ATOM     20  C   UNL     1     114.337 124.965 136.616  0.00  0.00    +0.000 A 
ATOM     21  C   UNL     1     114.496 125.163 137.401  0.00  0.00    +0.000 A 
ENDBRANCH  12  16
ENDBRANCH   1   5
BRANCH   1  30
ATOM     22  O   UNL     1     109.929 129.049 136.557  0.00  0.00    +0.000 OA
ATOM     23  O   UNL     1     108.349 130.409 137.203  0.00  0.00    +0.000 OA
ATOM     24  O   UNL     1     108.389 130.725 135.584  0.00  0.00    +0.000 OA
ATOM     25  O   UNL     1     109.457 129.923 134.614  0.00  0.00    +0.000 OA
ATOM     26  C   UNL     1     108.882 130.008 136.719  0.00  0.00    +0.000 C 
ATOM     27  C   UNL     1     108.903 130.166 135.908  0.00  0.00    +0.000 C 
ATOM     28  C   UNL     1     109.396 129.449 137.043  0.00  0.00    +0.000 C 
ATOM     29  C   UNL     1     109.436 129.765 135.424  0.00  0.00    +0.000 C 
ATOM     30  C   UNL     1     109.950 129.207 135.748  0.00  0.00    +0.000 C 
BRANCH  28  31
ATOM     31  C   UNL     1     109.375 129.291 137.852  0.00  0.00    +0.000 C 
BRANCH  31  32
ATOM     32  O   UNL     1     109.647 128.567 138.138  0.00  0.00    +0.000 OA
BRANCH  32  34
ATOM     33  O   UNL     1     109.261 128.937 139.463  0.00  0.00    +0.000 OA
ATOM     34  C   UNL     1     109.638 128.414 138.948  0.00  0.00    +0.000 C 
BRANCH  34  36
ATOM     35  O   UNL     1     111.108 125.708 140.135  0.00  0.00    +0.000 OA
ATOM     36  C   UNL     1     110.006 127.738 139.245  0.00  0.00    +0.000 A 
ATOM     37  C   UNL     1     109.649 127.000 139.152  0.00  0.00    +0.000 A 
ATOM     38  C   UNL     1     110.730 127.799 139.636  0.00  0.00    +0.000 A 
ATOM     39  C   UNL     1     110.016 126.323 139.448  0.00  0.00    +0.000 A 
ATOM     40  C   UNL     1     111.097 127.123 139.932  0.00  0.00    +0.000 A 
ATOM     41  C   UNL     1     110.740 126.385 139.838  0.00  0.00    +0.000 A 
ENDBRANCH  34  36
ENDBRANCH  32  34
ENDBRANCH  31  32
ENDBRANCH  28  31
ENDBRANCH   1  30
TORSDOF 7
ENDMDL
