MODEL 1
REMARK VINA RESULT:     -11.1      0.000      0.000
REMARK  Name = 131752732
REMARK  9 active torsions:
REMARK  status: ('A' for Active; 'I' for Inactive)
REMARK    1  A    between atoms: O_1  and  C_21
REMARK    2  A    between atoms: O_1  and  C_26
REMARK    3  A    between atoms: O_3  and  C_24
REMARK    4  A    between atoms: O_3  and  C_34
REMARK    5  A    between atoms: O_13  and  C_36
REMARK    6  A    between atoms: O_13  and  C_39
REMARK    7  A    between atoms: O_19  and  C_51
REMARK    8  A    between atoms: C_29  and  C_34
REMARK    9  A    between atoms: C_40  and  C_43
REMARK                            x       y       z     vdW  Elec       q    Type
REMARK                         _______ _______ _______ _____ _____    ______ ____
ROOT
ATOM      1  O   UNL     1     113.114 129.386 139.368  0.00  0.00    +0.000 OA
ATOM      2  O   UNL     1     114.313 128.538 140.983  0.00  0.00    +0.000 OA
ATOM      3  O   UNL     1     114.990 130.036 140.846  0.00  0.00    +0.000 OA
ATOM      4  O   UNL     1     114.417 131.101 139.724  0.00  0.00    +0.000 OA
ATOM      5  C   UNL     1     113.400 128.854 139.929  0.00  0.00    +0.000 C 
ATOM      6  C   UNL     1     114.026 129.070 140.422  0.00  0.00    +0.000 C 
ATOM      7  C   UNL     1     114.364 129.819 140.353  0.00  0.00    +0.000 C 
ATOM      8  C   UNL     1     114.078 130.352 139.792  0.00  0.00    +0.000 C 
ATOM      9  C   UNL     1     113.453 130.135 139.300  0.00  0.00    +0.000 C 
ENDROOT
BRANCH   9  10
ATOM     10  O   UNL     1     113.166 130.668 138.739  0.00  0.00    +0.000 OA
BRANCH  10  15
ATOM     11  O   UNL     1     111.491 130.390 137.367  0.00  0.00    +0.000 OA
ATOM     12  O   UNL     1     111.889 130.772 139.780  0.00  0.00    +0.000 OA
ATOM     13  O   UNL     1     110.471 130.753 140.046  0.00  0.00    +0.000 OA
ATOM     14  O   UNL     1     108.616 130.340 137.829  0.00  0.00    +0.000 OA
ATOM     15  C   UNL     1     112.394 130.593 138.455  0.00  0.00    +0.000 A 
ATOM     16  C   UNL     1     112.262 130.466 137.651  0.00  0.00    +0.000 A 
ATOM     17  C   UNL     1     111.757 130.645 138.976  0.00  0.00    +0.000 A 
ATOM     18  C   UNL     1     110.985 130.570 138.691  0.00  0.00    +0.000 A 
ATOM     19  C   UNL     1     110.852 130.442 137.887  0.00  0.00    +0.000 A 
ATOM     20  C   UNL     1     110.329 130.626 139.243  0.00  0.00    +0.000 A 
ATOM     21  C   UNL     1     110.055 130.362 137.579  0.00  0.00    +0.000 A 
ATOM     22  C   UNL     1     109.524 130.548 138.953  0.00  0.00    +0.000 A 
ATOM     23  C   UNL     1     109.385 130.416 138.116  0.00  0.00    +0.000 A 
BRANCH  16  25
ATOM     24  O   UNL     1     114.816 130.255 135.572  0.00  0.00    +0.000 OA
ATOM     25  C   UNL     1     112.900 130.414 137.131  0.00  0.00    +0.000 A 
ATOM     26  C   UNL     1     113.128 129.680 136.830  0.00  0.00    +0.000 A 
ATOM     27  C   UNL     1     113.311 131.094 136.912  0.00  0.00    +0.000 A 
ATOM     28  C   UNL     1     113.766 129.627 136.310  0.00  0.00    +0.000 A 
ATOM     29  C   UNL     1     113.950 131.042 136.392  0.00  0.00    +0.000 A 
ATOM     30  C   UNL     1     114.178 130.308 136.091  0.00  0.00    +0.000 A 
BRANCH  28  31
ATOM     31  O   UNL     1     113.994 128.893 136.009  0.00  0.00    +0.000 OA
ATOM     32  C   UNL     1     113.422 128.354 135.762  0.00  0.00    +0.000 C 
ENDBRANCH  28  31
ENDBRANCH  16  25
ENDBRANCH  10  15
ENDBRANCH   9  10
BRANCH   5  33
ATOM     33  C   UNL     1     113.062 128.104 139.998  0.00  0.00    +0.000 C 
BRANCH  33  34
ATOM     34  O   UNL     1     112.888 127.666 139.321  0.00  0.00    +0.000 OA
BRANCH  34  41
ATOM     35  O   UNL     1     111.619 127.237 139.818  0.00  0.00    +0.000 OA
ATOM     36  O   UNL     1     112.977 126.314 138.379  0.00  0.00    +0.000 OA
ATOM     37  O   UNL     1     110.438 125.456 139.373  0.00  0.00    +0.000 OA
ATOM     38  C   UNL     1     111.707 125.885 138.876  0.00  0.00    +0.000 C 
ATOM     39  C   UNL     1     112.319 126.438 138.864  0.00  0.00    +0.000 C 
ATOM     40  C   UNL     1     111.050 126.008 139.360  0.00  0.00    +0.000 C 
ATOM     41  C   UNL     1     112.275 127.114 139.335  0.00  0.00    +0.000 C 
ATOM     42  C   UNL     1     111.006 126.684 139.831  0.00  0.00    +0.000 C 
ATOM     43  C   UNL     1     110.349 126.808 140.315  0.00  0.00    +0.000 C 
BRANCH  38  44
ATOM     44  O   UNL     1     111.752 125.209 138.405  0.00  0.00    +0.000 OA
BRANCH  44  49
ATOM     45  O   UNL     1     111.023 125.868 137.367  0.00  0.00    +0.000 OA
ATOM     46  O   UNL     1     112.099 123.969 137.374  0.00  0.00    +0.000 OA
ATOM     47  O   UNL     1     111.545 124.008 135.820  0.00  0.00    +0.000 OA
ATOM     48  O   UNL     1     110.643 125.287 135.298  0.00  0.00    +0.000 OA
ATOM     49  C   UNL     1     111.474 125.229 137.628  0.00  0.00    +0.000 C 
ATOM     50  C   UNL     1     111.648 124.609 137.113  0.00  0.00    +0.000 C 
ATOM     51  C   UNL     1     111.371 124.628 136.336  0.00  0.00    +0.000 C 
ATOM     52  C   UNL     1     110.920 125.267 136.076  0.00  0.00    +0.000 C 
ATOM     53  C   UNL     1     110.746 125.888 136.591  0.00  0.00    +0.000 C 
ATOM     54  C   UNL     1     110.295 126.527 136.329  0.00  0.00    +0.000 C 
ENDBRANCH  44  49
ENDBRANCH  38  44
ENDBRANCH  34  41
ENDBRANCH  33  34
ENDBRANCH   5  33
TORSDOF 9
ENDMDL
MODEL 2
REMARK VINA RESULT:     -11.1      1.280      4.961
REMARK  Name = 131752732
REMARK  9 active torsions:
REMARK  status: ('A' for Active; 'I' for Inactive)
REMARK    1  A    between atoms: O_1  and  C_21
REMARK    2  A    between atoms: O_1  and  C_26
REMARK    3  A    between atoms: O_3  and  C_24
REMARK    4  A    between atoms: O_3  and  C_34
REMARK    5  A    between atoms: O_13  and  C_36
REMARK    6  A    between atoms: O_13  and  C_39
REMARK    7  A    between atoms: O_19  and  C_51
REMARK    8  A    between atoms: C_29  and  C_34
REMARK    9  A    between atoms: C_40  and  C_43
REMARK                            x       y       z     vdW  Elec       q    Type
REMARK                         _______ _______ _______ _____ _____    ______ ____
ROOT
ATOM      1  O   UNL     1     111.249 126.794 136.911  0.00  0.00    +0.000 OA
ATOM      2  O   UNL     1     111.212 124.671 137.419  0.00  0.00    +0.000 OA
ATOM      3  O   UNL     1     111.051 124.601 135.778  0.00  0.00    +0.000 OA
ATOM      4  O   UNL     1     111.022 125.993 134.892  0.00  0.00    +0.000 OA
ATOM      5  C   UNL     1     111.263 126.098 137.354  0.00  0.00    +0.000 C 
ATOM      6  C   UNL     1     111.197 125.367 136.976  0.00  0.00    +0.000 C 
ATOM      7  C   UNL     1     111.117 125.333 136.156  0.00  0.00    +0.000 C 
ATOM      8  C   UNL     1     111.102 126.029 135.713  0.00  0.00    +0.000 C 
ATOM      9  C   UNL     1     111.168 126.759 136.090  0.00  0.00    +0.000 C 
ENDROOT
BRANCH   9  10
ATOM     10  O   UNL     1     111.154 127.455 135.647  0.00  0.00    +0.000 OA
BRANCH  10  15
ATOM     11  O   UNL     1     111.821 129.445 136.245  0.00  0.00    +0.000 OA
ATOM     12  O   UNL     1     112.790 127.242 135.667  0.00  0.00    +0.000 OA
ATOM     13  O   UNL     1     114.127 127.745 135.874  0.00  0.00    +0.000 OA
ATOM     14  O   UNL     1     114.490 130.527 136.682  0.00  0.00    +0.000 OA
ATOM     15  C   UNL     1     111.649 128.083 135.850  0.00  0.00    +0.000 A 
ATOM     16  C   UNL     1     111.326 128.818 136.043  0.00  0.00    +0.000 A 
ATOM     17  C   UNL     1     112.467 127.977 135.859  0.00  0.00    +0.000 A 
ATOM     18  C   UNL     1     112.962 128.605 136.062  0.00  0.00    +0.000 A 
ATOM     19  C   UNL     1     112.639 129.340 136.255  0.00  0.00    +0.000 A 
ATOM     20  C   UNL     1     113.812 128.482 136.068  0.00  0.00    +0.000 A 
ATOM     21  C   UNL     1     113.144 130.001 136.467  0.00  0.00    +0.000 A 
ATOM     22  C   UNL     1     114.334 129.133 136.278  0.00  0.00    +0.000 A 
ATOM     23  C   UNL     1     113.997 129.897 136.479  0.00  0.00    +0.000 A 
BRANCH  16  25
ATOM     24  O   UNL     1     108.053 129.240 136.006  0.00  0.00    +0.000 OA
ATOM     25  C   UNL     1     110.508 128.923 136.033  0.00  0.00    +0.000 A 
ATOM     26  C   UNL     1     110.095 129.008 136.742  0.00  0.00    +0.000 A 
ATOM     27  C   UNL     1     110.103 128.944 135.315  0.00  0.00    +0.000 A 
ATOM     28  C   UNL     1     109.277 129.113 136.733  0.00  0.00    +0.000 A 
ATOM     29  C   UNL     1     109.284 129.049 135.305  0.00  0.00    +0.000 A 
ATOM     30  C   UNL     1     108.871 129.134 136.014  0.00  0.00    +0.000 A 
BRANCH  28  31
ATOM     31  O   UNL     1     108.864 129.198 137.442  0.00  0.00    +0.000 OA
ATOM     32  C   UNL     1     109.262 129.430 138.126  0.00  0.00    +0.000 C 
ENDBRANCH  28  31
ENDBRANCH  16  25
ENDBRANCH  10  15
ENDBRANCH   9  10
BRANCH   5  33
ATOM     33  C   UNL     1     111.344 126.132 138.174  0.00  0.00    +0.000 C 
BRANCH  33  34
ATOM     34  O   UNL     1     112.059 126.368 138.509  0.00  0.00    +0.000 OA
BRANCH  34  41
ATOM     35  O   UNL     1     111.433 126.511 139.785  0.00  0.00    +0.000 OA
ATOM     36  O   UNL     1     113.401 127.140 139.082  0.00  0.00    +0.000 OA
ATOM     37  O   UNL     1     112.147 127.426 141.634  0.00  0.00    +0.000 OA
ATOM     38  C   UNL     1     112.774 127.283 140.358  0.00  0.00    +0.000 C 
ATOM     39  C   UNL     1     112.751 127.018 139.577  0.00  0.00    +0.000 C 
ATOM     40  C   UNL     1     112.125 127.161 140.853  0.00  0.00    +0.000 C 
ATOM     41  C   UNL     1     112.081 126.633 139.291  0.00  0.00    +0.000 C 
ATOM     42  C   UNL     1     111.454 126.776 140.567  0.00  0.00    +0.000 C 
ATOM     43  C   UNL     1     110.806 126.654 141.062  0.00  0.00    +0.000 C 
BRANCH  38  44
ATOM     44  O   UNL     1     113.445 127.669 140.644  0.00  0.00    +0.000 OA
BRANCH  44  49
ATOM     45  O   UNL     1     112.903 128.938 140.271  0.00  0.00    +0.000 OA
ATOM     46  O   UNL     1     114.927 128.363 140.855  0.00  0.00    +0.000 OA
ATOM     47  O   UNL     1     115.126 129.979 140.587  0.00  0.00    +0.000 OA
ATOM     48  O   UNL     1     113.843 130.901 140.109  0.00  0.00    +0.000 OA
ATOM     49  C   UNL     1     113.544 128.477 140.510  0.00  0.00    +0.000 C 
ATOM     50  C   UNL     1     114.285 128.824 140.615  0.00  0.00    +0.000 C 
ATOM     51  C   UNL     1     114.385 129.632 140.482  0.00  0.00    +0.000 C 
ATOM     52  C   UNL     1     113.743 130.092 140.243  0.00  0.00    +0.000 C 
ATOM     53  C   UNL     1     113.002 129.745 140.137  0.00  0.00    +0.000 C 
ATOM     54  C   UNL     1     112.361 130.206 139.898  0.00  0.00    +0.000 C 
ENDBRANCH  44  49
ENDBRANCH  38  44
ENDBRANCH  34  41
ENDBRANCH  33  34
ENDBRANCH   5  33
TORSDOF 9
ENDMDL
MODEL 3
REMARK VINA RESULT:     -11.0      1.593      3.387
REMARK  Name = 131752732
REMARK  9 active torsions:
REMARK  status: ('A' for Active; 'I' for Inactive)
REMARK    1  A    between atoms: O_1  and  C_21
REMARK    2  A    between atoms: O_1  and  C_26
REMARK    3  A    between atoms: O_3  and  C_24
REMARK    4  A    between atoms: O_3  and  C_34
REMARK    5  A    between atoms: O_13  and  C_36
REMARK    6  A    between atoms: O_13  and  C_39
REMARK    7  A    between atoms: O_19  and  C_51
REMARK    8  A    between atoms: C_29  and  C_34
REMARK    9  A    between atoms: C_40  and  C_43
REMARK                            x       y       z     vdW  Elec       q    Type
REMARK                         _______ _______ _______ _____ _____    ______ ____
ROOT
ATOM      1  O   UNL     1     110.604 130.188 138.590  0.00  0.00    +0.000 OA
ATOM      2  O   UNL     1     110.261 130.449 140.730  0.00  0.00    +0.000 OA
ATOM      3  O   UNL     1     110.140 132.008 140.203  0.00  0.00    +0.000 OA
ATOM      4  O   UNL     1     110.328 132.354 138.601  0.00  0.00    +0.000 OA
ATOM      5  C   UNL     1     110.510 130.015 139.391  0.00  0.00    +0.000 C 
ATOM      6  C   UNL     1     110.355 130.622 139.929  0.00  0.00    +0.000 C 
ATOM      7  C   UNL     1     110.295 131.401 139.665  0.00  0.00    +0.000 C 
ATOM      8  C   UNL     1     110.389 131.574 138.864  0.00  0.00    +0.000 C 
ATOM      9  C   UNL     1     110.543 130.968 138.327  0.00  0.00    +0.000 C 
ENDROOT
BRANCH   9  10
ATOM     10  O   UNL     1     110.637 131.141 137.526  0.00  0.00    +0.000 OA
BRANCH  10  15
ATOM     11  O   UNL     1     111.520 129.872 135.984  0.00  0.00    +0.000 OA
ATOM     12  O   UNL     1     112.235 131.230 137.926  0.00  0.00    +0.000 OA
ATOM     13  O   UNL     1     113.616 130.878 137.699  0.00  0.00    +0.000 OA
ATOM     14  O   UNL     1     114.286 129.121 135.465  0.00  0.00    +0.000 OA
ATOM     15  C   UNL     1     111.198 130.732 137.078  0.00  0.00    +0.000 A 
ATOM     16  C   UNL     1     110.959 130.280 136.431  0.00  0.00    +0.000 A 
ATOM     17  C   UNL     1     111.997 130.777 137.279  0.00  0.00    +0.000 A 
ATOM     18  C   UNL     1     112.558 130.369 136.831  0.00  0.00    +0.000 A 
ATOM     19  C   UNL     1     112.319 129.917 136.184  0.00  0.00    +0.000 A 
ATOM     20  C   UNL     1     113.386 130.424 137.050  0.00  0.00    +0.000 A 
ATOM     21  C   UNL     1     112.893 129.487 135.710  0.00  0.00    +0.000 A 
ATOM     22  C   UNL     1     113.976 130.001 136.588  0.00  0.00    +0.000 A 
ATOM     23  C   UNL     1     113.727 129.530 135.914  0.00  0.00    +0.000 A 
BRANCH  16  25
ATOM     24  O   UNL     1     107.762 130.101 135.633  0.00  0.00    +0.000 OA
ATOM     25  C   UNL     1     110.160 130.236 136.231  0.00  0.00    +0.000 A 
ATOM     26  C   UNL     1     109.737 129.542 136.376  0.00  0.00    +0.000 A 
ATOM     27  C   UNL     1     109.784 130.884 135.887  0.00  0.00    +0.000 A 
ATOM     28  C   UNL     1     108.938 129.497 136.176  0.00  0.00    +0.000 A 
ATOM     29  C   UNL     1     108.984 130.839 135.687  0.00  0.00    +0.000 A 
ATOM     30  C   UNL     1     108.561 130.146 135.832  0.00  0.00    +0.000 A 
BRANCH  28  31
ATOM     31  O   UNL     1     108.515 128.803 136.321  0.00  0.00    +0.000 OA
ATOM     32  C   UNL     1     108.864 128.070 136.178  0.00  0.00    +0.000 C 
ENDBRANCH  28  31
ENDBRANCH  16  25
ENDBRANCH  10  15
ENDBRANCH   9  10
BRANCH   5  33
ATOM     33  C   UNL     1     110.570 129.236 139.655  0.00  0.00    +0.000 C 
BRANCH  33  34
ATOM     34  O   UNL     1     111.257 128.802 139.510  0.00  0.00    +0.000 OA
BRANCH  34  41
ATOM     35  O   UNL     1     110.513 127.587 139.621  0.00  0.00    +0.000 OA
ATOM     36  O   UNL     1     112.630 127.935 139.216  0.00  0.00    +0.000 OA
ATOM     37  O   UNL     1     111.142 125.505 139.438  0.00  0.00    +0.000 OA
ATOM     38  C   UNL     1     111.886 126.720 139.327  0.00  0.00    +0.000 C 
ATOM     39  C   UNL     1     111.914 127.544 139.345  0.00  0.00    +0.000 C 
ATOM     40  C   UNL     1     111.170 126.329 139.456  0.00  0.00    +0.000 C 
ATOM     41  C   UNL     1     111.227 127.978 139.492  0.00  0.00    +0.000 C 
ATOM     42  C   UNL     1     110.484 126.763 139.603  0.00  0.00    +0.000 C 
ATOM     43  C   UNL     1     109.769 126.372 139.731  0.00  0.00    +0.000 C 
BRANCH  38  44
ATOM     44  O   UNL     1     112.572 126.287 139.180  0.00  0.00    +0.000 OA
BRANCH  44  49
ATOM     45  O   UNL     1     112.268 126.210 137.786  0.00  0.00    +0.000 OA
ATOM     46  O   UNL     1     114.135 125.863 138.863  0.00  0.00    +0.000 OA
ATOM     47  O   UNL     1     114.612 125.574 137.310  0.00  0.00    +0.000 OA
ATOM     48  O   UNL     1     113.527 125.709 136.075  0.00  0.00    +0.000 OA
ATOM     49  C   UNL     1     112.810 126.142 138.404  0.00  0.00    +0.000 C 
ATOM     50  C   UNL     1     113.592 125.930 138.245  0.00  0.00    +0.000 C 
ATOM     51  C   UNL     1     113.831 125.786 137.469  0.00  0.00    +0.000 C 
ATOM     52  C   UNL     1     113.288 125.854 136.852  0.00  0.00    +0.000 C 
ATOM     53  C   UNL     1     112.506 126.066 137.010  0.00  0.00    +0.000 C 
ATOM     54  C   UNL     1     111.964 126.133 136.392  0.00  0.00    +0.000 C 
ENDBRANCH  44  49
ENDBRANCH  38  44
ENDBRANCH  34  41
ENDBRANCH  33  34
ENDBRANCH   5  33
TORSDOF 9
ENDMDL
MODEL 4
REMARK VINA RESULT:     -10.9      1.835      4.424
REMARK  Name = 131752732
REMARK  9 active torsions:
REMARK  status: ('A' for Active; 'I' for Inactive)
REMARK    1  A    between atoms: O_1  and  C_21
REMARK    2  A    between atoms: O_1  and  C_26
REMARK    3  A    between atoms: O_3  and  C_24
REMARK    4  A    between atoms: O_3  and  C_34
REMARK    5  A    between atoms: O_13  and  C_36
REMARK    6  A    between atoms: O_13  and  C_39
REMARK    7  A    between atoms: O_19  and  C_51
REMARK    8  A    between atoms: C_29  and  C_34
REMARK    9  A    between atoms: C_40  and  C_43
REMARK                            x       y       z     vdW  Elec       q    Type
REMARK                         _______ _______ _______ _____ _____    ______ ____
ROOT
ATOM      1  O   UNL     1     112.825 127.939 137.396  0.00  0.00    +0.000 OA
ATOM      2  O   UNL     1     113.147 126.528 139.032  0.00  0.00    +0.000 OA
ATOM      3  O   UNL     1     113.686 125.644 137.747  0.00  0.00    +0.000 OA
ATOM      4  O   UNL     1     113.652 126.289 136.229  0.00  0.00    +0.000 OA
ATOM      5  C   UNL     1     112.842 127.616 138.155  0.00  0.00    +0.000 C 
ATOM      6  C   UNL     1     113.129 126.851 138.273  0.00  0.00    +0.000 C 
ATOM      7  C   UNL     1     113.399 126.410 137.630  0.00  0.00    +0.000 C 
ATOM      8  C   UNL     1     113.382 126.732 136.871  0.00  0.00    +0.000 C 
ATOM      9  C   UNL     1     113.095 127.496 136.754  0.00  0.00    +0.000 C 
ENDROOT
BRANCH   9  10
ATOM     10  O   UNL     1     113.078 127.819 135.995  0.00  0.00    +0.000 OA
BRANCH  10  15
ATOM     11  O   UNL     1     111.933 129.543 135.302  0.00  0.00    +0.000 OA
ATOM     12  O   UNL     1     111.551 127.193 135.978  0.00  0.00    +0.000 OA
ATOM     13  O   UNL     1     110.133 127.327 135.741  0.00  0.00    +0.000 OA
ATOM     14  O   UNL     1     109.084 129.885 134.802  0.00  0.00    +0.000 OA
ATOM     15  C   UNL     1     112.441 128.290 135.761  0.00  0.00    +0.000 A 
ATOM     16  C   UNL     1     112.569 129.073 135.536  0.00  0.00    +0.000 A 
ATOM     17  C   UNL     1     111.678 127.977 135.753  0.00  0.00    +0.000 A 
ATOM     18  C   UNL     1     111.042 128.448 135.518  0.00  0.00    +0.000 A 
ATOM     19  C   UNL     1     111.169 129.231 135.293  0.00  0.00    +0.000 A 
ATOM     20  C   UNL     1     110.252 128.111 135.514  0.00  0.00    +0.000 A 
ATOM     21  C   UNL     1     110.516 129.732 135.048  0.00  0.00    +0.000 A 
ATOM     22  C   UNL     1     109.585 128.596 135.271  0.00  0.00    +0.000 A 
ATOM     23  C   UNL     1     109.718 129.412 135.037  0.00  0.00    +0.000 A 
BRANCH  16  25
ATOM     24  O   UNL     1     115.623 130.322 135.573  0.00  0.00    +0.000 OA
ATOM     25  C   UNL     1     113.333 129.385 135.544  0.00  0.00    +0.000 A 
ATOM     26  C   UNL     1     113.557 129.909 136.141  0.00  0.00    +0.000 A 
ATOM     27  C   UNL     1     113.872 129.174 134.957  0.00  0.00    +0.000 A 
ATOM     28  C   UNL     1     114.320 130.221 136.151  0.00  0.00    +0.000 A 
ATOM     29  C   UNL     1     114.636 129.486 134.966  0.00  0.00    +0.000 A 
ATOM     30  C   UNL     1     114.860 130.010 135.563  0.00  0.00    +0.000 A 
BRANCH  28  31
ATOM     31  O   UNL     1     114.544 130.745 136.748  0.00  0.00    +0.000 OA
ATOM     32  C   UNL     1     113.969 131.135 137.192  0.00  0.00    +0.000 C 
ENDBRANCH  28  31
ENDBRANCH  16  25
ENDBRANCH  10  15
ENDBRANCH   9  10
BRANCH   5  33
ATOM     33  C   UNL     1     112.572 128.058 138.798  0.00  0.00    +0.000 C 
BRANCH  33  34
ATOM     34  O   UNL     1     111.803 128.357 138.800  0.00  0.00    +0.000 OA
BRANCH  34  41
ATOM     35  O   UNL     1     112.194 129.356 139.744  0.00  0.00    +0.000 OA
ATOM     36  O   UNL     1     110.286 129.003 138.743  0.00  0.00    +0.000 OA
ATOM     37  O   UNL     1     111.067 131.002 140.630  0.00  0.00    +0.000 OA
ATOM     38  C   UNL     1     110.677 130.003 139.686  0.00  0.00    +0.000 C 
ATOM     39  C   UNL     1     110.861 129.341 139.229  0.00  0.00    +0.000 C 
ATOM     40  C   UNL     1     111.252 130.341 140.173  0.00  0.00    +0.000 C 
ATOM     41  C   UNL     1     111.620 129.018 139.258  0.00  0.00    +0.000 C 
ATOM     42  C   UNL     1     112.010 130.018 140.202  0.00  0.00    +0.000 C 
ATOM     43  C   UNL     1     112.584 130.355 140.688  0.00  0.00    +0.000 C 
BRANCH  38  44
ATOM     44  O   UNL     1     109.918 130.326 139.658  0.00  0.00    +0.000 OA
BRANCH  44  49
ATOM     45  O   UNL     1     110.316 131.240 138.634  0.00  0.00    +0.000 OA
ATOM     46  O   UNL     1     108.334 130.648 139.329  0.00  0.00    +0.000 OA
ATOM     47  O   UNL     1     107.939 131.723 138.141  0.00  0.00    +0.000 OA
ATOM     48  O   UNL     1     109.130 132.475 137.281  0.00  0.00    +0.000 OA
ATOM     49  C   UNL     1     109.722 130.863 139.063  0.00  0.00    +0.000 C 
ATOM     50  C   UNL     1     108.929 131.024 138.899  0.00  0.00    +0.000 C 
ATOM     51  C   UNL     1     108.732 131.562 138.305  0.00  0.00    +0.000 C 
ATOM     52  C   UNL     1     109.327 131.938 137.876  0.00  0.00    +0.000 C 
ATOM     53  C   UNL     1     110.119 131.777 138.040  0.00  0.00    +0.000 C 
ATOM     54  C   UNL     1     110.714 132.154 137.610  0.00  0.00    +0.000 C 
ENDBRANCH  44  49
ENDBRANCH  38  44
ENDBRANCH  34  41
ENDBRANCH  33  34
ENDBRANCH   5  33
TORSDOF 9
ENDMDL
MODEL 5
REMARK VINA RESULT:     -10.9      1.913      5.628
REMARK  Name = 131752732
REMARK  9 active torsions:
REMARK  status: ('A' for Active; 'I' for Inactive)
REMARK    1  A    between atoms: O_1  and  C_21
REMARK    2  A    between atoms: O_1  and  C_26
REMARK    3  A    between atoms: O_3  and  C_24
REMARK    4  A    between atoms: O_3  and  C_34
REMARK    5  A    between atoms: O_13  and  C_36
REMARK    6  A    between atoms: O_13  and  C_39
REMARK    7  A    between atoms: O_19  and  C_51
REMARK    8  A    between atoms: C_29  and  C_34
REMARK    9  A    between atoms: C_40  and  C_43
REMARK                            x       y       z     vdW  Elec       q    Type
REMARK                         _______ _______ _______ _____ _____    ______ ____
ROOT
ATOM      1  O   UNL     1     111.540 127.237 137.864  0.00  0.00    +0.000 OA
ATOM      2  O   UNL     1     111.563 125.986 139.652  0.00  0.00    +0.000 OA
ATOM      3  O   UNL     1     111.070 124.896 138.516  0.00  0.00    +0.000 OA
ATOM      4  O   UNL     1     110.891 125.367 136.944  0.00  0.00    +0.000 OA
ATOM      5  C   UNL     1     111.630 127.002 138.649  0.00  0.00    +0.000 C 
ATOM      6  C   UNL     1     111.473 126.221 138.867  0.00  0.00    +0.000 C 
ATOM      7  C   UNL     1     111.227 125.677 138.298  0.00  0.00    +0.000 C 
ATOM      8  C   UNL     1     111.137 125.912 137.512  0.00  0.00    +0.000 C 
ATOM      9  C   UNL     1     111.294 126.692 137.296  0.00  0.00    +0.000 C 
ENDROOT
BRANCH   9  10
ATOM     10  O   UNL     1     111.204 126.927 136.510  0.00  0.00    +0.000 OA
BRANCH  10  15
ATOM     11  O   UNL     1     111.787 128.816 135.584  0.00  0.00    +0.000 OA
ATOM     12  O   UNL     1     112.848 126.791 136.532  0.00  0.00    +0.000 OA
ATOM     13  O   UNL     1     114.164 127.312 136.246  0.00  0.00    +0.000 OA
ATOM     14  O   UNL     1     114.410 129.930 134.978  0.00  0.00    +0.000 OA
ATOM     15  C   UNL     1     111.673 127.535 136.205  0.00  0.00    +0.000 A 
ATOM     16  C   UNL     1     111.319 128.210 135.889  0.00  0.00    +0.000 A 
ATOM     17  C   UNL     1     112.495 127.466 136.216  0.00  0.00    +0.000 A 
ATOM     18  C   UNL     1     112.963 128.073 135.911  0.00  0.00    +0.000 A 
ATOM     19  C   UNL     1     112.610 128.749 135.595  0.00  0.00    +0.000 A 
ATOM     20  C   UNL     1     113.818 127.990 135.928  0.00  0.00    +0.000 A 
ATOM     21  C   UNL     1     113.086 129.387 135.275  0.00  0.00    +0.000 A 
ATOM     22  C   UNL     1     114.312 128.619 135.612  0.00  0.00    +0.000 A 
ATOM     23  C   UNL     1     113.944 129.322 135.283  0.00  0.00    +0.000 A 
BRANCH  16  25
ATOM     24  O   UNL     1     108.031 128.482 135.848  0.00  0.00    +0.000 OA
ATOM     25  C   UNL     1     110.497 128.278 135.878  0.00  0.00    +0.000 A 
ATOM     26  C   UNL     1     110.117 128.767 136.423  0.00  0.00    +0.000 A 
ATOM     27  C   UNL     1     110.055 127.857 135.324  0.00  0.00    +0.000 A 
ATOM     28  C   UNL     1     109.295 128.835 136.413  0.00  0.00    +0.000 A 
ATOM     29  C   UNL     1     109.233 127.925 135.313  0.00  0.00    +0.000 A 
ATOM     30  C   UNL     1     108.853 128.414 135.858  0.00  0.00    +0.000 A 
BRANCH  28  31
ATOM     31  O   UNL     1     108.914 129.324 136.958  0.00  0.00    +0.000 OA
ATOM     32  C   UNL     1     109.205 130.082 137.105  0.00  0.00    +0.000 C 
ENDBRANCH  28  31
ENDBRANCH  16  25
ENDBRANCH  10  15
ENDBRANCH   9  10
BRANCH   5  33
ATOM     33  C   UNL     1     111.876 127.546 139.218  0.00  0.00    +0.000 C 
BRANCH  33  34
ATOM     34  O   UNL     1     111.521 128.290 139.259  0.00  0.00    +0.000 OA
BRANCH  34  41
ATOM     35  O   UNL     1     112.747 128.994 139.466  0.00  0.00    +0.000 OA
ATOM     36  O   UNL     1     110.719 129.427 140.145  0.00  0.00    +0.000 OA
ATOM     37  O   UNL     1     113.171 130.836 140.559  0.00  0.00    +0.000 OA
ATOM     38  C   UNL     1     111.945 130.131 140.352  0.00  0.00    +0.000 C 
ATOM     39  C   UNL     1     111.533 129.495 140.027  0.00  0.00    +0.000 C 
ATOM     40  C   UNL     1     112.759 130.199 140.234  0.00  0.00    +0.000 C 
ATOM     41  C   UNL     1     111.934 128.926 139.584  0.00  0.00    +0.000 C 
ATOM     42  C   UNL     1     113.160 129.631 139.791  0.00  0.00    +0.000 C 
ATOM     43  C   UNL     1     113.973 129.698 139.673  0.00  0.00    +0.000 C 
BRANCH  38  44
ATOM     44  O   UNL     1     111.543 130.700 140.795  0.00  0.00    +0.000 OA
BRANCH  44  49
ATOM     45  O   UNL     1     111.715 129.911 141.974  0.00  0.00    +0.000 OA
ATOM     46  O   UNL     1     110.928 131.930 141.707  0.00  0.00    +0.000 OA
ATOM     47  O   UNL     1     110.792 131.757 143.342  0.00  0.00    +0.000 OA
ATOM     48  O   UNL     1     111.271 130.353 144.065  0.00  0.00    +0.000 OA
ATOM     49  C   UNL     1     111.476 130.613 141.613  0.00  0.00    +0.000 C 
ATOM     50  C   UNL     1     111.168 131.228 142.069  0.00  0.00    +0.000 C 
ATOM     51  C   UNL     1     111.100 131.142 142.886  0.00  0.00    +0.000 C 
ATOM     52  C   UNL     1     111.339 130.440 143.247  0.00  0.00    +0.000 C 
ATOM     53  C   UNL     1     111.647 129.825 142.791  0.00  0.00    +0.000 C 
ATOM     54  C   UNL     1     111.886 129.123 143.154  0.00  0.00    +0.000 C 
ENDBRANCH  44  49
ENDBRANCH  38  44
ENDBRANCH  34  41
ENDBRANCH  33  34
ENDBRANCH   5  33
TORSDOF 9
ENDMDL
MODEL 6
REMARK VINA RESULT:     -10.9      1.794      5.422
REMARK  Name = 131752732
REMARK  9 active torsions:
REMARK  status: ('A' for Active; 'I' for Inactive)
REMARK    1  A    between atoms: O_1  and  C_21
REMARK    2  A    between atoms: O_1  and  C_26
REMARK    3  A    between atoms: O_3  and  C_24
REMARK    4  A    between atoms: O_3  and  C_34
REMARK    5  A    between atoms: O_13  and  C_36
REMARK    6  A    between atoms: O_13  and  C_39
REMARK    7  A    between atoms: O_19  and  C_51
REMARK    8  A    between atoms: C_29  and  C_34
REMARK    9  A    between atoms: C_40  and  C_43
REMARK                            x       y       z     vdW  Elec       q    Type
REMARK                         _______ _______ _______ _____ _____    ______ ____
ROOT
ATOM      1  O   UNL     1     110.911 126.762 138.337  0.00  0.00    +0.000 OA
ATOM      2  O   UNL     1     109.953 126.921 140.293  0.00  0.00    +0.000 OA
ATOM      3  O   UNL     1     108.665 126.508 139.348  0.00  0.00    +0.000 OA
ATOM      4  O   UNL     1     108.873 126.265 137.729  0.00  0.00    +0.000 OA
ATOM      5  C   UNL     1     110.806 126.884 139.146  0.00  0.00    +0.000 C 
ATOM      6  C   UNL     1     110.057 126.799 139.483  0.00  0.00    +0.000 C 
ATOM      7  C   UNL     1     109.414 126.593 139.010  0.00  0.00    +0.000 C 
ATOM      8  C   UNL     1     109.518 126.472 138.201  0.00  0.00    +0.000 C 
ATOM      9  C   UNL     1     110.266 126.556 137.865  0.00  0.00    +0.000 C 
ENDROOT
BRANCH   9  10
ATOM     10  O   UNL     1     110.370 126.435 137.055  0.00  0.00    +0.000 OA
BRANCH  10  15
ATOM     11  O   UNL     1     112.064 127.059 135.829  0.00  0.00    +0.000 OA
ATOM     12  O   UNL     1     110.100 128.060 136.955  0.00  0.00    +0.000 OA
ATOM     13  O   UNL     1     110.467 129.375 136.487  0.00  0.00    +0.000 OA
ATOM     14  O   UNL     1     112.865 129.683 134.850  0.00  0.00    +0.000 OA
ATOM     15  C   UNL     1     110.890 126.914 136.629  0.00  0.00    +0.000 A 
ATOM     16  C   UNL     1     111.545 126.580 136.254  0.00  0.00    +0.000 A 
ATOM     17  C   UNL     1     110.755 127.726 136.579  0.00  0.00    +0.000 A 
ATOM     18  C   UNL     1     111.275 128.205 136.154  0.00  0.00    +0.000 A 
ATOM     19  C   UNL     1     111.930 127.872 135.778  0.00  0.00    +0.000 A 
ATOM     20  C   UNL     1     111.124 129.049 136.109  0.00  0.00    +0.000 A 
ATOM     21  C   UNL     1     112.478 128.359 135.332  0.00  0.00    +0.000 A 
ATOM     22  C   UNL     1     111.662 129.554 135.667  0.00  0.00    +0.000 A 
ATOM     23  C   UNL     1     112.344 129.207 135.276  0.00  0.00    +0.000 A 
BRANCH  16  25
ATOM     24  O   UNL     1     112.084 123.331 136.458  0.00  0.00    +0.000 OA
ATOM     25  C   UNL     1     111.679 125.768 136.304  0.00  0.00    +0.000 A 
ATOM     26  C   UNL     1     112.307 125.481 136.757  0.00  0.00    +0.000 A 
ATOM     27  C   UNL     1     111.187 125.242 135.903  0.00  0.00    +0.000 A 
ATOM     28  C   UNL     1     112.442 124.669 136.808  0.00  0.00    +0.000 A 
ATOM     29  C   UNL     1     111.321 124.429 135.954  0.00  0.00    +0.000 A 
ATOM     30  C   UNL     1     111.949 124.143 136.406  0.00  0.00    +0.000 A 
BRANCH  28  31
ATOM     31  O   UNL     1     113.069 124.383 137.261  0.00  0.00    +0.000 OA
ATOM     32  C   UNL     1     113.768 124.816 137.318  0.00  0.00    +0.000 C 
ENDBRANCH  28  31
ENDBRANCH  16  25
ENDBRANCH  10  15
ENDBRANCH   9  10
BRANCH   5  33
ATOM     33  C   UNL     1     111.450 127.090 139.619  0.00  0.00    +0.000 C 
BRANCH  33  34
ATOM     34  O   UNL     1     112.018 127.617 139.336  0.00  0.00    +0.000 OA
BRANCH  34  41
ATOM     35  O   UNL     1     113.013 127.123 140.235  0.00  0.00    +0.000 OA
ATOM     36  O   UNL     1     112.851 129.035 139.195  0.00  0.00    +0.000 OA
ATOM     37  O   UNL     1     114.840 128.046 140.992  0.00  0.00    +0.000 OA
ATOM     38  C   UNL     1     113.845 128.540 140.093  0.00  0.00    +0.000 C 
ATOM     39  C   UNL     1     113.140 128.433 139.680  0.00  0.00    +0.000 C 
ATOM     40  C   UNL     1     114.135 127.938 140.579  0.00  0.00    +0.000 C 
ATOM     41  C   UNL     1     112.724 127.724 139.751  0.00  0.00    +0.000 C 
ATOM     42  C   UNL     1     113.718 127.229 140.649  0.00  0.00    +0.000 C 
ATOM     43  C   UNL     1     114.008 126.628 141.134  0.00  0.00    +0.000 C 
BRANCH  38  44
ATOM     44  O   UNL     1     114.262 129.249 140.023  0.00  0.00    +0.000 OA
BRANCH  44  49
ATOM     45  O   UNL     1     113.461 129.853 141.041  0.00  0.00    +0.000 OA
ATOM     46  O   UNL     1     115.357 130.476 140.156  0.00  0.00    +0.000 OA
ATOM     47  O   UNL     1     115.104 131.694 141.241  0.00  0.00    +0.000 OA
ATOM     48  O   UNL     1     113.755 131.684 142.192  0.00  0.00    +0.000 OA
ATOM     49  C   UNL     1     114.135 129.858 140.565  0.00  0.00    +0.000 C 
ATOM     50  C   UNL     1     114.682 130.471 140.632  0.00  0.00    +0.000 C 
ATOM     51  C   UNL     1     114.556 131.080 141.174  0.00  0.00    +0.000 C 
ATOM     52  C   UNL     1     113.882 131.075 141.649  0.00  0.00    +0.000 C 
ATOM     53  C   UNL     1     113.335 130.461 141.583  0.00  0.00    +0.000 C 
ATOM     54  C   UNL     1     112.660 130.457 142.059  0.00  0.00    +0.000 C 
ENDBRANCH  44  49
ENDBRANCH  38  44
ENDBRANCH  34  41
ENDBRANCH  33  34
ENDBRANCH   5  33
TORSDOF 9
ENDMDL
MODEL 7
REMARK VINA RESULT:     -10.8      1.767      5.334
REMARK  Name = 131752732
REMARK  9 active torsions:
REMARK  status: ('A' for Active; 'I' for Inactive)
REMARK    1  A    between atoms: O_1  and  C_21
REMARK    2  A    between atoms: O_1  and  C_26
REMARK    3  A    between atoms: O_3  and  C_24
REMARK    4  A    between atoms: O_3  and  C_34
REMARK    5  A    between atoms: O_13  and  C_36
REMARK    6  A    between atoms: O_13  and  C_39
REMARK    7  A    between atoms: O_19  and  C_51
REMARK    8  A    between atoms: C_29  and  C_34
REMARK    9  A    between atoms: C_40  and  C_43
REMARK                            x       y       z     vdW  Elec       q    Type
REMARK                         _______ _______ _______ _____ _____    ______ ____
ROOT
ATOM      1  O   UNL     1     111.398 128.134 137.094  0.00  0.00    +0.000 OA
ATOM      2  O   UNL     1     109.338 128.623 137.626  0.00  0.00    +0.000 OA
ATOM      3  O   UNL     1     109.248 128.648 135.978  0.00  0.00    +0.000 OA
ATOM      4  O   UNL     1     110.592 128.330 135.075  0.00  0.00    +0.000 OA
ATOM      5  C   UNL     1     110.726 128.293 137.546  0.00  0.00    +0.000 C 
ATOM      6  C   UNL     1     110.009 128.464 137.174  0.00  0.00    +0.000 C 
ATOM      7  C   UNL     1     109.965 128.476 136.350  0.00  0.00    +0.000 C 
ATOM      8  C   UNL     1     110.637 128.318 135.898  0.00  0.00    +0.000 C 
ATOM      9  C   UNL     1     111.353 128.146 136.270  0.00  0.00    +0.000 C 
ENDROOT
BRANCH   9  10
ATOM     10  O   UNL     1     112.024 127.988 135.818  0.00  0.00    +0.000 OA
BRANCH  10  15
ATOM     11  O   UNL     1     113.941 127.162 136.460  0.00  0.00    +0.000 OA
ATOM     12  O   UNL     1     111.589 126.440 136.188  0.00  0.00    +0.000 OA
ATOM     13  O   UNL     1     111.914 125.111 136.650  0.00  0.00    +0.000 OA
ATOM     14  O   UNL     1     114.670 124.504 137.401  0.00  0.00    +0.000 OA
ATOM     15  C   UNL     1     112.591 127.454 136.094  0.00  0.00    +0.000 A 
ATOM     16  C   UNL     1     113.375 127.695 136.185  0.00  0.00    +0.000 A 
ATOM     17  C   UNL     1     112.373 126.681 136.279  0.00  0.00    +0.000 A 
ATOM     18  C   UNL     1     112.940 126.147 136.554  0.00  0.00    +0.000 A 
ATOM     19  C   UNL     1     113.723 126.388 136.645  0.00  0.00    +0.000 A 
ATOM     20  C   UNL     1     112.700 125.344 136.743  0.00  0.00    +0.000 A 
ATOM     21  C   UNL     1     114.322 125.843 136.931  0.00  0.00    +0.000 A 
ATOM     22  C   UNL     1     113.286 124.784 137.031  0.00  0.00    +0.000 A 
ATOM     23  C   UNL     1     114.102 125.035 137.126  0.00  0.00    +0.000 A 
BRANCH  16  25
ATOM     24  O   UNL     1     114.243 130.793 135.448  0.00  0.00    +0.000 OA
ATOM     25  C   UNL     1     113.592 128.470 136.000  0.00  0.00    +0.000 A 
ATOM     26  C   UNL     1     113.756 129.007 136.604  0.00  0.00    +0.000 A 
ATOM     27  C   UNL     1     113.645 128.707 135.212  0.00  0.00    +0.000 A 
ATOM     28  C   UNL     1     113.973 129.781 136.420  0.00  0.00    +0.000 A 
ATOM     29  C   UNL     1     113.862 129.481 135.027  0.00  0.00    +0.000 A 
ATOM     30  C   UNL     1     114.026 130.018 135.631  0.00  0.00    +0.000 A 
BRANCH  28  31
ATOM     31  O   UNL     1     114.137 130.319 137.025  0.00  0.00    +0.000 OA
ATOM     32  C   UNL     1     113.544 130.819 137.303  0.00  0.00    +0.000 C 
ENDBRANCH  28  31
ENDBRANCH  16  25
ENDBRANCH  10  15
ENDBRANCH   9  10
BRANCH   5  33
ATOM     33  C   UNL     1     110.770 128.280 138.369  0.00  0.00    +0.000 C 
BRANCH  33  34
ATOM     34  O   UNL     1     111.297 128.779 138.763  0.00  0.00    +0.000 OA
BRANCH  34  41
ATOM     35  O   UNL     1     111.883 127.763 139.578  0.00  0.00    +0.000 OA
ATOM     36  O   UNL     1     111.470 129.866 139.992  0.00  0.00    +0.000 OA
ATOM     37  O   UNL     1     112.642 127.833 141.624  0.00  0.00    +0.000 OA
ATOM     38  C   UNL     1     112.056 128.850 140.808  0.00  0.00    +0.000 C 
ATOM     39  C   UNL     1     111.720 129.086 140.092  0.00  0.00    +0.000 C 
ATOM     40  C   UNL     1     112.306 128.069 140.908  0.00  0.00    +0.000 C 
ATOM     41  C   UNL     1     111.633 128.542 139.478  0.00  0.00    +0.000 C 
ATOM     42  C   UNL     1     112.219 127.526 140.293  0.00  0.00    +0.000 C 
ATOM     43  C   UNL     1     112.469 126.747 140.394  0.00  0.00    +0.000 C 
BRANCH  38  44
ATOM     44  O   UNL     1     112.143 129.393 141.422  0.00  0.00    +0.000 OA
BRANCH  44  49
ATOM     45  O   UNL     1     113.455 129.737 140.975  0.00  0.00    +0.000 OA
ATOM     46  O   UNL     1     112.105 130.752 142.357  0.00  0.00    +0.000 OA
ATOM     47  O   UNL     1     113.399 131.776 142.377  0.00  0.00    +0.000 OA
ATOM     48  O   UNL     1     114.730 131.441 141.462  0.00  0.00    +0.000 OA
ATOM     49  C   UNL     1     112.790 129.905 141.432  0.00  0.00    +0.000 C 
ATOM     50  C   UNL     1     112.771 130.584 141.899  0.00  0.00    +0.000 C 
ATOM     51  C   UNL     1     113.418 131.096 141.910  0.00  0.00    +0.000 C 
ATOM     52  C   UNL     1     114.083 130.928 141.452  0.00  0.00    +0.000 C 
ATOM     53  C   UNL     1     114.102 130.249 140.985  0.00  0.00    +0.000 C 
ATOM     54  C   UNL     1     114.768 130.081 140.528  0.00  0.00    +0.000 C 
ENDBRANCH  44  49
ENDBRANCH  38  44
ENDBRANCH  34  41
ENDBRANCH  33  34
ENDBRANCH   5  33
TORSDOF 9
ENDMDL
MODEL 8
REMARK VINA RESULT:     -10.8      1.872      5.726
REMARK  Name = 131752732
REMARK  9 active torsions:
REMARK  status: ('A' for Active; 'I' for Inactive)
REMARK    1  A    between atoms: O_1  and  C_21
REMARK    2  A    between atoms: O_1  and  C_26
REMARK    3  A    between atoms: O_3  and  C_24
REMARK    4  A    between atoms: O_3  and  C_34
REMARK    5  A    between atoms: O_13  and  C_36
REMARK    6  A    between atoms: O_13  and  C_39
REMARK    7  A    between atoms: O_19  and  C_51
REMARK    8  A    between atoms: C_29  and  C_34
REMARK    9  A    between atoms: C_40  and  C_43
REMARK                            x       y       z     vdW  Elec       q    Type
REMARK                         _______ _______ _______ _____ _____    ______ ____
ROOT
ATOM      1  O   UNL     1     110.908 126.635 138.491  0.00  0.00    +0.000 OA
ATOM      2  O   UNL     1     108.728 126.519 138.500  0.00  0.00    +0.000 OA
ATOM      3  O   UNL     1     109.089 125.709 139.892  0.00  0.00    +0.000 OA
ATOM      4  O   UNL     1     110.662 125.516 140.349  0.00  0.00    +0.000 OA
ATOM      5  C   UNL     1     110.122 126.732 138.262  0.00  0.00    +0.000 C 
ATOM      6  C   UNL     1     109.515 126.423 138.729  0.00  0.00    +0.000 C 
ATOM      7  C   UNL     1     109.696 126.018 139.425  0.00  0.00    +0.000 C 
ATOM      8  C   UNL     1     110.483 125.921 139.654  0.00  0.00    +0.000 C 
ATOM      9  C   UNL     1     111.088 126.230 139.187  0.00  0.00    +0.000 C 
ENDROOT
BRANCH   9  10
ATOM     10  O   UNL     1     111.875 126.133 139.416  0.00  0.00    +0.000 OA
BRANCH  10  15
ATOM     11  O   UNL     1     113.694 126.466 138.256  0.00  0.00    +0.000 OA
ATOM     12  O   UNL     1     111.764 124.917 138.306  0.00  0.00    +0.000 OA
ATOM     13  O   UNL     1     112.280 124.193 137.169  0.00  0.00    +0.000 OA
ATOM     14  O   UNL     1     114.795 125.053 135.959  0.00  0.00    +0.000 OA
ATOM     15  C   UNL     1     112.463 126.042 138.844  0.00  0.00    +0.000 A 
ATOM     16  C   UNL     1     113.106 126.558 138.827  0.00  0.00    +0.000 A 
ATOM     17  C   UNL     1     112.407 125.434 138.290  0.00  0.00    +0.000 A 
ATOM     18  C   UNL     1     112.996 125.342 137.718  0.00  0.00    +0.000 A 
ATOM     19  C   UNL     1     113.639 125.858 137.701  0.00  0.00    +0.000 A 
ATOM     20  C   UNL     1     112.926 124.705 137.146  0.00  0.00    +0.000 A 
ATOM     21  C   UNL     1     114.257 125.774 137.111  0.00  0.00    +0.000 A 
ATOM     22  C   UNL     1     113.536 124.604 136.547  0.00  0.00    +0.000 A 
ATOM     23  C   UNL     1     114.205 125.142 136.530  0.00  0.00    +0.000 A 
BRANCH  16  25
ATOM     24  O   UNL     1     113.325 128.991 141.046  0.00  0.00    +0.000 OA
ATOM     25  C   UNL     1     113.161 127.166 139.383  0.00  0.00    +0.000 A 
ATOM     26  C   UNL     1     112.981 127.941 139.164  0.00  0.00    +0.000 A 
ATOM     27  C   UNL     1     113.396 127.000 140.155  0.00  0.00    +0.000 A 
ATOM     28  C   UNL     1     113.035 128.550 139.718  0.00  0.00    +0.000 A 
ATOM     29  C   UNL     1     113.451 127.608 140.710  0.00  0.00    +0.000 A 
ATOM     30  C   UNL     1     113.271 128.383 140.492  0.00  0.00    +0.000 A 
BRANCH  28  31
ATOM     31  O   UNL     1     112.855 129.324 139.500  0.00  0.00    +0.000 OA
ATOM     32  C   UNL     1     113.089 129.610 138.763  0.00  0.00    +0.000 C 
ENDBRANCH  28  31
ENDBRANCH  16  25
ENDBRANCH  10  15
ENDBRANCH   9  10
BRANCH   5  33
ATOM     33  C   UNL     1     109.941 127.137 137.567  0.00  0.00    +0.000 C 
BRANCH  33  34
ATOM     34  O   UNL     1     110.047 127.954 137.525  0.00  0.00    +0.000 OA
BRANCH  34  41
ATOM     35  O   UNL     1     110.889 128.091 136.378  0.00  0.00    +0.000 OA
ATOM     36  O   UNL     1     109.036 129.109 136.921  0.00  0.00    +0.000 OA
ATOM     37  O   UNL     1     110.720 129.383 134.627  0.00  0.00    +0.000 OA
ATOM     38  C   UNL     1     109.878 129.246 135.774  0.00  0.00    +0.000 C 
ATOM     39  C   UNL     1     109.710 128.889 136.498  0.00  0.00    +0.000 C 
ATOM     40  C   UNL     1     110.552 129.025 135.352  0.00  0.00    +0.000 C 
ATOM     41  C   UNL     1     110.216 128.311 136.801  0.00  0.00    +0.000 C 
ATOM     42  C   UNL     1     111.058 128.447 135.654  0.00  0.00    +0.000 C 
ATOM     43  C   UNL     1     111.731 128.227 135.232  0.00  0.00    +0.000 C 
BRANCH  38  44
ATOM     44  O   UNL     1     109.373 129.824 135.472  0.00  0.00    +0.000 OA
BRANCH  44  49
ATOM     45  O   UNL     1     110.081 130.829 136.200  0.00  0.00    +0.000 OA
ATOM     46  O   UNL     1     108.455 130.991 134.753  0.00  0.00    +0.000 OA
ATOM     47  O   UNL     1     108.704 132.580 135.121  0.00  0.00    +0.000 OA
ATOM     48  O   UNL     1     109.871 133.002 136.209  0.00  0.00    +0.000 OA
ATOM     49  C   UNL     1     109.498 130.618 135.657  0.00  0.00    +0.000 C 
ATOM     50  C   UNL     1     109.039 131.202 135.297  0.00  0.00    +0.000 C 
ATOM     51  C   UNL     1     109.163 131.997 135.481  0.00  0.00    +0.000 C 
ATOM     52  C   UNL     1     109.747 132.207 136.025  0.00  0.00    +0.000 C 
ATOM     53  C   UNL     1     110.205 131.623 136.384  0.00  0.00    +0.000 C 
ATOM     54  C   UNL     1     110.789 131.834 136.928  0.00  0.00    +0.000 C 
ENDBRANCH  44  49
ENDBRANCH  38  44
ENDBRANCH  34  41
ENDBRANCH  33  34
ENDBRANCH   5  33
TORSDOF 9
ENDMDL
MODEL 9
REMARK VINA RESULT:     -10.8      1.908      4.213
REMARK  Name = 131752732
REMARK  9 active torsions:
REMARK  status: ('A' for Active; 'I' for Inactive)
REMARK    1  A    between atoms: O_1  and  C_21
REMARK    2  A    between atoms: O_1  and  C_26
REMARK    3  A    between atoms: O_3  and  C_24
REMARK    4  A    between atoms: O_3  and  C_34
REMARK    5  A    between atoms: O_13  and  C_36
REMARK    6  A    between atoms: O_13  and  C_39
REMARK    7  A    between atoms: O_19  and  C_51
REMARK    8  A    between atoms: C_29  and  C_34
REMARK    9  A    between atoms: C_40  and  C_43
REMARK                            x       y       z     vdW  Elec       q    Type
REMARK                         _______ _______ _______ _____ _____    ______ ____
ROOT
ATOM      1  O   UNL     1     110.011 129.303 136.638  0.00  0.00    +0.000 OA
ATOM      2  O   UNL     1     108.215 128.092 136.366  0.00  0.00    +0.000 OA
ATOM      3  O   UNL     1     107.897 129.353 135.351  0.00  0.00    +0.000 OA
ATOM      4  O   UNL     1     108.987 130.581 135.194  0.00  0.00    +0.000 OA
ATOM      5  C   UNL     1     109.466 128.689 136.717  0.00  0.00    +0.000 C 
ATOM      6  C   UNL     1     108.760 128.706 136.288  0.00  0.00    +0.000 C 
ATOM      7  C   UNL     1     108.602 129.337 135.780  0.00  0.00    +0.000 C 
ATOM      8  C   UNL     1     109.147 129.951 135.702  0.00  0.00    +0.000 C 
ATOM      9  C   UNL     1     109.851 129.934 136.130  0.00  0.00    +0.000 C 
ENDROOT
BRANCH   9  10
ATOM     10  O   UNL     1     110.397 130.548 136.051  0.00  0.00    +0.000 OA
BRANCH  10  15
ATOM     11  O   UNL     1     112.431 130.638 136.838  0.00  0.00    +0.000 OA
ATOM     12  O   UNL     1     111.162 129.474 135.059  0.00  0.00    +0.000 OA
ATOM     13  O   UNL     1     112.348 128.769 134.636  0.00  0.00    +0.000 OA
ATOM     14  O   UNL     1     114.864 129.250 136.039  0.00  0.00    +0.000 OA
ATOM     15  C   UNL     1     111.203 130.399 136.149  0.00  0.00    +0.000 A 
ATOM     16  C   UNL     1     111.626 130.787 136.741  0.00  0.00    +0.000 A 
ATOM     17  C   UNL     1     111.585 129.862 135.652  0.00  0.00    +0.000 A 
ATOM     18  C   UNL     1     112.391 129.713 135.749  0.00  0.00    +0.000 A 
ATOM     19  C   UNL     1     112.814 130.101 136.342  0.00  0.00    +0.000 A 
ATOM     20  C   UNL     1     112.779 129.152 135.227  0.00  0.00    +0.000 A 
ATOM     21  C   UNL     1     113.653 129.955 136.453  0.00  0.00    +0.000 A 
ATOM     22  C   UNL     1     113.618 128.993 135.322  0.00  0.00    +0.000 A 
ATOM     23  C   UNL     1     114.058 129.397 135.940  0.00  0.00    +0.000 A 
BRANCH  16  25
ATOM     24  O   UNL     1     110.092 132.931 138.726  0.00  0.00    +0.000 OA
ATOM     25  C   UNL     1     111.242 131.323 137.237  0.00  0.00    +0.000 A 
ATOM     26  C   UNL     1     111.056 131.108 138.011  0.00  0.00    +0.000 A 
ATOM     27  C   UNL     1     111.045 132.074 136.959  0.00  0.00    +0.000 A 
ATOM     28  C   UNL     1     110.672 131.644 138.508  0.00  0.00    +0.000 A 
ATOM     29  C   UNL     1     110.662 132.611 137.455  0.00  0.00    +0.000 A 
ATOM     30  C   UNL     1     110.475 132.396 138.229  0.00  0.00    +0.000 A 
BRANCH  28  31
ATOM     31  O   UNL     1     110.486 131.429 139.282  0.00  0.00    +0.000 OA
ATOM     32  C   UNL     1     110.932 130.853 139.669  0.00  0.00    +0.000 C 
ENDBRANCH  28  31
ENDBRANCH  16  25
ENDBRANCH  10  15
ENDBRANCH   9  10
BRANCH   5  33
ATOM     33  C   UNL     1     109.624 128.059 137.224  0.00  0.00    +0.000 C 
BRANCH  33  34
ATOM     34  O   UNL     1     110.233 127.530 137.048  0.00  0.00    +0.000 OA
BRANCH  34  41
ATOM     35  O   UNL     1     110.165 126.959 138.356  0.00  0.00    +0.000 OA
ATOM     36  O   UNL     1     111.071 126.212 136.516  0.00  0.00    +0.000 OA
ATOM     37  O   UNL     1     110.935 125.070 139.133  0.00  0.00    +0.000 OA
ATOM     38  C   UNL     1     111.003 125.641 137.824  0.00  0.00    +0.000 C 
ATOM     39  C   UNL     1     110.827 126.256 137.304  0.00  0.00    +0.000 C 
ATOM     40  C   UNL     1     110.759 125.685 138.612  0.00  0.00    +0.000 C 
ATOM     41  C   UNL     1     110.408 126.915 137.570  0.00  0.00    +0.000 C 
ATOM     42  C   UNL     1     110.340 126.344 138.878  0.00  0.00    +0.000 C 
ATOM     43  C   UNL     1     110.097 126.388 139.664  0.00  0.00    +0.000 C 
BRANCH  38  44
ATOM     44  O   UNL     1     111.422 124.982 137.559  0.00  0.00    +0.000 OA
BRANCH  44  49
ATOM     45  O   UNL     1     112.660 125.572 137.957  0.00  0.00    +0.000 OA
ATOM     46  O   UNL     1     112.241 123.879 136.645  0.00  0.00    +0.000 OA
ATOM     47  O   UNL     1     113.890 123.918 136.587  0.00  0.00    +0.000 OA
ATOM     48  O   UNL     1     114.719 125.060 137.441  0.00  0.00    +0.000 OA
ATOM     49  C   UNL     1     112.246 125.002 137.530  0.00  0.00    +0.000 C 
ATOM     50  C   UNL     1     112.656 124.450 137.073  0.00  0.00    +0.000 C 
ATOM     51  C   UNL     1     113.480 124.469 137.043  0.00  0.00    +0.000 C 
ATOM     52  C   UNL     1     113.894 125.041 137.471  0.00  0.00    +0.000 C 
ATOM     53  C   UNL     1     113.484 125.592 137.927  0.00  0.00    +0.000 C 
ATOM     54  C   UNL     1     113.899 126.163 138.355  0.00  0.00    +0.000 C 
ENDBRANCH  44  49
ENDBRANCH  38  44
ENDBRANCH  34  41
ENDBRANCH  33  34
ENDBRANCH   5  33
TORSDOF 9
ENDMDL
MODEL 10
REMARK VINA RESULT:     -10.8      1.940      4.965
REMARK  Name = 131752732
REMARK  9 active torsions:
REMARK  status: ('A' for Active; 'I' for Inactive)
REMARK    1  A    between atoms: O_1  and  C_21
REMARK    2  A    between atoms: O_1  and  C_26
REMARK    3  A    between atoms: O_3  and  C_24
REMARK    4  A    between atoms: O_3  and  C_34
REMARK    5  A    between atoms: O_13  and  C_36
REMARK    6  A    between atoms: O_13  and  C_39
REMARK    7  A    between atoms: O_19  and  C_51
REMARK    8  A    between atoms: C_29  and  C_34
REMARK    9  A    between atoms: C_40  and  C_43
REMARK                            x       y       z     vdW  Elec       q    Type
REMARK                         _______ _______ _______ _____ _____    ______ ____
ROOT
ATOM      1  O   UNL     1     110.280 129.115 136.858  0.00  0.00    +0.000 OA
ATOM      2  O   UNL     1     108.763 127.545 136.811  0.00  0.00    +0.000 OA
ATOM      3  O   UNL     1     108.139 128.614 135.720  0.00  0.00    +0.000 OA
ATOM      4  O   UNL     1     108.942 130.017 135.388  0.00  0.00    +0.000 OA
ATOM      5  C   UNL     1     109.879 128.413 137.024  0.00  0.00    +0.000 C 
ATOM      6  C   UNL     1     109.165 128.246 136.644  0.00  0.00    +0.000 C 
ATOM      7  C   UNL     1     108.853 128.781 136.099  0.00  0.00    +0.000 C 
ATOM      8  C   UNL     1     109.255 129.483 135.933  0.00  0.00    +0.000 C 
ATOM      9  C   UNL     1     109.967 129.649 136.312  0.00  0.00    +0.000 C 
ENDROOT
BRANCH   9  10
ATOM     10  O   UNL     1     110.369 130.351 136.146  0.00  0.00    +0.000 OA
BRANCH  10  15
ATOM     11  O   UNL     1     112.361 130.972 136.786  0.00  0.00    +0.000 OA
ATOM     12  O   UNL     1     111.312 129.301 135.291  0.00  0.00    +0.000 OA
ATOM     13  O   UNL     1     112.606 128.785 134.914  0.00  0.00    +0.000 OA
ATOM     14  O   UNL     1     115.006 129.981 136.072  0.00  0.00    +0.000 OA
ATOM     15  C   UNL     1     111.191 130.383 136.217  0.00  0.00    +0.000 A 
ATOM     16  C   UNL     1     111.540 130.940 136.716  0.00  0.00    +0.000 A 
ATOM     17  C   UNL     1     111.662 129.858 135.790  0.00  0.00    +0.000 A 
ATOM     18  C   UNL     1     112.484 129.890 135.861  0.00  0.00    +0.000 A 
ATOM     19  C   UNL     1     112.833 130.447 136.359  0.00  0.00    +0.000 A 
ATOM     20  C   UNL     1     112.964 129.339 135.410  0.00  0.00    +0.000 A 
ATOM     21  C   UNL     1     113.687 130.491 136.442  0.00  0.00    +0.000 A 
ATOM     22  C   UNL     1     113.821 129.367 135.480  0.00  0.00    +0.000 A 
ATOM     23  C   UNL     1     114.184 129.947 135.999  0.00  0.00    +0.000 A 
BRANCH  16  25
ATOM     24  O   UNL     1     109.651 133.036 138.426  0.00  0.00    +0.000 OA
ATOM     25  C   UNL     1     111.068 131.464 137.143  0.00  0.00    +0.000 A 
ATOM     26  C   UNL     1     111.012 131.394 137.963  0.00  0.00    +0.000 A 
ATOM     27  C   UNL     1     110.652 132.058 136.751  0.00  0.00    +0.000 A 
ATOM     28  C   UNL     1     110.540 131.918 138.391  0.00  0.00    +0.000 A 
ATOM     29  C   UNL     1     110.179 132.583 137.178  0.00  0.00    +0.000 A 
ATOM     30  C   UNL     1     110.123 132.513 137.998  0.00  0.00    +0.000 A 
BRANCH  28  31
ATOM     31  O   UNL     1     110.484 131.848 139.211  0.00  0.00    +0.000 OA
ATOM     32  C   UNL     1     110.051 131.230 139.543  0.00  0.00    +0.000 C 
ENDBRANCH  28  31
ENDBRANCH  16  25
ENDBRANCH  10  15
ENDBRANCH   9  10
BRANCH   5  33
ATOM     33  C   UNL     1     110.190 127.878 137.569  0.00  0.00    +0.000 C 
BRANCH  33  34
ATOM     34  O   UNL     1     110.388 128.131 138.329  0.00  0.00    +0.000 OA
BRANCH  34  41
ATOM     35  O   UNL     1     111.638 127.440 138.365  0.00  0.00    +0.000 OA
ATOM     36  O   UNL     1     110.234 127.938 139.960  0.00  0.00    +0.000 OA
ATOM     37  O   UNL     1     112.734 126.555 140.033  0.00  0.00    +0.000 OA
ATOM     38  C   UNL     1     111.484 127.246 139.997  0.00  0.00    +0.000 C 
ATOM     39  C   UNL     1     110.898 127.640 139.570  0.00  0.00    +0.000 C 
ATOM     40  C   UNL     1     112.148 126.949 139.607  0.00  0.00    +0.000 C 
ATOM     41  C   UNL     1     110.975 127.737 138.755  0.00  0.00    +0.000 C 
ATOM     42  C   UNL     1     112.225 127.046 138.791  0.00  0.00    +0.000 C 
ATOM     43  C   UNL     1     112.888 126.748 138.402  0.00  0.00    +0.000 C 
BRANCH  38  44
ATOM     44  O   UNL     1     111.406 127.150 140.812  0.00  0.00    +0.000 OA
BRANCH  44  49
ATOM     45  O   UNL     1     112.157 128.338 141.071  0.00  0.00    +0.000 OA
ATOM     46  O   UNL     1     110.776 127.216 142.336  0.00  0.00    +0.000 OA
ATOM     47  O   UNL     1     111.211 128.438 143.356  0.00  0.00    +0.000 OA
ATOM     48  O   UNL     1     112.276 129.593 142.853  0.00  0.00    +0.000 OA
ATOM     49  C   UNL     1     111.624 127.761 141.322  0.00  0.00    +0.000 C 
ATOM     50  C   UNL     1     111.309 127.794 142.084  0.00  0.00    +0.000 C 
ATOM     51  C   UNL     1     111.526 128.404 142.594  0.00  0.00    +0.000 C 
ATOM     52  C   UNL     1     112.059 128.982 142.342  0.00  0.00    +0.000 C 
ATOM     53  C   UNL     1     112.374 128.948 141.581  0.00  0.00    +0.000 C 
ATOM     54  C   UNL     1     112.907 129.526 141.330  0.00  0.00    +0.000 C 
ENDBRANCH  44  49
ENDBRANCH  38  44
ENDBRANCH  34  41
ENDBRANCH  33  34
ENDBRANCH   5  33
TORSDOF 9
ENDMDL
