MODEL 1
REMARK VINA RESULT:      -7.3      0.000      0.000
REMARK  Name = 10071564
REMARK  7 active torsions:
REMARK  status: ('A' for Active; 'I' for Inactive)
REMARK    1  A    between atoms: O_2  and  C_14
REMARK    2  A    between atoms: O_3  and  C_15
REMARK    3  A    between atoms: O_4  and  C_19
REMARK    4  A    between atoms: O_5  and  C_20
REMARK    5  A    between atoms: O_8  and  C_23
REMARK    6  A    between atoms: O_9  and  C_25
REMARK    7  A    between atoms: C_13  and  C_18
REMARK                            x       y       z     vdW  Elec       q    Type
REMARK                         _______ _______ _______ _____ _____    ______ ____
ROOT
ATOM      1  O   UNL     1     113.414 127.794 136.461  0.00  0.00    +0.000 OA
ATOM      2  O   UNL     1     112.962 130.077 138.180  0.00  0.00    +0.000 OA
ATOM      3  O   UNL     1     112.469 128.785 138.591  0.00  0.00    +0.000 OA
ATOM      4  C   UNL     1     113.186 128.951 137.330  0.00  0.00    +0.000 A 
ATOM      5  C   UNL     1     113.495 128.631 136.635  0.00  0.00    +0.000 A 
ATOM      6  C   UNL     1     113.006 127.283 137.019  0.00  0.00    +0.000 A 
ATOM      7  C   UNL     1     113.888 129.117 136.096  0.00  0.00    +0.000 A 
ATOM      8  C   UNL     1     112.684 127.616 137.742  0.00  0.00    +0.000 A 
ATOM      9  C   UNL     1     112.775 128.456 137.899  0.00  0.00    +0.000 A 
ATOM     10  C   UNL     1     113.271 129.757 137.485  0.00  0.00    +0.000 A 
ATOM     11  C   UNL     1     113.972 129.923 136.252  0.00  0.00    +0.000 A 
ATOM     12  C   UNL     1     113.663 130.243 136.947  0.00  0.00    +0.000 A 
ENDROOT
BRANCH   6  14
ATOM     13  O   UNL     1     111.502 125.118 135.913  0.00  0.00    +0.000 OA
ATOM     14  C   UNL     1     112.923 126.477 136.859  0.00  0.00    +0.000 A 
ATOM     15  C   UNL     1     113.512 125.948 137.094  0.00  0.00    +0.000 A 
ATOM     16  C   UNL     1     112.254 126.200 136.466  0.00  0.00    +0.000 A 
ATOM     17  C   UNL     1     113.430 125.143 136.935  0.00  0.00    +0.000 A 
ATOM     18  C   UNL     1     112.172 125.395 136.307  0.00  0.00    +0.000 A 
ATOM     19  C   UNL     1     112.760 124.866 136.542  0.00  0.00    +0.000 A 
BRANCH  17  20
ATOM     20  O   UNL     1     114.019 124.614 137.170  0.00  0.00    +0.000 OA
ATOM     21  C   UNL     1     114.793 124.881 137.279  0.00  0.00    +0.000 C 
ENDBRANCH  17  20
BRANCH  19  22
ATOM     22  O   UNL     1     112.679 124.061 136.383  0.00  0.00    +0.000 OA
ATOM     23  C   UNL     1     112.109 123.617 136.782  0.00  0.00    +0.000 C 
ENDBRANCH  19  22
ENDBRANCH   6  14
BRANCH   7  24
ATOM     24  O   UNL     1     114.197 128.797 135.401  0.00  0.00    +0.000 OA
ATOM     25  C   UNL     1     113.820 128.934 134.681  0.00  0.00    +0.000 C 
ENDBRANCH   7  24
BRANCH   8  26
ATOM     26  O   UNL     1     112.291 127.132 138.283  0.00  0.00    +0.000 OA
ATOM     27  C   UNL     1     112.238 127.357 139.075  0.00  0.00    +0.000 C 
ENDBRANCH   8  26
BRANCH  11  28
ATOM     28  O   UNL     1     114.366 130.409 135.713  0.00  0.00    +0.000 OA
ATOM     29  C   UNL     1     115.173 130.553 135.801  0.00  0.00    +0.000 C 
ENDBRANCH  11  28
BRANCH  12  30
ATOM     30  O   UNL     1     113.748 131.049 137.102  0.00  0.00    +0.000 OA
ATOM     31  C   UNL     1     113.099 131.552 137.036  0.00  0.00    +0.000 C 
ENDBRANCH  12  30
TORSDOF 7
ENDMDL
MODEL 2
REMARK VINA RESULT:      -7.2      2.282      5.046
REMARK  Name = 10071564
REMARK  7 active torsions:
REMARK  status: ('A' for Active; 'I' for Inactive)
REMARK    1  A    between atoms: O_2  and  C_14
REMARK    2  A    between atoms: O_3  and  C_15
REMARK    3  A    between atoms: O_4  and  C_19
REMARK    4  A    between atoms: O_5  and  C_20
REMARK    5  A    between atoms: O_8  and  C_23
REMARK    6  A    between atoms: O_9  and  C_25
REMARK    7  A    between atoms: C_13  and  C_18
REMARK                            x       y       z     vdW  Elec       q    Type
REMARK                         _______ _______ _______ _____ _____    ______ ____
ROOT
ATOM      1  O   UNL     1     112.004 126.800 136.517  0.00  0.00    +0.000 OA
ATOM      2  O   UNL     1     111.607 123.980 136.004  0.00  0.00    +0.000 OA
ATOM      3  O   UNL     1     110.686 124.932 135.430  0.00  0.00    +0.000 OA
ATOM      4  C   UNL     1     111.805 125.372 136.259  0.00  0.00    +0.000 A 
ATOM      5  C   UNL     1     112.237 125.979 136.614  0.00  0.00    +0.000 A 
ATOM      6  C   UNL     1     111.313 126.993 136.044  0.00  0.00    +0.000 A 
ATOM      7  C   UNL     1     112.901 125.801 137.070  0.00  0.00    +0.000 A 
ATOM      8  C   UNL     1     110.864 126.361 135.673  0.00  0.00    +0.000 A 
ATOM      9  C   UNL     1     111.112 125.545 135.782  0.00  0.00    +0.000 A 
ATOM     10  C   UNL     1     112.039 124.587 136.359  0.00  0.00    +0.000 A 
ATOM     11  C   UNL     1     113.134 125.016 137.170  0.00  0.00    +0.000 A 
ATOM     12  C   UNL     1     112.702 124.409 136.815  0.00  0.00    +0.000 A 
ENDROOT
BRANCH   6  14
ATOM     13  O   UNL     1     111.480 129.461 134.612  0.00  0.00    +0.000 OA
ATOM     14  C   UNL     1     111.083 127.779 135.945  0.00  0.00    +0.000 A 
ATOM     15  C   UNL     1     110.539 128.117 136.466  0.00  0.00    +0.000 A 
ATOM     16  C   UNL     1     111.396 128.228 135.328  0.00  0.00    +0.000 A 
ATOM     17  C   UNL     1     110.308 128.903 136.368  0.00  0.00    +0.000 A 
ATOM     18  C   UNL     1     111.166 129.013 135.230  0.00  0.00    +0.000 A 
ATOM     19  C   UNL     1     110.622 129.352 135.750  0.00  0.00    +0.000 A 
BRANCH  17  20
ATOM     20  O   UNL     1     109.764 129.241 136.888  0.00  0.00    +0.000 OA
ATOM     21  C   UNL     1     109.704 128.960 137.662  0.00  0.00    +0.000 C 
ENDBRANCH  17  20
BRANCH  19  22
ATOM     22  O   UNL     1     110.392 130.137 135.653  0.00  0.00    +0.000 OA
ATOM     23  C   UNL     1     109.923 130.353 135.008  0.00  0.00    +0.000 C 
ENDBRANCH  19  22
ENDBRANCH   6  14
BRANCH   7  24
ATOM     24  O   UNL     1     113.333 126.408 137.426  0.00  0.00    +0.000 OA
ATOM     25  C   UNL     1     113.240 126.562 138.230  0.00  0.00    +0.000 C 
ENDBRANCH   7  24
BRANCH   8  26
ATOM     26  O   UNL     1     110.199 126.536 135.217  0.00  0.00    +0.000 OA
ATOM     27  C   UNL     1     109.909 125.981 134.681  0.00  0.00    +0.000 C 
ENDBRANCH   8  26
BRANCH  11  28
ATOM     28  O   UNL     1     113.798 124.838 137.626  0.00  0.00    +0.000 OA
ATOM     29  C   UNL     1     114.537 124.762 137.266  0.00  0.00    +0.000 C 
ENDBRANCH  11  28
BRANCH  12  30
ATOM     30  O   UNL     1     112.936 123.624 136.915  0.00  0.00    +0.000 OA
ATOM     31  C   UNL     1     112.447 123.096 137.317  0.00  0.00    +0.000 C 
ENDBRANCH  12  30
TORSDOF 7
ENDMDL
MODEL 3
REMARK VINA RESULT:      -7.2      1.283      4.813
REMARK  Name = 10071564
REMARK  7 active torsions:
REMARK  status: ('A' for Active; 'I' for Inactive)
REMARK    1  A    between atoms: O_2  and  C_14
REMARK    2  A    between atoms: O_3  and  C_15
REMARK    3  A    between atoms: O_4  and  C_19
REMARK    4  A    between atoms: O_5  and  C_20
REMARK    5  A    between atoms: O_8  and  C_23
REMARK    6  A    between atoms: O_9  and  C_25
REMARK    7  A    between atoms: C_13  and  C_18
REMARK                            x       y       z     vdW  Elec       q    Type
REMARK                         _______ _______ _______ _____ _____    ______ ____
ROOT
ATOM      1  O   UNL     1     113.516 127.612 136.340  0.00  0.00    +0.000 OA
ATOM      2  O   UNL     1     110.940 126.430 135.757  0.00  0.00    +0.000 OA
ATOM      3  O   UNL     1     111.205 127.780 135.321  0.00  0.00    +0.000 OA
ATOM      4  C   UNL     1     112.213 127.012 136.046  0.00  0.00    +0.000 A 
ATOM      5  C   UNL     1     112.965 126.954 136.379  0.00  0.00    +0.000 A 
ATOM      6  C   UNL     1     113.281 128.340 135.949  0.00  0.00    +0.000 A 
ATOM      7  C   UNL     1     113.198 126.257 136.756  0.00  0.00    +0.000 A 
ATOM      8  C   UNL     1     112.497 128.400 135.602  0.00  0.00    +0.000 A 
ATOM      9  C   UNL     1     111.959 127.731 135.651  0.00  0.00    +0.000 A 
ATOM     10  C   UNL     1     111.693 126.373 136.090  0.00  0.00    +0.000 A 
ATOM     11  C   UNL     1     112.677 125.619 136.799  0.00  0.00    +0.000 A 
ATOM     12  C   UNL     1     111.925 125.677 136.466  0.00  0.00    +0.000 A 
ENDROOT
BRANCH   6  14
ATOM     13  O   UNL     1     115.393 129.726 134.612  0.00  0.00    +0.000 OA
ATOM     14  C   UNL     1     113.804 128.977 135.908  0.00  0.00    +0.000 A 
ATOM     15  C   UNL     1     113.793 129.558 136.494  0.00  0.00    +0.000 A 
ATOM     16  C   UNL     1     114.337 129.034 135.281  0.00  0.00    +0.000 A 
ATOM     17  C   UNL     1     114.316 130.195 136.453  0.00  0.00    +0.000 A 
ATOM     18  C   UNL     1     114.859 129.670 135.239  0.00  0.00    +0.000 A 
ATOM     19  C   UNL     1     114.849 130.251 135.826  0.00  0.00    +0.000 A 
BRANCH  17  20
ATOM     20  O   UNL     1     114.305 130.776 137.039  0.00  0.00    +0.000 OA
ATOM     21  C   UNL     1     114.038 130.591 137.798  0.00  0.00    +0.000 C 
ENDBRANCH  17  20
BRANCH  19  22
ATOM     22  O   UNL     1     115.371 130.888 135.784  0.00  0.00    +0.000 OA
ATOM     23  C   UNL     1     115.360 131.390 135.129  0.00  0.00    +0.000 C 
ENDBRANCH  19  22
ENDBRANCH   6  14
BRANCH   7  24
ATOM     24  O   UNL     1     113.951 126.200 137.089  0.00  0.00    +0.000 OA
ATOM     25  C   UNL     1     114.042 126.230 137.908  0.00  0.00    +0.000 C 
ENDBRANCH   7  24
BRANCH   8  26
ATOM     26  O   UNL     1     112.262 129.096 135.225  0.00  0.00    +0.000 OA
ATOM     27  C   UNL     1     111.483 129.182 134.967  0.00  0.00    +0.000 C 
ENDBRANCH   8  26
BRANCH  11  28
ATOM     28  O   UNL     1     112.910 124.922 137.176  0.00  0.00    +0.000 OA
ATOM     29  C   UNL     1     113.248 124.311 136.739  0.00  0.00    +0.000 C 
ENDBRANCH  11  28
BRANCH  12  30
ATOM     30  O   UNL     1     111.405 125.038 136.510  0.00  0.00    +0.000 OA
ATOM     31  C   UNL     1     110.772 125.055 137.038  0.00  0.00    +0.000 C 
ENDBRANCH  12  30
TORSDOF 7
ENDMDL
MODEL 4
REMARK VINA RESULT:      -7.1      7.841     10.376
REMARK  Name = 10071564
REMARK  7 active torsions:
REMARK  status: ('A' for Active; 'I' for Inactive)
REMARK    1  A    between atoms: O_2  and  C_14
REMARK    2  A    between atoms: O_3  and  C_15
REMARK    3  A    between atoms: O_4  and  C_19
REMARK    4  A    between atoms: O_5  and  C_20
REMARK    5  A    between atoms: O_8  and  C_23
REMARK    6  A    between atoms: O_9  and  C_25
REMARK    7  A    between atoms: C_13  and  C_18
REMARK                            x       y       z     vdW  Elec       q    Type
REMARK                         _______ _______ _______ _____ _____    ______ ____
ROOT
ATOM      1  O   UNL     1     111.612 131.463 145.258  0.00  0.00    +0.000 OA
ATOM      2  O   UNL     1     112.347 131.803 142.480  0.00  0.00    +0.000 OA
ATOM      3  O   UNL     1     112.431 132.936 143.369  0.00  0.00    +0.000 OA
ATOM      4  C   UNL     1     111.983 131.633 143.851  0.00  0.00    +0.000 A 
ATOM      5  C   UNL     1     111.717 131.150 144.465  0.00  0.00    +0.000 A 
ATOM      6  C   UNL     1     111.788 132.290 145.415  0.00  0.00    +0.000 A 
ATOM      7  C   UNL     1     111.546 130.355 144.321  0.00  0.00    +0.000 A 
ATOM      8  C   UNL     1     112.066 132.792 144.776  0.00  0.00    +0.000 A 
ATOM      9  C   UNL     1     112.164 132.461 143.988  0.00  0.00    +0.000 A 
ATOM     10  C   UNL     1     112.080 131.320 143.094  0.00  0.00    +0.000 A 
ATOM     11  C   UNL     1     111.642 130.044 143.563  0.00  0.00    +0.000 A 
ATOM     12  C   UNL     1     111.909 130.527 142.950  0.00  0.00    +0.000 A 
ENDROOT
BRANCH   6  14
ATOM     13  O   UNL     1     112.831 132.831 148.020  0.00  0.00    +0.000 OA
ATOM     14  C   UNL     1     111.691 132.598 146.174  0.00  0.00    +0.000 A 
ATOM     15  C   UNL     1     110.973 132.944 146.389  0.00  0.00    +0.000 A 
ATOM     16  C   UNL     1     112.310 132.561 146.718  0.00  0.00    +0.000 A 
ATOM     17  C   UNL     1     110.875 133.253 147.148  0.00  0.00    +0.000 A 
ATOM     18  C   UNL     1     112.212 132.869 147.476  0.00  0.00    +0.000 A 
ATOM     19  C   UNL     1     111.494 133.215 147.692  0.00  0.00    +0.000 A 
BRANCH  17  20
ATOM     20  O   UNL     1     110.158 133.599 147.363  0.00  0.00    +0.000 OA
ATOM     21  C   UNL     1     109.464 133.387 146.969  0.00  0.00    +0.000 C 
ENDBRANCH  17  20
BRANCH  19  22
ATOM     22  O   UNL     1     111.397 133.524 148.450  0.00  0.00    +0.000 OA
ATOM     23  C   UNL     1     111.719 133.130 149.101  0.00  0.00    +0.000 C 
ENDBRANCH  19  22
ENDBRANCH   6  14
BRANCH   7  24
ATOM     24  O   UNL     1     111.279 129.873 144.935  0.00  0.00    +0.000 OA
ATOM     25  C   UNL     1     111.797 129.346 145.300  0.00  0.00    +0.000 C 
ENDBRANCH   7  24
BRANCH   8  26
ATOM     26  O   UNL     1     112.238 133.586 144.917  0.00  0.00    +0.000 OA
ATOM     27  C   UNL     1     112.163 134.139 144.309  0.00  0.00    +0.000 C 
ENDBRANCH   8  26
BRANCH  11  28
ATOM     28  O   UNL     1     111.471 129.249 143.419  0.00  0.00    +0.000 OA
ATOM     29  C   UNL     1     110.728 129.033 143.135  0.00  0.00    +0.000 C 
ENDBRANCH  11  28
BRANCH  12  30
ATOM     30  O   UNL     1     112.005 130.214 142.192  0.00  0.00    +0.000 OA
ATOM     31  C   UNL     1     112.762 130.103 141.884  0.00  0.00    +0.000 C 
ENDBRANCH  12  30
TORSDOF 7
ENDMDL
MODEL 5
REMARK VINA RESULT:      -7.0      1.330      2.005
REMARK  Name = 10071564
REMARK  7 active torsions:
REMARK  status: ('A' for Active; 'I' for Inactive)
REMARK    1  A    between atoms: O_2  and  C_14
REMARK    2  A    between atoms: O_3  and  C_15
REMARK    3  A    between atoms: O_4  and  C_19
REMARK    4  A    between atoms: O_5  and  C_20
REMARK    5  A    between atoms: O_8  and  C_23
REMARK    6  A    between atoms: O_9  and  C_25
REMARK    7  A    between atoms: C_13  and  C_18
REMARK                            x       y       z     vdW  Elec       q    Type
REMARK                         _______ _______ _______ _____ _____    ______ ____
ROOT
ATOM      1  O   UNL     1     112.773 127.747 137.490  0.00  0.00    +0.000 OA
ATOM      2  O   UNL     1     111.903 130.090 136.031  0.00  0.00    +0.000 OA
ATOM      3  O   UNL     1     111.615 128.783 135.491  0.00  0.00    +0.000 OA
ATOM      4  C   UNL     1     112.334 128.934 136.753  0.00  0.00    +0.000 A 
ATOM      5  C   UNL     1     112.711 128.600 137.406  0.00  0.00    +0.000 A 
ATOM      6  C   UNL     1     112.436 127.236 136.887  0.00  0.00    +0.000 A 
ATOM      7  C   UNL     1     113.037 129.085 137.989  0.00  0.00    +0.000 A 
ATOM      8  C   UNL     1     112.043 127.584 136.207  0.00  0.00    +0.000 A 
ATOM      9  C   UNL     1     111.991 128.440 136.140  0.00  0.00    +0.000 A 
ATOM     10  C   UNL     1     112.281 129.755 136.684  0.00  0.00    +0.000 A 
ATOM     11  C   UNL     1     112.984 129.906 137.918  0.00  0.00    +0.000 A 
ATOM     12  C   UNL     1     112.606 130.240 137.266  0.00  0.00    +0.000 A 
ENDROOT
BRANCH   6  14
ATOM     13  O   UNL     1     111.347 124.753 137.790  0.00  0.00    +0.000 OA
ATOM     14  C   UNL     1     112.491 126.415 136.960  0.00  0.00    +0.000 A 
ATOM     15  C   UNL     1     113.146 126.017 136.655  0.00  0.00    +0.000 A 
ATOM     16  C   UNL     1     111.892 125.993 137.339  0.00  0.00    +0.000 A 
ATOM     17  C   UNL     1     113.201 125.197 136.728  0.00  0.00    +0.000 A 
ATOM     18  C   UNL     1     111.946 125.174 137.412  0.00  0.00    +0.000 A 
ATOM     19  C   UNL     1     112.602 124.776 137.106  0.00  0.00    +0.000 A 
BRANCH  17  20
ATOM     20  O   UNL     1     113.856 124.799 136.422  0.00  0.00    +0.000 OA
ATOM     21  C   UNL     1     114.596 125.165 136.419  0.00  0.00    +0.000 C 
ENDBRANCH  17  20
BRANCH  19  22
ATOM     22  O   UNL     1     112.657 123.956 137.179  0.00  0.00    +0.000 OA
ATOM     23  C   UNL     1     112.104 123.470 136.805  0.00  0.00    +0.000 C 
ENDBRANCH  19  22
ENDBRANCH   6  14
BRANCH   7  24
ATOM     24  O   UNL     1     113.415 128.751 138.642  0.00  0.00    +0.000 OA
ATOM     25  C   UNL     1     113.023 128.704 139.365  0.00  0.00    +0.000 C 
ENDBRANCH   7  24
BRANCH   8  26
ATOM     26  O   UNL     1     111.717 127.101 135.624  0.00  0.00    +0.000 OA
ATOM     27  C   UNL     1     111.121 127.392 135.133  0.00  0.00    +0.000 C 
ENDBRANCH   8  26
BRANCH  11  28
ATOM     28  O   UNL     1     113.309 130.391 138.501  0.00  0.00    +0.000 OA
ATOM     29  C   UNL     1     114.083 130.666 138.424  0.00  0.00    +0.000 C 
ENDBRANCH  11  28
BRANCH  12  30
ATOM     30  O   UNL     1     112.553 131.061 137.196  0.00  0.00    +0.000 OA
ATOM     31  C   UNL     1     111.828 131.439 137.303  0.00  0.00    +0.000 C 
ENDBRANCH  12  30
TORSDOF 7
ENDMDL
MODEL 6
REMARK VINA RESULT:      -7.0      1.138      4.851
REMARK  Name = 10071564
REMARK  7 active torsions:
REMARK  status: ('A' for Active; 'I' for Inactive)
REMARK    1  A    between atoms: O_2  and  C_14
REMARK    2  A    between atoms: O_3  and  C_15
REMARK    3  A    between atoms: O_4  and  C_19
REMARK    4  A    between atoms: O_5  and  C_20
REMARK    5  A    between atoms: O_8  and  C_23
REMARK    6  A    between atoms: O_9  and  C_25
REMARK    7  A    between atoms: C_13  and  C_18
REMARK                            x       y       z     vdW  Elec       q    Type
REMARK                         _______ _______ _______ _____ _____    ______ ____
ROOT
ATOM      1  O   UNL     1     112.838 127.381 137.108  0.00  0.00    +0.000 OA
ATOM      2  O   UNL     1     111.662 125.134 135.714  0.00  0.00    +0.000 OA
ATOM      3  O   UNL     1     111.172 126.463 135.436  0.00  0.00    +0.000 OA
ATOM      4  C   UNL     1     112.244 126.242 136.403  0.00  0.00    +0.000 A 
ATOM      5  C   UNL     1     112.788 126.538 136.948  0.00  0.00    +0.000 A 
ATOM      6  C   UNL     1     112.315 127.923 136.693  0.00  0.00    +0.000 A 
ATOM      7  C   UNL     1     113.293 126.023 137.350  0.00  0.00    +0.000 A 
ATOM      8  C   UNL     1     111.749 127.614 136.126  0.00  0.00    +0.000 A 
ATOM      9  C   UNL     1     111.713 126.767 135.980  0.00  0.00    +0.000 A 
ATOM     10  C   UNL     1     112.206 125.430 136.259  0.00  0.00    +0.000 A 
ATOM     11  C   UNL     1     113.254 125.212 137.205  0.00  0.00    +0.000 A 
ATOM     12  C   UNL     1     112.710 124.915 136.660  0.00  0.00    +0.000 A 
ENDROOT
BRANCH   6  14
ATOM     13  O   UNL     1     111.404 130.233 138.108  0.00  0.00    +0.000 OA
ATOM     14  C   UNL     1     112.356 128.734 136.840  0.00  0.00    +0.000 A 
ATOM     15  C   UNL     1     112.896 129.200 136.425  0.00  0.00    +0.000 A 
ATOM     16  C   UNL     1     111.859 129.078 137.401  0.00  0.00    +0.000 A 
ATOM     17  C   UNL     1     112.938 130.011 136.572  0.00  0.00    +0.000 A 
ATOM     18  C   UNL     1     111.901 129.888 137.547  0.00  0.00    +0.000 A 
ATOM     19  C   UNL     1     112.441 130.356 137.133  0.00  0.00    +0.000 A 
BRANCH  17  20
ATOM     20  O   UNL     1     113.478 130.478 136.157  0.00  0.00    +0.000 OA
ATOM     21  C   UNL     1     114.177 130.144 135.872  0.00  0.00    +0.000 C 
ENDBRANCH  17  20
BRANCH  19  22
ATOM     22  O   UNL     1     112.483 131.165 137.279  0.00  0.00    +0.000 OA
ATOM     23  C   UNL     1     111.844 131.653 137.088  0.00  0.00    +0.000 C 
ENDBRANCH  19  22
ENDBRANCH   6  14
BRANCH   7  24
ATOM     24  O   UNL     1     113.837 126.319 137.895  0.00  0.00    +0.000 OA
ATOM     25  C   UNL     1     113.677 126.276 138.702  0.00  0.00    +0.000 C 
ENDBRANCH   7  24
BRANCH   8  26
ATOM     26  O   UNL     1     111.243 128.127 135.723  0.00  0.00    +0.000 OA
ATOM     27  C   UNL     1     110.923 127.904 134.996  0.00  0.00    +0.000 C 
ENDBRANCH   8  26
BRANCH  11  28
ATOM     28  O   UNL     1     113.759 124.697 137.606  0.00  0.00    +0.000 OA
ATOM     29  C   UNL     1     114.508 124.533 137.300  0.00  0.00    +0.000 C 
ENDBRANCH  11  28
BRANCH  12  30
ATOM     30  O   UNL     1     112.672 124.104 136.516  0.00  0.00    +0.000 OA
ATOM     31  C   UNL     1     112.054 123.658 136.829  0.00  0.00    +0.000 C 
ENDBRANCH  12  30
TORSDOF 7
ENDMDL
MODEL 7
REMARK VINA RESULT:      -7.0     11.655     14.250
REMARK  Name = 10071564
REMARK  7 active torsions:
REMARK  status: ('A' for Active; 'I' for Inactive)
REMARK    1  A    between atoms: O_2  and  C_14
REMARK    2  A    between atoms: O_3  and  C_15
REMARK    3  A    between atoms: O_4  and  C_19
REMARK    4  A    between atoms: O_5  and  C_20
REMARK    5  A    between atoms: O_8  and  C_23
REMARK    6  A    between atoms: O_9  and  C_25
REMARK    7  A    between atoms: C_13  and  C_18
REMARK                            x       y       z     vdW  Elec       q    Type
REMARK                         _______ _______ _______ _____ _____    ______ ____
ROOT
ATOM      1  O   UNL     1     104.255 124.906 147.117  0.00  0.00    +0.000 OA
ATOM      2  O   UNL     1     102.940 122.844 145.571  0.00  0.00    +0.000 OA
ATOM      3  O   UNL     1     104.164 123.420 145.069  0.00  0.00    +0.000 OA
ATOM      4  C   UNL     1     103.587 123.862 146.336  0.00  0.00    +0.000 A 
ATOM      5  C   UNL     1     103.614 124.345 147.004  0.00  0.00    +0.000 A 
ATOM      6  C   UNL     1     104.876 124.965 146.525  0.00  0.00    +0.000 A 
ATOM      7  C   UNL     1     103.021 124.293 147.576  0.00  0.00    +0.000 A 
ATOM      8  C   UNL     1     104.848 124.463 145.830  0.00  0.00    +0.000 A 
ATOM      9  C   UNL     1     104.199 123.907 145.734  0.00  0.00    +0.000 A 
ATOM     10  C   UNL     1     102.967 123.327 146.239  0.00  0.00    +0.000 A 
ATOM     11  C   UNL     1     102.401 123.757 147.478  0.00  0.00    +0.000 A 
ATOM     12  C   UNL     1     102.374 123.274 146.810  0.00  0.00    +0.000 A 
ENDROOT
BRANCH   6  14
ATOM     13  O   UNL     1     105.946 127.598 146.215  0.00  0.00    +0.000 OA
ATOM     14  C   UNL     1     105.495 125.502 146.626  0.00  0.00    +0.000 A 
ATOM     15  C   UNL     1     106.198 125.258 146.983  0.00  0.00    +0.000 A 
ATOM     16  C   UNL     1     105.411 126.282 146.370  0.00  0.00    +0.000 A 
ATOM     17  C   UNL     1     106.817 125.794 147.083  0.00  0.00    +0.000 A 
ATOM     18  C   UNL     1     106.029 126.818 146.471  0.00  0.00    +0.000 A 
ATOM     19  C   UNL     1     106.733 126.574 146.828  0.00  0.00    +0.000 A 
BRANCH  17  20
ATOM     20  O   UNL     1     107.520 125.550 147.440  0.00  0.00    +0.000 OA
ATOM     21  C   UNL     1     107.504 124.973 148.030  0.00  0.00    +0.000 C 
ENDBRANCH  17  20
BRANCH  19  22
ATOM     22  O   UNL     1     107.352 127.109 146.928  0.00  0.00    +0.000 OA
ATOM     23  C   UNL     1     107.590 127.589 146.299  0.00  0.00    +0.000 C 
ENDBRANCH  19  22
ENDBRANCH   6  14
BRANCH   7  24
ATOM     24  O   UNL     1     103.048 124.776 148.244  0.00  0.00    +0.000 OA
ATOM     25  C   UNL     1     102.560 125.438 148.294  0.00  0.00    +0.000 C 
ENDBRANCH   7  24
BRANCH   8  26
ATOM     26  O   UNL     1     105.439 124.513 145.257  0.00  0.00    +0.000 OA
ATOM     27  C   UNL     1     105.301 124.230 144.495  0.00  0.00    +0.000 C 
ENDBRANCH   8  26
BRANCH  11  28
ATOM     28  O   UNL     1     101.808 123.705 148.050  0.00  0.00    +0.000 OA
ATOM     29  C   UNL     1     101.866 123.147 148.654  0.00  0.00    +0.000 C 
ENDBRANCH  11  28
BRANCH  12  30
ATOM     30  O   UNL     1     101.753 122.739 146.713  0.00  0.00    +0.000 OA
ATOM     31  C   UNL     1     101.162 122.889 146.159  0.00  0.00    +0.000 C 
ENDBRANCH  12  30
TORSDOF 7
ENDMDL
MODEL 8
REMARK VINA RESULT:      -7.0      9.537     11.751
REMARK  Name = 10071564
REMARK  7 active torsions:
REMARK  status: ('A' for Active; 'I' for Inactive)
REMARK    1  A    between atoms: O_2  and  C_14
REMARK    2  A    between atoms: O_3  and  C_15
REMARK    3  A    between atoms: O_4  and  C_19
REMARK    4  A    between atoms: O_5  and  C_20
REMARK    5  A    between atoms: O_8  and  C_23
REMARK    6  A    between atoms: O_9  and  C_25
REMARK    7  A    between atoms: C_13  and  C_18
REMARK                            x       y       z     vdW  Elec       q    Type
REMARK                         _______ _______ _______ _____ _____    ______ ____
ROOT
ATOM      1  O   UNL     1     106.470 125.645 145.504  0.00  0.00    +0.000 OA
ATOM      2  O   UNL     1     106.068 128.200 144.207  0.00  0.00    +0.000 OA
ATOM      3  O   UNL     1     106.321 128.169 145.627  0.00  0.00    +0.000 OA
ATOM      4  C   UNL     1     106.266 126.937 144.845  0.00  0.00    +0.000 A 
ATOM      5  C   UNL     1     106.314 126.115 144.802  0.00  0.00    +0.000 A 
ATOM      6  C   UNL     1     106.577 126.036 146.261  0.00  0.00    +0.000 A 
ATOM      7  C   UNL     1     106.212 125.733 144.077  0.00  0.00    +0.000 A 
ATOM      8  C   UNL     1     106.527 126.893 146.306  0.00  0.00    +0.000 A 
ATOM      9  C   UNL     1     106.370 127.346 145.593  0.00  0.00    +0.000 A 
ATOM     10  C   UNL     1     106.116 127.377 144.163  0.00  0.00    +0.000 A 
ATOM     11  C   UNL     1     106.062 126.174 143.396  0.00  0.00    +0.000 A 
ATOM     12  C   UNL     1     106.014 126.996 143.440  0.00  0.00    +0.000 A 
ENDROOT
BRANCH   6  14
ATOM     13  O   UNL     1     108.431 124.865 148.095  0.00  0.00    +0.000 OA
ATOM     14  C   UNL     1     106.727 125.592 146.941  0.00  0.00    +0.000 A 
ATOM     15  C   UNL     1     106.099 125.290 147.382  0.00  0.00    +0.000 A 
ATOM     16  C   UNL     1     107.504 125.450 147.179  0.00  0.00    +0.000 A 
ATOM     17  C   UNL     1     106.248 124.846 148.061  0.00  0.00    +0.000 A 
ATOM     18  C   UNL     1     107.654 125.007 147.857  0.00  0.00    +0.000 A 
ATOM     19  C   UNL     1     107.025 124.704 148.299  0.00  0.00    +0.000 A 
BRANCH  17  20
ATOM     20  O   UNL     1     105.620 124.543 148.503  0.00  0.00    +0.000 OA
ATOM     21  C   UNL     1     104.859 124.533 148.183  0.00  0.00    +0.000 C 
ENDBRANCH  17  20
BRANCH  19  22
ATOM     22  O   UNL     1     107.175 124.261 148.977  0.00  0.00    +0.000 OA
ATOM     23  C   UNL     1     107.580 124.600 149.612  0.00  0.00    +0.000 C 
ENDBRANCH  19  22
ENDBRANCH   6  14
BRANCH   7  24
ATOM     24  O   UNL     1     106.260 124.910 144.034  0.00  0.00    +0.000 OA
ATOM     25  C   UNL     1     105.571 124.458 144.013  0.00  0.00    +0.000 C 
ENDBRANCH   7  24
BRANCH   8  26
ATOM     26  O   UNL     1     106.629 127.277 147.029  0.00  0.00    +0.000 OA
ATOM     27  C   UNL     1     106.281 128.014 147.157  0.00  0.00    +0.000 C 
ENDBRANCH   8  26
BRANCH  11  28
ATOM     28  O   UNL     1     105.960 125.792 142.672  0.00  0.00    +0.000 OA
ATOM     29  C   UNL     1     106.600 125.703 142.159  0.00  0.00    +0.000 C 
ENDBRANCH  11  28
BRANCH  12  30
ATOM     30  O   UNL     1     105.864 127.437 142.758  0.00  0.00    +0.000 OA
ATOM     31  C   UNL     1     105.136 127.811 142.660  0.00  0.00    +0.000 C 
ENDBRANCH  12  30
TORSDOF 7
ENDMDL
MODEL 9
REMARK VINA RESULT:      -6.9      1.842      4.909
REMARK  Name = 10071564
REMARK  7 active torsions:
REMARK  status: ('A' for Active; 'I' for Inactive)
REMARK    1  A    between atoms: O_2  and  C_14
REMARK    2  A    between atoms: O_3  and  C_15
REMARK    3  A    between atoms: O_4  and  C_19
REMARK    4  A    between atoms: O_5  and  C_20
REMARK    5  A    between atoms: O_8  and  C_23
REMARK    6  A    between atoms: O_9  and  C_25
REMARK    7  A    between atoms: C_13  and  C_18
REMARK                            x       y       z     vdW  Elec       q    Type
REMARK                         _______ _______ _______ _____ _____    ______ ____
ROOT
ATOM      1  O   UNL     1     111.846 127.339 136.719  0.00  0.00    +0.000 OA
ATOM      2  O   UNL     1     114.458 126.150 136.350  0.00  0.00    +0.000 OA
ATOM      3  O   UNL     1     114.297 127.566 136.125  0.00  0.00    +0.000 OA
ATOM      4  C   UNL     1     113.168 126.735 136.533  0.00  0.00    +0.000 A 
ATOM      5  C   UNL     1     112.370 126.658 136.727  0.00  0.00    +0.000 A 
ATOM      6  C   UNL     1     112.158 128.111 136.506  0.00  0.00    +0.000 A 
ATOM      7  C   UNL     1     112.064 125.919 136.932  0.00  0.00    +0.000 A 
ATOM      8  C   UNL     1     112.989 128.191 136.304  0.00  0.00    +0.000 A 
ATOM      9  C   UNL     1     113.497 127.498 136.318  0.00  0.00    +0.000 A 
ATOM     10  C   UNL     1     113.660 126.073 136.544  0.00  0.00    +0.000 A 
ATOM     11  C   UNL     1     112.557 125.258 136.943  0.00  0.00    +0.000 A 
ATOM     12  C   UNL     1     113.355 125.335 136.749  0.00  0.00    +0.000 A 
ENDROOT
BRANCH   6  14
ATOM     13  O   UNL     1     111.038 130.387 137.823  0.00  0.00    +0.000 OA
ATOM     14  C   UNL     1     111.662 128.771 136.496  0.00  0.00    +0.000 A 
ATOM     15  C   UNL     1     111.230 128.951 135.817  0.00  0.00    +0.000 A 
ATOM     16  C   UNL     1     111.598 129.250 137.165  0.00  0.00    +0.000 A 
ATOM     17  C   UNL     1     110.734 129.610 135.806  0.00  0.00    +0.000 A 
ATOM     18  C   UNL     1     111.102 129.908 137.155  0.00  0.00    +0.000 A 
ATOM     19  C   UNL     1     110.670 130.089 136.474  0.00  0.00    +0.000 A 
BRANCH  17  20
ATOM     20  O   UNL     1     110.302 129.790 135.126  0.00  0.00    +0.000 OA
ATOM     21  C   UNL     1     110.072 129.187 134.612  0.00  0.00    +0.000 C 
ENDBRANCH  17  20
BRANCH  19  22
ATOM     22  O   UNL     1     110.174 130.747 136.464  0.00  0.00    +0.000 OA
ATOM     23  C   UNL     1     110.495 131.507 136.518  0.00  0.00    +0.000 C 
ENDBRANCH  19  22
ENDBRANCH   6  14
BRANCH   7  24
ATOM     24  O   UNL     1     111.266 125.842 137.126  0.00  0.00    +0.000 OA
ATOM     25  C   UNL     1     111.039 125.771 137.915  0.00  0.00    +0.000 C 
ENDBRANCH   7  24
BRANCH   8  26
ATOM     26  O   UNL     1     113.297 128.928 136.099  0.00  0.00    +0.000 OA
ATOM     27  C   UNL     1     114.006 128.977 135.680  0.00  0.00    +0.000 C 
ENDBRANCH   8  26
BRANCH  11  28
ATOM     28  O   UNL     1     112.252 124.519 137.148  0.00  0.00    +0.000 OA
ATOM     29  C   UNL     1     111.969 124.012 136.562  0.00  0.00    +0.000 C 
ENDBRANCH  11  28
BRANCH  12  30
ATOM     30  O   UNL     1     113.848 124.673 136.760  0.00  0.00    +0.000 OA
ATOM     31  C   UNL     1     114.446 124.612 137.325  0.00  0.00    +0.000 C 
ENDBRANCH  12  30
TORSDOF 7
ENDMDL
MODEL 10
REMARK VINA RESULT:      -6.9      2.073      4.983
REMARK  Name = 10071564
REMARK  7 active torsions:
REMARK  status: ('A' for Active; 'I' for Inactive)
REMARK    1  A    between atoms: O_2  and  C_14
REMARK    2  A    between atoms: O_3  and  C_15
REMARK    3  A    between atoms: O_4  and  C_19
REMARK    4  A    between atoms: O_5  and  C_20
REMARK    5  A    between atoms: O_8  and  C_23
REMARK    6  A    between atoms: O_9  and  C_25
REMARK    7  A    between atoms: C_13  and  C_18
REMARK                            x       y       z     vdW  Elec       q    Type
REMARK                         _______ _______ _______ _____ _____    ______ ____
ROOT
ATOM      1  O   UNL     1     112.522 127.613 138.426  0.00  0.00    +0.000 OA
ATOM      2  O   UNL     1     111.186 125.070 138.775  0.00  0.00    +0.000 OA
ATOM      3  O   UNL     1     111.412 125.905 139.930  0.00  0.00    +0.000 OA
ATOM      4  C   UNL     1     111.846 126.325 138.600  0.00  0.00    +0.000 A 
ATOM      5  C   UNL     1     112.207 126.880 138.108  0.00  0.00    +0.000 A 
ATOM      6  C   UNL     1     112.460 127.771 139.269  0.00  0.00    +0.000 A 
ATOM      7  C   UNL     1     112.270 126.734 137.297  0.00  0.00    +0.000 A 
ATOM      8  C   UNL     1     112.084 127.194 139.781  0.00  0.00    +0.000 A 
ATOM      9  C   UNL     1     111.775 126.466 139.444  0.00  0.00    +0.000 A 
ATOM     10  C   UNL     1     111.548 125.625 138.282  0.00  0.00    +0.000 A 
ATOM     11  C   UNL     1     111.971 126.034 136.981  0.00  0.00    +0.000 A 
ATOM     12  C   UNL     1     111.610 125.479 137.473  0.00  0.00    +0.000 A 
ENDROOT
BRANCH   6  14
ATOM     13  O   UNL     1     114.571 129.206 140.555  0.00  0.00    +0.000 OA
ATOM     14  C   UNL     1     112.759 128.474 139.583  0.00  0.00    +0.000 A 
ATOM     15  C   UNL     1     112.302 129.160 139.566  0.00  0.00    +0.000 A 
ATOM     16  C   UNL     1     113.516 128.489 139.912  0.00  0.00    +0.000 A 
ATOM     17  C   UNL     1     112.601 129.862 139.880  0.00  0.00    +0.000 A 
ATOM     18  C   UNL     1     113.815 129.190 140.226  0.00  0.00    +0.000 A 
ATOM     19  C   UNL     1     113.357 129.878 140.210  0.00  0.00    +0.000 A 
BRANCH  17  20
ATOM     20  O   UNL     1     112.144 130.549 139.864  0.00  0.00    +0.000 OA
ATOM     21  C   UNL     1     111.494 130.599 139.357  0.00  0.00    +0.000 C 
ENDBRANCH  17  20
BRANCH  19  22
ATOM     22  O   UNL     1     113.656 130.579 140.523  0.00  0.00    +0.000 OA
ATOM     23  C   UNL     1     113.818 130.635 141.331  0.00  0.00    +0.000 C 
ENDBRANCH  19  22
ENDBRANCH   6  14
BRANCH   7  24
ATOM     24  O   UNL     1     112.631 127.289 136.805  0.00  0.00    +0.000 OA
ATOM     25  C   UNL     1     113.408 127.174 136.556  0.00  0.00    +0.000 C 
ENDBRANCH   7  24
BRANCH   8  26
ATOM     26  O   UNL     1     112.020 127.337 140.591  0.00  0.00    +0.000 OA
ATOM     27  C   UNL     1     111.504 126.886 141.050  0.00  0.00    +0.000 C 
ENDBRANCH   8  26
BRANCH  11  28
ATOM     28  O   UNL     1     112.034 125.888 136.171  0.00  0.00    +0.000 OA
ATOM     29  C   UNL     1     111.412 126.087 135.667  0.00  0.00    +0.000 C 
ENDBRANCH  11  28
BRANCH  12  30
ATOM     30  O   UNL     1     111.312 124.778 137.155  0.00  0.00    +0.000 OA
ATOM     31  C   UNL     1     111.720 124.070 137.260  0.00  0.00    +0.000 C 
ENDBRANCH  12  30
TORSDOF 7
ENDMDL
