MODEL 1
REMARK VINA RESULT:      -9.0      0.000      0.000
REMARK  Name = 131752831
REMARK  6 active torsions:
REMARK  status: ('A' for Active; 'I' for Inactive)
REMARK    1  A    between atoms: O_2  and  C_17
REMARK    2  A    between atoms: O_2  and  C_19
REMARK    3  A    between atoms: O_8  and  C_21
REMARK    4  A    between atoms: O_11  and  C_32
REMARK    5  A    between atoms: C_16  and  C_18
REMARK    6  A    between atoms: C_26  and  C_28
REMARK                            x       y       z     vdW  Elec       q    Type
REMARK                         _______ _______ _______ _____ _____    ______ ____
ROOT
ATOM      1  O   UNL     1     111.800 125.986 136.306  0.00  0.00    +0.000 OA
ATOM      2  O   UNL     1     113.094 123.433 136.733  0.00  0.00    +0.000 OA
ATOM      3  O   UNL     1     111.656 123.478 136.618  0.00  0.00    +0.000 OA
ATOM      4  C   UNL     1     113.244 125.885 136.429  0.00  0.00    +0.000 A 
ATOM      5  C   UNL     1     112.507 125.512 136.421  0.00  0.00    +0.000 A 
ATOM      6  C   UNL     1     113.930 125.440 136.538  0.00  0.00    +0.000 A 
ATOM      7  C   UNL     1     112.457 124.695 136.522  0.00  0.00    +0.000 A 
ATOM      8  C   UNL     1     113.880 124.623 136.640  0.00  0.00    +0.000 A 
ATOM      9  C   UNL     1     113.144 124.251 136.632  0.00  0.00    +0.000 A 
ATOM     10  C   UNL     1     111.697 124.296 136.516  0.00  0.00    +0.000 A 
ATOM     11  C   UNL     1     111.030 125.604 136.296  0.00  0.00    +0.000 A 
ATOM     12  C   UNL     1     110.978 124.753 136.402  0.00  0.00    +0.000 A 
ENDROOT
BRANCH  11  14
ATOM     13  O   UNL     1     108.292 127.393 135.859  0.00  0.00    +0.000 OA
ATOM     14  C   UNL     1     110.346 126.051 136.187  0.00  0.00    +0.000 A 
ATOM     15  C   UNL     1     110.019 126.468 136.820  0.00  0.00    +0.000 A 
ATOM     16  C   UNL     1     109.987 126.082 135.445  0.00  0.00    +0.000 A 
ATOM     17  C   UNL     1     109.335 126.915 136.711  0.00  0.00    +0.000 A 
ATOM     18  C   UNL     1     109.302 126.529 135.335  0.00  0.00    +0.000 A 
ATOM     19  C   UNL     1     108.976 126.946 135.968  0.00  0.00    +0.000 A 
BRANCH  17  20
ATOM     20  O   UNL     1     109.008 127.331 137.344  0.00  0.00    +0.000 OA
ATOM     21  C   UNL     1     109.501 127.722 137.879  0.00  0.00    +0.000 C 
ENDBRANCH  17  20
ENDBRANCH  11  14
BRANCH   6  22
ATOM     22  O   UNL     1     114.666 125.813 136.546  0.00  0.00    +0.000 OA
ATOM     23  C   UNL     1     115.329 125.422 136.250  0.00  0.00    +0.000 C 
ENDBRANCH   6  22
BRANCH   4  24
ATOM     24  O   UNL     1     113.294 126.702 136.327  0.00  0.00    +0.000 OA
BRANCH  24  33
ATOM     25  O   UNL     1     113.272 126.882 137.745  0.00  0.00    +0.000 OA
ATOM     26  O   UNL     1     113.203 129.337 137.431  0.00  0.00    +0.000 OA
ATOM     27  O   UNL     1     113.204 128.699 138.952  0.00  0.00    +0.000 OA
ATOM     28  O   UNL     1     113.248 128.338 136.118  0.00  0.00    +0.000 OA
ATOM     29  C   UNL     1     113.226 128.518 137.536  0.00  0.00    +0.000 C 
ATOM     30  C   UNL     1     113.227 128.200 138.296  0.00  0.00    +0.000 C 
ATOM     31  C   UNL     1     113.249 128.019 136.879  0.00  0.00    +0.000 C 
ATOM     32  C   UNL     1     113.249 127.382 138.401  0.00  0.00    +0.000 C 
ATOM     33  C   UNL     1     113.271 127.201 136.983  0.00  0.00    +0.000 C 
BRANCH  32  35
ATOM     34  O   UNL     1     112.579 126.674 139.445  0.00  0.00    +0.000 OA
ATOM     35  C   UNL     1     113.250 127.062 139.161  0.00  0.00    +0.000 C 
ENDBRANCH  32  35
ENDBRANCH  24  33
ENDBRANCH   4  24
TORSDOF 6
ENDMDL
MODEL 2
REMARK VINA RESULT:      -9.0      1.637      3.177
REMARK  Name = 131752831
REMARK  6 active torsions:
REMARK  status: ('A' for Active; 'I' for Inactive)
REMARK    1  A    between atoms: O_2  and  C_17
REMARK    2  A    between atoms: O_2  and  C_19
REMARK    3  A    between atoms: O_8  and  C_21
REMARK    4  A    between atoms: O_11  and  C_32
REMARK    5  A    between atoms: C_16  and  C_18
REMARK    6  A    between atoms: C_26  and  C_28
REMARK                            x       y       z     vdW  Elec       q    Type
REMARK                         _______ _______ _______ _____ _____    ______ ____
ROOT
ATOM      1  O   UNL     1     112.391 127.033 136.341  0.00  0.00    +0.000 OA
ATOM      2  O   UNL     1     110.326 125.354 135.203  0.00  0.00    +0.000 OA
ATOM      3  O   UNL     1     110.415 126.733 134.786  0.00  0.00    +0.000 OA
ATOM      4  C   UNL     1     112.257 125.639 136.726  0.00  0.00    +0.000 A 
ATOM      5  C   UNL     1     111.990 126.276 136.274  0.00  0.00    +0.000 A 
ATOM      6  C   UNL     1     111.880 124.907 136.669  0.00  0.00    +0.000 A 
ATOM      7  C   UNL     1     111.346 126.181 135.766  0.00  0.00    +0.000 A 
ATOM      8  C   UNL     1     111.237 124.812 136.162  0.00  0.00    +0.000 A 
ATOM      9  C   UNL     1     110.970 125.449 135.711  0.00  0.00    +0.000 A 
ATOM     10  C   UNL     1     111.059 126.836 135.291  0.00  0.00    +0.000 A 
ATOM     11  C   UNL     1     112.117 127.700 135.873  0.00  0.00    +0.000 A 
ATOM     12  C   UNL     1     111.447 127.601 135.345  0.00  0.00    +0.000 A 
ENDROOT
BRANCH  11  14
ATOM     13  O   UNL     1     113.630 130.623 136.106  0.00  0.00    +0.000 OA
ATOM     14  C   UNL     1     112.496 128.431 135.931  0.00  0.00    +0.000 A 
ATOM     15  C   UNL     1     112.252 128.978 136.499  0.00  0.00    +0.000 A 
ATOM     16  C   UNL     1     113.118 128.615 135.423  0.00  0.00    +0.000 A 
ATOM     17  C   UNL     1     112.629 129.709 136.558  0.00  0.00    +0.000 A 
ATOM     18  C   UNL     1     113.497 129.346 135.481  0.00  0.00    +0.000 A 
ATOM     19  C   UNL     1     113.253 129.893 136.048  0.00  0.00    +0.000 A 
BRANCH  17  20
ATOM     20  O   UNL     1     112.385 130.256 137.125  0.00  0.00    +0.000 OA
ATOM     21  C   UNL     1     112.200 130.003 137.888  0.00  0.00    +0.000 C 
ENDBRANCH  17  20
ENDBRANCH  11  14
BRANCH   6  22
ATOM     22  O   UNL     1     112.147 124.270 137.121  0.00  0.00    +0.000 OA
ATOM     23  C   UNL     1     112.011 123.498 136.865  0.00  0.00    +0.000 C 
ENDBRANCH   6  22
BRANCH   4  24
ATOM     24  O   UNL     1     112.900 125.733 137.232  0.00  0.00    +0.000 OA
BRANCH  24  33
ATOM     25  O   UNL     1     112.012 126.037 138.310  0.00  0.00    +0.000 OA
ATOM     26  O   UNL     1     113.949 126.581 139.753  0.00  0.00    +0.000 OA
ATOM     27  O   UNL     1     112.415 126.703 140.349  0.00  0.00    +0.000 OA
ATOM     28  O   UNL     1     114.191 126.096 138.194  0.00  0.00    +0.000 OA
ATOM     29  C   UNL     1     113.303 126.400 139.272  0.00  0.00    +0.000 C 
ATOM     30  C   UNL     1     112.537 126.461 139.570  0.00  0.00    +0.000 C 
ATOM     31  C   UNL     1     113.425 126.157 138.492  0.00  0.00    +0.000 C 
ATOM     32  C   UNL     1     111.891 126.280 139.089  0.00  0.00    +0.000 C 
ATOM     33  C   UNL     1     112.779 125.976 138.012  0.00  0.00    +0.000 C 
BRANCH  32  35
ATOM     34  O   UNL     1     110.702 125.658 139.581  0.00  0.00    +0.000 OA
ATOM     35  C   UNL     1     111.124 126.341 139.387  0.00  0.00    +0.000 C 
ENDBRANCH  32  35
ENDBRANCH  24  33
ENDBRANCH   4  24
TORSDOF 6
ENDMDL
MODEL 3
REMARK VINA RESULT:      -8.9      1.106      3.422
REMARK  Name = 131752831
REMARK  6 active torsions:
REMARK  status: ('A' for Active; 'I' for Inactive)
REMARK    1  A    between atoms: O_2  and  C_17
REMARK    2  A    between atoms: O_2  and  C_19
REMARK    3  A    between atoms: O_8  and  C_21
REMARK    4  A    between atoms: O_11  and  C_32
REMARK    5  A    between atoms: C_16  and  C_18
REMARK    6  A    between atoms: C_26  and  C_28
REMARK                            x       y       z     vdW  Elec       q    Type
REMARK                         _______ _______ _______ _____ _____    ______ ____
ROOT
ATOM      1  O   UNL     1     112.753 126.511 136.528  0.00  0.00    +0.000 OA
ATOM      2  O   UNL     1     114.303 124.175 137.248  0.00  0.00    +0.000 OA
ATOM      3  O   UNL     1     114.948 125.465 137.234  0.00  0.00    +0.000 OA
ATOM      4  C   UNL     1     112.152 125.190 136.558  0.00  0.00    +0.000 A 
ATOM      5  C   UNL     1     112.819 125.666 136.662  0.00  0.00    +0.000 A 
ATOM      6  C   UNL     1     112.203 124.376 136.684  0.00  0.00    +0.000 A 
ATOM      7  C   UNL     1     113.535 125.327 136.892  0.00  0.00    +0.000 A 
ATOM      8  C   UNL     1     112.920 124.038 136.914  0.00  0.00    +0.000 A 
ATOM      9  C   UNL     1     113.585 124.513 137.018  0.00  0.00    +0.000 A 
ATOM     10  C   UNL     1     114.236 125.812 137.004  0.00  0.00    +0.000 A 
ATOM     11  C   UNL     1     113.444 127.012 136.635  0.00  0.00    +0.000 A 
ATOM     12  C   UNL     1     114.190 126.660 136.874  0.00  0.00    +0.000 A 
ENDROOT
BRANCH  11  14
ATOM     13  O   UNL     1     113.230 130.266 136.131  0.00  0.00    +0.000 OA
ATOM     14  C   UNL     1     113.391 127.826 136.509  0.00  0.00    +0.000 A 
ATOM     15  C   UNL     1     113.113 128.319 137.109  0.00  0.00    +0.000 A 
ATOM     16  C   UNL     1     113.614 128.147 135.783  0.00  0.00    +0.000 A 
ATOM     17  C   UNL     1     113.060 129.133 136.984  0.00  0.00    +0.000 A 
ATOM     18  C   UNL     1     113.561 128.960 135.656  0.00  0.00    +0.000 A 
ATOM     19  C   UNL     1     113.284 129.454 136.256  0.00  0.00    +0.000 A 
BRANCH  17  20
ATOM     20  O   UNL     1     112.782 129.626 137.584  0.00  0.00    +0.000 OA
ATOM     21  C   UNL     1     112.174 129.371 138.079  0.00  0.00    +0.000 C 
ENDBRANCH  17  20
ENDBRANCH  11  14
BRANCH   6  22
ATOM     22  O   UNL     1     111.537 123.900 136.579  0.00  0.00    +0.000 OA
ATOM     23  C   UNL     1     111.624 123.088 136.468  0.00  0.00    +0.000 C 
ENDBRANCH   6  22
BRANCH   4  24
ATOM     24  O   UNL     1     111.436 125.527 136.328  0.00  0.00    +0.000 OA
BRANCH  24  33
ATOM     25  O   UNL     1     111.036 125.615 137.697  0.00  0.00    +0.000 OA
ATOM     26  O   UNL     1     108.973 126.804 137.017  0.00  0.00    +0.000 OA
ATOM     27  O   UNL     1     109.261 126.495 138.612  0.00  0.00    +0.000 OA
ATOM     28  O   UNL     1     110.062 126.320 135.875  0.00  0.00    +0.000 OA
ATOM     29  C   UNL     1     109.661 126.407 137.244  0.00  0.00    +0.000 C 
ATOM     30  C   UNL     1     109.804 126.254 138.041  0.00  0.00    +0.000 C 
ATOM     31  C   UNL     1     110.205 126.166 136.672  0.00  0.00    +0.000 C 
ATOM     32  C   UNL     1     110.492 125.857 138.268  0.00  0.00    +0.000 C 
ATOM     33  C   UNL     1     110.892 125.770 136.899  0.00  0.00    +0.000 C 
BRANCH  32  35
ATOM     34  O   UNL     1     111.268 126.070 139.448  0.00  0.00    +0.000 OA
ATOM     35  C   UNL     1     110.635 125.703 139.065  0.00  0.00    +0.000 C 
ENDBRANCH  32  35
ENDBRANCH  24  33
ENDBRANCH   4  24
TORSDOF 6
ENDMDL
MODEL 4
REMARK VINA RESULT:      -8.9      1.686      3.865
REMARK  Name = 131752831
REMARK  6 active torsions:
REMARK  status: ('A' for Active; 'I' for Inactive)
REMARK    1  A    between atoms: O_2  and  C_17
REMARK    2  A    between atoms: O_2  and  C_19
REMARK    3  A    between atoms: O_8  and  C_21
REMARK    4  A    between atoms: O_11  and  C_32
REMARK    5  A    between atoms: C_16  and  C_18
REMARK    6  A    between atoms: C_26  and  C_28
REMARK                            x       y       z     vdW  Elec       q    Type
REMARK                         _______ _______ _______ _____ _____    ______ ____
ROOT
ATOM      1  O   UNL     1     110.673 127.262 135.786  0.00  0.00    +0.000 OA
ATOM      2  O   UNL     1     108.055 128.498 135.796  0.00  0.00    +0.000 OA
ATOM      3  O   UNL     1     108.180 127.121 136.211  0.00  0.00    +0.000 OA
ATOM      4  C   UNL     1     110.491 128.644 135.378  0.00  0.00    +0.000 A 
ATOM      5  C   UNL     1     110.161 127.938 135.651  0.00  0.00    +0.000 A 
ATOM      6  C   UNL     1     110.009 129.300 135.245  0.00  0.00    +0.000 A 
ATOM      7  C   UNL     1     109.349 127.890 135.790  0.00  0.00    +0.000 A 
ATOM      8  C   UNL     1     109.197 129.251 135.384  0.00  0.00    +0.000 A 
ATOM      9  C   UNL     1     108.868 128.547 135.657  0.00  0.00    +0.000 A 
ATOM     10  C   UNL     1     108.993 127.161 136.074  0.00  0.00    +0.000 A 
ATOM     11  C   UNL     1     110.335 126.524 136.070  0.00  0.00    +0.000 A 
ATOM     12  C   UNL     1     109.489 126.473 136.215  0.00  0.00    +0.000 A 
ENDROOT
BRANCH  11  14
ATOM     13  O   UNL     1     112.270 123.905 136.601  0.00  0.00    +0.000 OA
ATOM     14  C   UNL     1     110.818 125.869 136.202  0.00  0.00    +0.000 A 
ATOM     15  C   UNL     1     111.222 125.793 136.918  0.00  0.00    +0.000 A 
ATOM     16  C   UNL     1     110.899 125.291 135.620  0.00  0.00    +0.000 A 
ATOM     17  C   UNL     1     111.706 125.138 137.051  0.00  0.00    +0.000 A 
ATOM     18  C   UNL     1     111.383 124.636 135.753  0.00  0.00    +0.000 A 
ATOM     19  C   UNL     1     111.787 124.559 136.468  0.00  0.00    +0.000 A 
BRANCH  17  20
ATOM     20  O   UNL     1     112.110 125.062 137.767  0.00  0.00    +0.000 OA
ATOM     21  C   UNL     1     112.442 125.726 138.126  0.00  0.00    +0.000 C 
ENDBRANCH  17  20
ENDBRANCH  11  14
BRANCH   6  22
ATOM     22  O   UNL     1     110.340 130.006 134.972  0.00  0.00    +0.000 OA
ATOM     23  C   UNL     1     109.861 130.573 134.613  0.00  0.00    +0.000 C 
ENDBRANCH   6  22
BRANCH   4  24
ATOM     24  O   UNL     1     111.302 128.693 135.239  0.00  0.00    +0.000 OA
BRANCH  24  33
ATOM     25  O   UNL     1     111.500 129.190 136.564  0.00  0.00    +0.000 OA
ATOM     26  O   UNL     1     113.928 129.390 136.127  0.00  0.00    +0.000 OA
ATOM     27  O   UNL     1     113.316 129.820 137.597  0.00  0.00    +0.000 OA
ATOM     28  O   UNL     1     112.920 128.826 134.948  0.00  0.00    +0.000 OA
ATOM     29  C   UNL     1     113.118 129.323 136.273  0.00  0.00    +0.000 C 
ATOM     30  C   UNL     1     112.813 129.538 137.008  0.00  0.00    +0.000 C 
ATOM     31  C   UNL     1     112.615 129.041 135.683  0.00  0.00    +0.000 C 
ATOM     32  C   UNL     1     112.003 129.471 137.154  0.00  0.00    +0.000 C 
ATOM     33  C   UNL     1     111.806 128.975 135.828  0.00  0.00    +0.000 C 
BRANCH  32  35
ATOM     34  O   UNL     1     111.423 129.105 138.407  0.00  0.00    +0.000 OA
ATOM     35  C   UNL     1     111.697 129.686 137.889  0.00  0.00    +0.000 C 
ENDBRANCH  32  35
ENDBRANCH  24  33
ENDBRANCH   4  24
TORSDOF 6
ENDMDL
MODEL 5
REMARK VINA RESULT:      -8.9      9.065     10.795
REMARK  Name = 131752831
REMARK  6 active torsions:
REMARK  status: ('A' for Active; 'I' for Inactive)
REMARK    1  A    between atoms: O_2  and  C_17
REMARK    2  A    between atoms: O_2  and  C_19
REMARK    3  A    between atoms: O_8  and  C_21
REMARK    4  A    between atoms: O_11  and  C_32
REMARK    5  A    between atoms: C_16  and  C_18
REMARK    6  A    between atoms: C_26  and  C_28
REMARK                            x       y       z     vdW  Elec       q    Type
REMARK                         _______ _______ _______ _____ _____    ______ ____
ROOT
ATOM      1  O   UNL     1     103.178 130.405 142.039  0.00  0.00    +0.000 OA
ATOM      2  O   UNL     1     103.752 128.048 140.460  0.00  0.00    +0.000 OA
ATOM      3  O   UNL     1     102.737 128.966 140.003  0.00  0.00    +0.000 OA
ATOM      4  C   UNL     1     104.190 129.448 142.454  0.00  0.00    +0.000 A 
ATOM      5  C   UNL     1     103.616 129.678 141.906  0.00  0.00    +0.000 A 
ATOM      6  C   UNL     1     104.616 128.752 142.337  0.00  0.00    +0.000 A 
ATOM      7  C   UNL     1     103.470 129.211 141.242  0.00  0.00    +0.000 A 
ATOM      8  C   UNL     1     104.470 128.286 141.672  0.00  0.00    +0.000 A 
ATOM      9  C   UNL     1     103.898 128.515 141.125  0.00  0.00    +0.000 A 
ATOM     10  C   UNL     1     102.877 129.439 140.664  0.00  0.00    +0.000 A 
ATOM     11  C   UNL     1     102.580 130.649 141.472  0.00  0.00    +0.000 A 
ATOM     12  C   UNL     1     102.428 130.163 140.781  0.00  0.00    +0.000 A 
ENDROOT
BRANCH  11  14
ATOM     13  O   UNL     1     100.879 133.436 141.950  0.00  0.00    +0.000 OA
ATOM     14  C   UNL     1     102.154 131.346 141.592  0.00  0.00    +0.000 A 
ATOM     15  C   UNL     1     102.475 132.070 141.361  0.00  0.00    +0.000 A 
ATOM     16  C   UNL     1     101.408 131.319 141.942  0.00  0.00    +0.000 A 
ATOM     17  C   UNL     1     102.051 132.767 141.480  0.00  0.00    +0.000 A 
ATOM     18  C   UNL     1     100.982 132.015 142.061  0.00  0.00    +0.000 A 
ATOM     19  C   UNL     1     101.303 132.740 141.831  0.00  0.00    +0.000 A 
BRANCH  17  20
ATOM     20  O   UNL     1     102.372 133.491 141.249  0.00  0.00    +0.000 OA
ATOM     21  C   UNL     1     103.183 133.624 141.320  0.00  0.00    +0.000 C 
ENDBRANCH  17  20
ENDBRANCH  11  14
BRANCH   6  22
ATOM     22  O   UNL     1     105.190 128.523 142.885  0.00  0.00    +0.000 OA
ATOM     23  C   UNL     1     105.390 127.726 142.962  0.00  0.00    +0.000 C 
ENDBRANCH   6  22
BRANCH   4  24
ATOM     24  O   UNL     1     104.335 129.914 143.118  0.00  0.00    +0.000 OA
BRANCH  24  33
ATOM     25  O   UNL     1     105.397 130.573 142.424  0.00  0.00    +0.000 OA
ATOM     26  O   UNL     1     105.723 132.084 144.359  0.00  0.00    +0.000 OA
ATOM     27  O   UNL     1     106.675 132.239 143.021  0.00  0.00    +0.000 OA
ATOM     28  O   UNL     1     104.552 130.921 144.407  0.00  0.00    +0.000 OA
ATOM     29  C   UNL     1     105.614 131.580 143.713  0.00  0.00    +0.000 C 
ATOM     30  C   UNL     1     106.090 131.658 143.045  0.00  0.00    +0.000 C 
ATOM     31  C   UNL     1     105.029 130.999 143.739  0.00  0.00    +0.000 C 
ATOM     32  C   UNL     1     105.982 131.154 142.401  0.00  0.00    +0.000 C 
ATOM     33  C   UNL     1     104.920 130.496 143.094  0.00  0.00    +0.000 C 
BRANCH  32  35
ATOM     34  O   UNL     1     106.140 131.532 141.031  0.00  0.00    +0.000 OA
ATOM     35  C   UNL     1     106.458 131.232 141.732  0.00  0.00    +0.000 C 
ENDBRANCH  32  35
ENDBRANCH  24  33
ENDBRANCH   4  24
TORSDOF 6
ENDMDL
MODEL 6
REMARK VINA RESULT:      -8.8      1.533      3.665
REMARK  Name = 131752831
REMARK  6 active torsions:
REMARK  status: ('A' for Active; 'I' for Inactive)
REMARK    1  A    between atoms: O_2  and  C_17
REMARK    2  A    between atoms: O_2  and  C_19
REMARK    3  A    between atoms: O_8  and  C_21
REMARK    4  A    between atoms: O_11  and  C_32
REMARK    5  A    between atoms: C_16  and  C_18
REMARK    6  A    between atoms: C_26  and  C_28
REMARK                            x       y       z     vdW  Elec       q    Type
REMARK                         _______ _______ _______ _____ _____    ______ ____
ROOT
ATOM      1  O   UNL     1     112.160 126.732 136.224  0.00  0.00    +0.000 OA
ATOM      2  O   UNL     1     109.656 126.017 134.958  0.00  0.00    +0.000 OA
ATOM      3  O   UNL     1     110.502 124.969 135.477  0.00  0.00    +0.000 OA
ATOM      4  C   UNL     1     111.272 127.747 135.684  0.00  0.00    +0.000 A 
ATOM      5  C   UNL     1     111.431 126.949 135.825  0.00  0.00    +0.000 A 
ATOM      6  C   UNL     1     110.575 127.967 135.302  0.00  0.00    +0.000 A 
ATOM      7  C   UNL     1     110.892 126.373 135.582  0.00  0.00    +0.000 A 
ATOM      8  C   UNL     1     110.037 127.391 135.060  0.00  0.00    +0.000 A 
ATOM      9  C   UNL     1     110.195 126.594 135.200  0.00  0.00    +0.000 A 
ATOM     10  C   UNL     1     111.046 125.539 135.722  0.00  0.00    +0.000 A 
ATOM     11  C   UNL     1     112.331 125.902 136.373  0.00  0.00    +0.000 A 
ATOM     12  C   UNL     1     111.770 125.302 136.120  0.00  0.00    +0.000 A 
ENDROOT
BRANCH  11  14
ATOM     13  O   UNL     1     115.120 125.030 137.904  0.00  0.00    +0.000 OA
ATOM     14  C   UNL     1     113.028 125.684 136.755  0.00  0.00    +0.000 A 
ATOM     15  C   UNL     1     113.130 125.855 137.556  0.00  0.00    +0.000 A 
ATOM     16  C   UNL     1     113.624 125.295 136.338  0.00  0.00    +0.000 A 
ATOM     17  C   UNL     1     113.827 125.637 137.939  0.00  0.00    +0.000 A 
ATOM     18  C   UNL     1     114.321 125.077 136.720  0.00  0.00    +0.000 A 
ATOM     19  C   UNL     1     114.423 125.248 137.521  0.00  0.00    +0.000 A 
BRANCH  17  20
ATOM     20  O   UNL     1     113.929 125.808 138.740  0.00  0.00    +0.000 OA
ATOM     21  C   UNL     1     113.562 126.468 139.071  0.00  0.00    +0.000 C 
ENDBRANCH  17  20
ENDBRANCH  11  14
BRANCH   6  22
ATOM     22  O   UNL     1     110.417 128.766 135.162  0.00  0.00    +0.000 OA
ATOM     23  C   UNL     1     109.841 128.980 134.612  0.00  0.00    +0.000 C 
ENDBRANCH   6  22
BRANCH   4  24
ATOM     24  O   UNL     1     111.810 128.323 135.926  0.00  0.00    +0.000 OA
BRANCH  24  33
ATOM     25  O   UNL     1     111.087 128.485 137.148  0.00  0.00    +0.000 OA
ATOM     26  O   UNL     1     112.661 130.265 137.843  0.00  0.00    +0.000 OA
ATOM     27  O   UNL     1     111.414 129.833 138.832  0.00  0.00    +0.000 OA
ATOM     28  O   UNL     1     112.859 129.509 136.389  0.00  0.00    +0.000 OA
ATOM     29  C   UNL     1     112.136 129.671 137.611  0.00  0.00    +0.000 C 
ATOM     30  C   UNL     1     111.513 129.456 138.106  0.00  0.00    +0.000 C 
ATOM     31  C   UNL     1     112.236 129.294 136.884  0.00  0.00    +0.000 C 
ATOM     32  C   UNL     1     110.988 128.863 137.875  0.00  0.00    +0.000 C 
ATOM     33  C   UNL     1     111.711 128.701 136.653  0.00  0.00    +0.000 C 
BRANCH  32  35
ATOM     34  O   UNL     1     110.380 127.919 138.758  0.00  0.00    +0.000 OA
ATOM     35  C   UNL     1     110.365 128.647 138.369  0.00  0.00    +0.000 C 
ENDBRANCH  32  35
ENDBRANCH  24  33
ENDBRANCH   4  24
TORSDOF 6
ENDMDL
MODEL 7
REMARK VINA RESULT:      -8.7      1.533      3.835
REMARK  Name = 131752831
REMARK  6 active torsions:
REMARK  status: ('A' for Active; 'I' for Inactive)
REMARK    1  A    between atoms: O_2  and  C_17
REMARK    2  A    between atoms: O_2  and  C_19
REMARK    3  A    between atoms: O_8  and  C_21
REMARK    4  A    between atoms: O_11  and  C_32
REMARK    5  A    between atoms: C_16  and  C_18
REMARK    6  A    between atoms: C_26  and  C_28
REMARK                            x       y       z     vdW  Elec       q    Type
REMARK                         _______ _______ _______ _____ _____    ______ ____
ROOT
ATOM      1  O   UNL     1     112.322 127.135 137.468  0.00  0.00    +0.000 OA
ATOM      2  O   UNL     1     113.863 129.495 136.808  0.00  0.00    +0.000 OA
ATOM      3  O   UNL     1     114.005 128.315 135.989  0.00  0.00    +0.000 OA
ATOM      4  C   UNL     1     112.217 128.349 138.259  0.00  0.00    +0.000 A 
ATOM      5  C   UNL     1     112.553 127.949 137.619  0.00  0.00    +0.000 A 
ATOM      6  C   UNL     1     112.431 129.130 138.414  0.00  0.00    +0.000 A 
ATOM      7  C   UNL     1     113.101 128.331 137.136  0.00  0.00    +0.000 A 
ATOM      8  C   UNL     1     112.979 129.512 137.931  0.00  0.00    +0.000 A 
ATOM      9  C   UNL     1     113.314 129.113 137.292  0.00  0.00    +0.000 A 
ATOM     10  C   UNL     1     113.457 127.926 136.468  0.00  0.00    +0.000 A 
ATOM     11  C   UNL     1     112.668 126.713 136.804  0.00  0.00    +0.000 A 
ATOM     12  C   UNL     1     113.239 127.111 136.300  0.00  0.00    +0.000 A 
ENDROOT
BRANCH  11  14
ATOM     13  O   UNL     1     111.807 123.588 136.190  0.00  0.00    +0.000 OA
ATOM     14  C   UNL     1     112.453 125.932 136.650  0.00  0.00    +0.000 A 
ATOM     15  C   UNL     1     111.758 125.769 136.238  0.00  0.00    +0.000 A 
ATOM     16  C   UNL     1     112.933 125.313 136.909  0.00  0.00    +0.000 A 
ATOM     17  C   UNL     1     111.541 124.988 136.084  0.00  0.00    +0.000 A 
ATOM     18  C   UNL     1     112.718 124.531 136.756  0.00  0.00    +0.000 A 
ATOM     19  C   UNL     1     112.022 124.368 136.343  0.00  0.00    +0.000 A 
BRANCH  17  20
ATOM     20  O   UNL     1     110.846 124.825 135.672  0.00  0.00    +0.000 OA
ATOM     21  C   UNL     1     110.431 125.436 135.305  0.00  0.00    +0.000 C 
ENDBRANCH  17  20
ENDBRANCH  11  14
BRANCH   6  22
ATOM     22  O   UNL     1     112.095 129.530 139.054  0.00  0.00    +0.000 OA
ATOM     23  C   UNL     1     112.020 130.351 139.032  0.00  0.00    +0.000 C 
ENDBRANCH   6  22
BRANCH   4  24
ATOM     24  O   UNL     1     111.669 127.967 138.742  0.00  0.00    +0.000 OA
BRANCH  24  33
ATOM     25  O   UNL     1     112.717 127.590 139.637  0.00  0.00    +0.000 OA
ATOM     26  O   UNL     1     111.098 126.290 140.986  0.00  0.00    +0.000 OA
ATOM     27  O   UNL     1     112.686 126.347 141.430  0.00  0.00    +0.000 OA
ATOM     28  O   UNL     1     110.590 127.101 139.641  0.00  0.00    +0.000 OA
ATOM     29  C   UNL     1     111.638 126.724 140.536  0.00  0.00    +0.000 C 
ATOM     30  C   UNL     1     112.431 126.751 140.759  0.00  0.00    +0.000 C 
ATOM     31  C   UNL     1     111.383 127.129 139.864  0.00  0.00    +0.000 C 
ATOM     32  C   UNL     1     112.971 127.184 140.309  0.00  0.00    +0.000 C 
ATOM     33  C   UNL     1     111.923 127.562 139.414  0.00  0.00    +0.000 C 
BRANCH  32  35
ATOM     34  O   UNL     1     114.324 126.766 140.120  0.00  0.00    +0.000 OA
ATOM     35  C   UNL     1     113.765 127.213 140.531  0.00  0.00    +0.000 C 
ENDBRANCH  32  35
ENDBRANCH  24  33
ENDBRANCH   4  24
TORSDOF 6
ENDMDL
MODEL 8
REMARK VINA RESULT:      -8.7      1.342      4.354
REMARK  Name = 131752831
REMARK  6 active torsions:
REMARK  status: ('A' for Active; 'I' for Inactive)
REMARK    1  A    between atoms: O_2  and  C_17
REMARK    2  A    between atoms: O_2  and  C_19
REMARK    3  A    between atoms: O_8  and  C_21
REMARK    4  A    between atoms: O_11  and  C_32
REMARK    5  A    between atoms: C_16  and  C_18
REMARK    6  A    between atoms: C_26  and  C_28
REMARK                            x       y       z     vdW  Elec       q    Type
REMARK                         _______ _______ _______ _____ _____    ______ ____
ROOT
ATOM      1  O   UNL     1     112.974 127.512 137.027  0.00  0.00    +0.000 OA
ATOM      2  O   UNL     1     114.161 129.786 135.686  0.00  0.00    +0.000 OA
ATOM      3  O   UNL     1     114.626 128.459 135.359  0.00  0.00    +0.000 OA
ATOM      4  C   UNL     1     112.543 128.867 137.319  0.00  0.00    +0.000 A 
ATOM      5  C   UNL     1     113.034 128.358 136.894  0.00  0.00    +0.000 A 
ATOM      6  C   UNL     1     112.591 129.682 137.200  0.00  0.00    +0.000 A 
ATOM      7  C   UNL     1     113.573 128.664 136.350  0.00  0.00    +0.000 A 
ATOM      8  C   UNL     1     113.131 129.988 136.656  0.00  0.00    +0.000 A 
ATOM      9  C   UNL     1     113.621 129.479 136.231  0.00  0.00    +0.000 A 
ATOM     10  C   UNL     1     114.090 128.145 135.901  0.00  0.00    +0.000 A 
ATOM     11  C   UNL     1     113.483 126.976 136.587  0.00  0.00    +0.000 A 
ATOM     12  C   UNL     1     114.044 127.295 136.020  0.00  0.00    +0.000 A 
ENDROOT
BRANCH  11  14
ATOM     13  O   UNL     1     113.279 123.718 137.069  0.00  0.00    +0.000 OA
ATOM     14  C   UNL     1     113.432 126.161 136.708  0.00  0.00    +0.000 A 
ATOM     15  C   UNL     1     112.802 125.735 136.388  0.00  0.00    +0.000 A 
ATOM     16  C   UNL     1     114.011 125.772 137.148  0.00  0.00    +0.000 A 
ATOM     17  C   UNL     1     112.750 124.921 136.508  0.00  0.00    +0.000 A 
ATOM     18  C   UNL     1     113.960 124.958 137.269  0.00  0.00    +0.000 A 
ATOM     19  C   UNL     1     113.330 124.532 136.949  0.00  0.00    +0.000 A 
BRANCH  17  20
ATOM     20  O   UNL     1     112.120 124.495 136.188  0.00  0.00    +0.000 OA
ATOM     21  C   UNL     1     111.374 124.842 136.132  0.00  0.00    +0.000 C 
ENDBRANCH  17  20
ENDBRANCH  11  14
BRANCH   6  22
ATOM     22  O   UNL     1     112.100 130.191 137.625  0.00  0.00    +0.000 OA
ATOM     23  C   UNL     1     112.331 130.972 137.757  0.00  0.00    +0.000 C 
ENDBRANCH   6  22
BRANCH   4  24
ATOM     24  O   UNL     1     112.004 128.561 137.863  0.00  0.00    +0.000 OA
BRANCH  24  33
ATOM     25  O   UNL     1     110.987 128.567 136.858  0.00  0.00    +0.000 OA
ATOM     26  O   UNL     1     109.379 127.611 138.480  0.00  0.00    +0.000 OA
ATOM     27  O   UNL     1     108.900 127.936 136.936  0.00  0.00    +0.000 OA
ATOM     28  O   UNL     1     110.932 127.924 138.944  0.00  0.00    +0.000 OA
ATOM     29  C   UNL     1     109.916 127.930 137.939  0.00  0.00    +0.000 C 
ATOM     30  C   UNL     1     109.675 128.092 137.168  0.00  0.00    +0.000 C 
ATOM     31  C   UNL     1     110.692 128.086 138.172  0.00  0.00    +0.000 C 
ATOM     32  C   UNL     1     110.211 128.411 136.627  0.00  0.00    +0.000 C 
ATOM     33  C   UNL     1     111.228 128.405 137.631  0.00  0.00    +0.000 C 
BRANCH  32  35
ATOM     34  O   UNL     1     110.251 128.110 135.231  0.00  0.00    +0.000 OA
ATOM     35  C   UNL     1     109.971 128.573 135.855  0.00  0.00    +0.000 C 
ENDBRANCH  32  35
ENDBRANCH  24  33
ENDBRANCH   4  24
TORSDOF 6
ENDMDL
MODEL 9
REMARK VINA RESULT:      -8.6      1.414      2.535
REMARK  Name = 131752831
REMARK  6 active torsions:
REMARK  status: ('A' for Active; 'I' for Inactive)
REMARK    1  A    between atoms: O_2  and  C_17
REMARK    2  A    between atoms: O_2  and  C_19
REMARK    3  A    between atoms: O_8  and  C_21
REMARK    4  A    between atoms: O_11  and  C_32
REMARK    5  A    between atoms: C_16  and  C_18
REMARK    6  A    between atoms: C_26  and  C_28
REMARK                            x       y       z     vdW  Elec       q    Type
REMARK                         _______ _______ _______ _____ _____    ______ ____
ROOT
ATOM      1  O   UNL     1     112.215 126.281 137.359  0.00  0.00    +0.000 OA
ATOM      2  O   UNL     1     114.877 125.340 137.997  0.00  0.00    +0.000 OA
ATOM      3  O   UNL     1     114.253 124.897 136.774  0.00  0.00    +0.000 OA
ATOM      4  C   UNL     1     112.889 126.697 138.576  0.00  0.00    +0.000 A 
ATOM      5  C   UNL     1     112.900 126.258 137.877  0.00  0.00    +0.000 A 
ATOM      6  C   UNL     1     113.541 126.683 139.082  0.00  0.00    +0.000 A 
ATOM      7  C   UNL     1     113.563 125.806 137.684  0.00  0.00    +0.000 A 
ATOM      8  C   UNL     1     114.203 126.230 138.889  0.00  0.00    +0.000 A 
ATOM      9  C   UNL     1     114.214 125.793 138.190  0.00  0.00    +0.000 A 
ATOM     10  C   UNL     1     113.586 125.346 136.959  0.00  0.00    +0.000 A 
ATOM     11  C   UNL     1     112.221 125.827 136.629  0.00  0.00    +0.000 A 
ATOM     12  C   UNL     1     112.910 125.356 136.428  0.00  0.00    +0.000 A 
ENDROOT
BRANCH  11  14
ATOM     13  O   UNL     1     109.610 125.891 134.613  0.00  0.00    +0.000 OA
ATOM     14  C   UNL     1     111.568 125.843 136.125  0.00  0.00    +0.000 A 
ATOM     15  C   UNL     1     111.451 126.485 135.621  0.00  0.00    +0.000 A 
ATOM     16  C   UNL     1     111.031 125.216 136.124  0.00  0.00    +0.000 A 
ATOM     17  C   UNL     1     110.799 126.502 135.116  0.00  0.00    +0.000 A 
ATOM     18  C   UNL     1     110.378 125.232 135.620  0.00  0.00    +0.000 A 
ATOM     19  C   UNL     1     110.262 125.875 135.116  0.00  0.00    +0.000 A 
BRANCH  17  20
ATOM     20  O   UNL     1     110.682 127.145 134.612  0.00  0.00    +0.000 OA
ATOM     21  C   UNL     1     111.001 127.881 134.803  0.00  0.00    +0.000 C 
ENDBRANCH  17  20
ENDBRANCH  11  14
BRANCH   6  22
ATOM     22  O   UNL     1     113.530 127.121 139.781  0.00  0.00    +0.000 OA
ATOM     23  C   UNL     1     114.026 126.912 140.406  0.00  0.00    +0.000 C 
ENDBRANCH   6  22
BRANCH   4  24
ATOM     24  O   UNL     1     112.227 127.148 138.769  0.00  0.00    +0.000 OA
BRANCH  24  33
ATOM     25  O   UNL     1     112.833 128.294 138.168  0.00  0.00    +0.000 OA
ATOM     26  O   UNL     1     110.813 129.631 138.681  0.00  0.00    +0.000 OA
ATOM     27  O   UNL     1     112.093 130.331 137.909  0.00  0.00    +0.000 OA
ATOM     28  O   UNL     1     110.881 128.039 139.111  0.00  0.00    +0.000 OA
ATOM     29  C   UNL     1     111.487 129.185 138.510  0.00  0.00    +0.000 C 
ATOM     30  C   UNL     1     112.126 129.536 138.124  0.00  0.00    +0.000 C 
ATOM     31  C   UNL     1     111.520 128.390 138.725  0.00  0.00    +0.000 C 
ATOM     32  C   UNL     1     112.799 129.090 137.954  0.00  0.00    +0.000 C 
ATOM     33  C   UNL     1     112.193 127.944 138.554  0.00  0.00    +0.000 C 
BRANCH  32  35
ATOM     34  O   UNL     1     113.613 129.233 136.787  0.00  0.00    +0.000 OA
ATOM     35  C   UNL     1     113.439 129.440 137.568  0.00  0.00    +0.000 C 
ENDBRANCH  32  35
ENDBRANCH  24  33
ENDBRANCH   4  24
TORSDOF 6
ENDMDL
MODEL 10
REMARK VINA RESULT:      -8.6      1.352      3.988
REMARK  Name = 131752831
REMARK  6 active torsions:
REMARK  status: ('A' for Active; 'I' for Inactive)
REMARK    1  A    between atoms: O_2  and  C_17
REMARK    2  A    between atoms: O_2  and  C_19
REMARK    3  A    between atoms: O_8  and  C_21
REMARK    4  A    between atoms: O_11  and  C_32
REMARK    5  A    between atoms: C_16  and  C_18
REMARK    6  A    between atoms: C_26  and  C_28
REMARK                            x       y       z     vdW  Elec       q    Type
REMARK                         _______ _______ _______ _____ _____    ______ ____
ROOT
ATOM      1  O   UNL     1     112.711 126.081 138.603  0.00  0.00    +0.000 OA
ATOM      2  O   UNL     1     114.405 124.461 136.904  0.00  0.00    +0.000 OA
ATOM      3  O   UNL     1     115.019 125.351 137.860  0.00  0.00    +0.000 OA
ATOM      4  C   UNL     1     112.144 125.168 137.626  0.00  0.00    +0.000 A 
ATOM      5  C   UNL     1     112.813 125.496 137.983  0.00  0.00    +0.000 A 
ATOM      6  C   UNL     1     112.230 124.605 137.029  0.00  0.00    +0.000 A 
ATOM      7  C   UNL     1     113.566 125.260 137.742  0.00  0.00    +0.000 A 
ATOM      8  C   UNL     1     112.983 124.370 136.788  0.00  0.00    +0.000 A 
ATOM      9  C   UNL     1     113.651 124.697 137.145  0.00  0.00    +0.000 A 
ATOM     10  C   UNL     1     114.269 125.593 138.106  0.00  0.00    +0.000 A 
ATOM     11  C   UNL     1     113.403 126.425 138.979  0.00  0.00    +0.000 A 
ATOM     12  C   UNL     1     114.188 126.180 138.729  0.00  0.00    +0.000 A 
ENDROOT
BRANCH  11  14
ATOM     13  O   UNL     1     113.052 128.677 141.365  0.00  0.00    +0.000 OA
ATOM     14  C   UNL     1     113.315 126.988 139.576  0.00  0.00    +0.000 A 
ATOM     15  C   UNL     1     113.224 127.785 139.381  0.00  0.00    +0.000 A 
ATOM     16  C   UNL     1     113.319 126.755 140.367  0.00  0.00    +0.000 A 
ATOM     17  C   UNL     1     113.136 128.348 139.977  0.00  0.00    +0.000 A 
ATOM     18  C   UNL     1     113.231 127.318 140.964  0.00  0.00    +0.000 A 
ATOM     19  C   UNL     1     113.139 128.114 140.769  0.00  0.00    +0.000 A 
BRANCH  17  20
ATOM     20  O   UNL     1     113.044 129.145 139.783  0.00  0.00    +0.000 OA
ATOM     21  C   UNL     1     112.604 129.359 139.119  0.00  0.00    +0.000 C 
ENDBRANCH  17  20
ENDBRANCH  11  14
BRANCH   6  22
ATOM     22  O   UNL     1     111.561 124.278 136.672  0.00  0.00    +0.000 OA
ATOM     23  C   UNL     1     111.611 123.545 136.298  0.00  0.00    +0.000 C 
ENDBRANCH   6  22
BRANCH   4  24
ATOM     24  O   UNL     1     111.392 125.404 137.866  0.00  0.00    +0.000 OA
BRANCH  24  33
ATOM     25  O   UNL     1     111.367 126.383 136.826  0.00  0.00    +0.000 OA
ATOM     26  O   UNL     1     109.129 127.127 137.581  0.00  0.00    +0.000 OA
ATOM     27  O   UNL     1     109.850 127.858 136.290  0.00  0.00    +0.000 OA
ATOM     28  O   UNL     1     109.901 125.899 138.369  0.00  0.00    +0.000 OA
ATOM     29  C   UNL     1     109.875 126.879 137.329  0.00  0.00    +0.000 C 
ATOM     30  C   UNL     1     110.235 127.245 136.684  0.00  0.00    +0.000 C 
ATOM     31  C   UNL     1     110.261 126.265 137.724  0.00  0.00    +0.000 C 
ATOM     32  C   UNL     1     110.981 126.997 136.432  0.00  0.00    +0.000 C 
ATOM     33  C   UNL     1     111.006 126.017 137.472  0.00  0.00    +0.000 C 
BRANCH  32  35
ATOM     34  O   UNL     1     112.003 127.842 135.901  0.00  0.00    +0.000 OA
ATOM     35  C   UNL     1     111.341 127.362 135.786  0.00  0.00    +0.000 C 
ENDBRANCH  32  35
ENDBRANCH  24  33
ENDBRANCH   4  24
TORSDOF 6
ENDMDL
