MODEL 1
REMARK VINA RESULT:     -10.0      0.000      0.000
REMARK  Name = 5491604
REMARK  7 active torsions:
REMARK  status: ('A' for Active; 'I' for Inactive)
REMARK    1  A    between atoms: O_3  and  C_26
REMARK    2  A    between atoms: O_3  and  C_30
REMARK    3  A    between atoms: O_4  and  C_27
REMARK    4  A    between atoms: O_4  and  C_31
REMARK    5  A    between atoms: C_24  and  C_28
REMARK    6  A    between atoms: C_25  and  C_29
REMARK    7  A    between atoms: C_34  and  C_39
REMARK                            x       y       z     vdW  Elec       q    Type
REMARK                         _______ _______ _______ _____ _____    ______ ____
ROOT
ATOM      1  O   UNL     1     112.903 127.988 137.443  0.00  0.00    +0.000 OA
ATOM      2  O   UNL     1     110.784 129.184 137.895  0.00  0.00    +0.000 OA
ATOM      3  O   UNL     1     112.268 126.039 139.513  0.00  0.00    +0.000 OA
ATOM      4  O   UNL     1     110.436 128.238 138.927  0.00  0.00    +0.000 OA
ATOM      5  C   UNL     1     112.602 127.007 138.472  0.00  0.00    +0.000 A 
ATOM      6  C   UNL     1     112.003 129.061 137.160  0.00  0.00    +0.000 A 
ATOM      7  C   UNL     1     112.390 127.712 138.027  0.00  0.00    +0.000 A 
ATOM      8  C   UNL     1     111.684 128.110 138.178  0.00  0.00    +0.000 A 
ATOM      9  C   UNL     1     112.710 128.663 137.009  0.00  0.00    +0.000 A 
ATOM     10  C   UNL     1     111.491 128.785 137.744  0.00  0.00    +0.000 A 
ATOM     11  C   UNL     1     112.072 126.715 139.081  0.00  0.00    +0.000 A 
ATOM     12  C   UNL     1     111.141 127.833 138.783  0.00  0.00    +0.000 A 
ATOM     13  C   UNL     1     111.336 127.131 139.237  0.00  0.00    +0.000 A 
ENDROOT
BRANCH   9  15
ATOM     14  O   UNL     1     114.765 129.768 134.676  0.00  0.00    +0.000 OA
ATOM     15  C   UNL     1     113.223 128.939 136.426  0.00  0.00    +0.000 A 
ATOM     16  C   UNL     1     113.690 129.604 136.569  0.00  0.00    +0.000 A 
ATOM     17  C   UNL     1     113.270 128.551 135.700  0.00  0.00    +0.000 A 
ATOM     18  C   UNL     1     114.204 129.880 135.985  0.00  0.00    +0.000 A 
ATOM     19  C   UNL     1     113.784 128.826 135.116  0.00  0.00    +0.000 A 
ATOM     20  C   UNL     1     114.251 129.492 135.259  0.00  0.00    +0.000 A 
ENDBRANCH   9  15
BRANCH   5  21
ATOM     21  O   UNL     1     113.311 126.615 138.314  0.00  0.00    +0.000 OA
BRANCH  21  30
ATOM     22  O   UNL     1     112.628 125.711 137.444  0.00  0.00    +0.000 OA
ATOM     23  O   UNL     1     114.674 124.330 137.273  0.00  0.00    +0.000 OA
ATOM     24  O   UNL     1     113.309 123.886 136.460  0.00  0.00    +0.000 OA
ATOM     25  O   UNL     1     114.675 125.694 138.200  0.00  0.00    +0.000 OA
ATOM     26  C   UNL     1     113.992 124.790 137.330  0.00  0.00    +0.000 C 
ATOM     27  C   UNL     1     113.310 124.568 136.924  0.00  0.00    +0.000 C 
ATOM     28  C   UNL     1     113.993 125.472 137.794  0.00  0.00    +0.000 C 
ATOM     29  C   UNL     1     112.628 125.028 136.981  0.00  0.00    +0.000 C 
ATOM     30  C   UNL     1     113.311 125.933 137.851  0.00  0.00    +0.000 C 
BRANCH  29  32
ATOM     31  O   UNL     1     111.665 125.273 135.954  0.00  0.00    +0.000 OA
ATOM     32  C   UNL     1     111.945 124.806 136.574  0.00  0.00    +0.000 C 
ENDBRANCH  29  32
ENDBRANCH  21  30
ENDBRANCH   5  21
BRANCH   6  33
ATOM     33  O   UNL     1     111.810 129.736 136.727  0.00  0.00    +0.000 OA
BRANCH  33  42
ATOM     34  O   UNL     1     110.804 129.083 135.950  0.00  0.00    +0.000 OA
ATOM     35  O   UNL     1     109.579 131.222 135.737  0.00  0.00    +0.000 OA
ATOM     36  O   UNL     1     108.982 129.855 135.031  0.00  0.00    +0.000 OA
ATOM     37  O   UNL     1     110.994 131.163 136.585  0.00  0.00    +0.000 OA
ATOM     38  C   UNL     1     109.988 130.509 135.808  0.00  0.00    +0.000 C 
ATOM     39  C   UNL     1     109.689 129.826 135.455  0.00  0.00    +0.000 C 
ATOM     40  C   UNL     1     110.695 130.479 136.232  0.00  0.00    +0.000 C 
ATOM     41  C   UNL     1     110.098 129.113 135.527  0.00  0.00    +0.000 C 
ATOM     42  C   UNL     1     111.103 129.766 136.303  0.00  0.00    +0.000 C 
BRANCH  41  44
ATOM     43  O   UNL     1     110.249 128.025 134.613  0.00  0.00    +0.000 OA
ATOM     44  C   UNL     1     109.799 128.429 135.174  0.00  0.00    +0.000 C 
ENDBRANCH  41  44
ENDBRANCH  33  42
ENDBRANCH   6  33
TORSDOF 7
ENDMDL
MODEL 2
REMARK VINA RESULT:      -9.9      1.807      5.289
REMARK  Name = 5491604
REMARK  7 active torsions:
REMARK  status: ('A' for Active; 'I' for Inactive)
REMARK    1  A    between atoms: O_3  and  C_26
REMARK    2  A    between atoms: O_3  and  C_30
REMARK    3  A    between atoms: O_4  and  C_27
REMARK    4  A    between atoms: O_4  and  C_31
REMARK    5  A    between atoms: C_24  and  C_28
REMARK    6  A    between atoms: C_25  and  C_29
REMARK    7  A    between atoms: C_34  and  C_39
REMARK                            x       y       z     vdW  Elec       q    Type
REMARK                         _______ _______ _______ _____ _____    ______ ____
ROOT
ATOM      1  O   UNL     1     110.672 129.982 135.762  0.00  0.00    +0.000 OA
ATOM      2  O   UNL     1     109.393 127.883 135.479  0.00  0.00    +0.000 OA
ATOM      3  O   UNL     1     108.204 131.442 136.271  0.00  0.00    +0.000 OA
ATOM      4  O   UNL     1     108.150 128.572 135.726  0.00  0.00    +0.000 OA
ATOM      5  C   UNL     1     109.451 130.726 136.018  0.00  0.00    +0.000 A 
ATOM      6  C   UNL     1     110.641 128.579 135.496  0.00  0.00    +0.000 A 
ATOM      7  C   UNL     1     109.851 129.986 135.839  0.00  0.00    +0.000 A 
ATOM      8  C   UNL     1     109.424 129.287 135.745  0.00  0.00    +0.000 A 
ATOM      9  C   UNL     1     111.067 129.278 135.591  0.00  0.00    +0.000 A 
ATOM     10  C   UNL     1     109.819 128.583 135.573  0.00  0.00    +0.000 A 
ATOM     11  C   UNL     1     108.596 130.736 136.100  0.00  0.00    +0.000 A 
ATOM     12  C   UNL     1     108.569 129.277 135.823  0.00  0.00    +0.000 A 
ATOM     13  C   UNL     1     108.152 130.007 136.001  0.00  0.00    +0.000 A 
ENDROOT
BRANCH   9  15
ATOM     14  O   UNL     1     114.352 129.265 135.281  0.00  0.00    +0.000 OA
ATOM     15  C   UNL     1     111.888 129.275 135.514  0.00  0.00    +0.000 A 
ATOM     16  C   UNL     1     112.232 129.232 134.765  0.00  0.00    +0.000 A 
ATOM     17  C   UNL     1     112.367 129.315 136.185  0.00  0.00    +0.000 A 
ATOM     18  C   UNL     1     113.054 129.229 134.688  0.00  0.00    +0.000 A 
ATOM     19  C   UNL     1     113.188 129.312 136.108  0.00  0.00    +0.000 A 
ATOM     20  C   UNL     1     113.531 129.269 135.358  0.00  0.00    +0.000 A 
ENDBRANCH   9  15
BRANCH   5  21
ATOM     21  O   UNL     1     109.885 131.421 136.111  0.00  0.00    +0.000 OA
BRANCH  21  30
ATOM     22  O   UNL     1     109.949 131.257 137.529  0.00  0.00    +0.000 OA
ATOM     23  O   UNL     1     110.411 133.675 137.788  0.00  0.00    +0.000 OA
ATOM     24  O   UNL     1     110.320 132.705 139.120  0.00  0.00    +0.000 OA
ATOM     25  O   UNL     1     110.193 133.032 136.283  0.00  0.00    +0.000 OA
ATOM     26  C   UNL     1     110.257 132.869 137.702  0.00  0.00    +0.000 C 
ATOM     27  C   UNL     1     110.212 132.385 138.367  0.00  0.00    +0.000 C 
ATOM     28  C   UNL     1     110.148 132.548 136.949  0.00  0.00    +0.000 C 
ATOM     29  C   UNL     1     110.058 131.579 138.281  0.00  0.00    +0.000 C 
ATOM     30  C   UNL     1     109.994 131.742 136.863  0.00  0.00    +0.000 C 
BRANCH  29  32
ATOM     31  O   UNL     1     110.531 130.457 139.030  0.00  0.00    +0.000 OA
ATOM     32  C   UNL     1     110.012 131.093 138.948  0.00  0.00    +0.000 C 
ENDBRANCH  29  32
ENDBRANCH  21  30
ENDBRANCH   5  21
BRANCH   6  33
ATOM     33  O   UNL     1     111.035 127.875 135.325  0.00  0.00    +0.000 OA
BRANCH  33  42
ATOM     34  O   UNL     1     110.902 127.330 136.639  0.00  0.00    +0.000 OA
ATOM     35  O   UNL     1     110.793 125.050 135.680  0.00  0.00    +0.000 OA
ATOM     36  O   UNL     1     110.695 125.265 137.314  0.00  0.00    +0.000 OA
ATOM     37  O   UNL     1     110.963 126.356 134.685  0.00  0.00    +0.000 OA
ATOM     38  C   UNL     1     110.829 125.810 136.000  0.00  0.00    +0.000 C 
ATOM     39  C   UNL     1     110.780 125.917 136.817  0.00  0.00    +0.000 C 
ATOM     40  C   UNL     1     110.914 126.463 135.502  0.00  0.00    +0.000 C 
ATOM     41  C   UNL     1     110.817 126.677 137.135  0.00  0.00    +0.000 C 
ATOM     42  C   UNL     1     110.950 127.222 135.822  0.00  0.00    +0.000 C 
BRANCH  41  44
ATOM     43  O   UNL     1     111.391 127.143 138.359  0.00  0.00    +0.000 OA
ATOM     44  C   UNL     1     110.768 126.785 137.952  0.00  0.00    +0.000 C 
ENDBRANCH  41  44
ENDBRANCH  33  42
ENDBRANCH   6  33
TORSDOF 7
ENDMDL
MODEL 3
REMARK VINA RESULT:      -9.8      2.134      4.252
REMARK  Name = 5491604
REMARK  7 active torsions:
REMARK  status: ('A' for Active; 'I' for Inactive)
REMARK    1  A    between atoms: O_3  and  C_26
REMARK    2  A    between atoms: O_3  and  C_30
REMARK    3  A    between atoms: O_4  and  C_27
REMARK    4  A    between atoms: O_4  and  C_31
REMARK    5  A    between atoms: C_24  and  C_28
REMARK    6  A    between atoms: C_25  and  C_29
REMARK    7  A    between atoms: C_34  and  C_39
REMARK                            x       y       z     vdW  Elec       q    Type
REMARK                         _______ _______ _______ _____ _____    ______ ____
ROOT
ATOM      1  O   UNL     1     113.049 127.840 138.587  0.00  0.00    +0.000 OA
ATOM      2  O   UNL     1     111.218 126.186 138.409  0.00  0.00    +0.000 OA
ATOM      3  O   UNL     1     113.283 127.307 141.440  0.00  0.00    +0.000 OA
ATOM      4  O   UNL     1     111.304 125.895 139.820  0.00  0.00    +0.000 OA
ATOM      5  C   UNL     1     113.179 127.587 140.010  0.00  0.00    +0.000 A 
ATOM      6  C   UNL     1     112.080 127.147 137.798  0.00  0.00    +0.000 A 
ATOM      7  C   UNL     1     112.798 127.431 139.256  0.00  0.00    +0.000 A 
ATOM      8  C   UNL     1     112.187 126.879 139.198  0.00  0.00    +0.000 A 
ATOM      9  C   UNL     1     112.690 127.699 137.857  0.00  0.00    +0.000 A 
ATOM     10  C   UNL     1     111.829 126.737 138.469  0.00  0.00    +0.000 A 
ATOM     11  C   UNL     1     112.922 127.163 140.712  0.00  0.00    +0.000 A 
ATOM     12  C   UNL     1     111.916 126.445 139.888  0.00  0.00    +0.000 A 
ATOM     13  C   UNL     1     112.285 126.588 140.650  0.00  0.00    +0.000 A 
ENDROOT
BRANCH   9  15
ATOM     14  O   UNL     1     113.697 129.340 135.177  0.00  0.00    +0.000 OA
ATOM     15  C   UNL     1     112.942 128.109 137.187  0.00  0.00    +0.000 A 
ATOM     16  C   UNL     1     112.496 128.739 136.898  0.00  0.00    +0.000 A 
ATOM     17  C   UNL     1     113.640 127.889 136.806  0.00  0.00    +0.000 A 
ATOM     18  C   UNL     1     112.747 129.150 136.228  0.00  0.00    +0.000 A 
ATOM     19  C   UNL     1     113.892 128.299 136.136  0.00  0.00    +0.000 A 
ATOM     20  C   UNL     1     113.445 128.930 135.847  0.00  0.00    +0.000 A 
ENDBRANCH   9  15
BRANCH   5  21
ATOM     21  O   UNL     1     113.789 128.140 140.060  0.00  0.00    +0.000 OA
BRANCH  21  30
ATOM     22  O   UNL     1     112.867 129.162 140.444  0.00  0.00    +0.000 OA
ATOM     23  O   UNL     1     114.752 130.591 141.171  0.00  0.00    +0.000 OA
ATOM     24  O   UNL     1     113.201 131.136 141.313  0.00  0.00    +0.000 OA
ATOM     25  O   UNL     1     115.046 129.093 140.545  0.00  0.00    +0.000 OA
ATOM     26  C   UNL     1     114.123 130.115 140.929  0.00  0.00    +0.000 C 
ATOM     27  C   UNL     1     113.349 130.387 141.000  0.00  0.00    +0.000 C 
ATOM     28  C   UNL     1     114.271 129.366 140.616  0.00  0.00    +0.000 C 
ATOM     29  C   UNL     1     112.720 129.911 140.757  0.00  0.00    +0.000 C 
ATOM     30  C   UNL     1     113.643 128.889 140.373  0.00  0.00    +0.000 C 
BRANCH  29  32
ATOM     31  O   UNL     1     111.492 130.319 140.152  0.00  0.00    +0.000 OA
ATOM     32  C   UNL     1     111.944 130.183 140.828  0.00  0.00    +0.000 C 
ENDBRANCH  29  32
ENDBRANCH  21  30
ENDBRANCH   5  21
BRANCH   6  33
ATOM     33  O   UNL     1     111.721 127.005 137.069  0.00  0.00    +0.000 OA
BRANCH  33  42
ATOM     34  O   UNL     1     112.335 125.726 136.896  0.00  0.00    +0.000 OA
ATOM     35  O   UNL     1     110.393 124.977 135.556  0.00  0.00    +0.000 OA
ATOM     36  O   UNL     1     111.655 123.948 135.829  0.00  0.00    +0.000 OA
ATOM     37  O   UNL     1     110.426 126.505 136.176  0.00  0.00    +0.000 OA
ATOM     38  C   UNL     1     111.040 125.227 136.002  0.00  0.00    +0.000 C 
ATOM     39  C   UNL     1     111.671 124.712 136.139  0.00  0.00    +0.000 C 
ATOM     40  C   UNL     1     111.057 125.991 136.312  0.00  0.00    +0.000 C 
ATOM     41  C   UNL     1     112.318 124.963 136.586  0.00  0.00    +0.000 C 
ATOM     42  C   UNL     1     111.704 126.241 136.759  0.00  0.00    +0.000 C 
BRANCH  41  44
ATOM     43  O   UNL     1     113.697 124.625 136.423  0.00  0.00    +0.000 OA
ATOM     44  C   UNL     1     112.949 124.448 136.722  0.00  0.00    +0.000 C 
ENDBRANCH  41  44
ENDBRANCH  33  42
ENDBRANCH   6  33
TORSDOF 7
ENDMDL
MODEL 4
REMARK VINA RESULT:      -9.8      1.389      5.199
REMARK  Name = 5491604
REMARK  7 active torsions:
REMARK  status: ('A' for Active; 'I' for Inactive)
REMARK    1  A    between atoms: O_3  and  C_26
REMARK    2  A    between atoms: O_3  and  C_30
REMARK    3  A    between atoms: O_4  and  C_27
REMARK    4  A    between atoms: O_4  and  C_31
REMARK    5  A    between atoms: C_24  and  C_28
REMARK    6  A    between atoms: C_25  and  C_29
REMARK    7  A    between atoms: C_34  and  C_39
REMARK                            x       y       z     vdW  Elec       q    Type
REMARK                         _______ _______ _______ _____ _____    ______ ____
ROOT
ATOM      1  O   UNL     1     112.353 128.438 138.384  0.00  0.00    +0.000 OA
ATOM      2  O   UNL     1     113.432 127.143 136.572  0.00  0.00    +0.000 OA
ATOM      3  O   UNL     1     112.157 130.760 136.637  0.00  0.00    +0.000 OA
ATOM      4  O   UNL     1     113.352 128.273 135.678  0.00  0.00    +0.000 OA
ATOM      5  C   UNL     1     112.247 129.605 137.526  0.00  0.00    +0.000 A 
ATOM      6  C   UNL     1     112.938 127.224 137.910  0.00  0.00    +0.000 A 
ATOM      7  C   UNL     1     112.486 128.789 137.650  0.00  0.00    +0.000 A 
ATOM      8  C   UNL     1     112.846 128.358 137.046  0.00  0.00    +0.000 A 
ATOM      9  C   UNL     1     112.578 127.655 138.515  0.00  0.00    +0.000 A 
ATOM     10  C   UNL     1     113.072 127.575 137.176  0.00  0.00    +0.000 A 
ATOM     11  C   UNL     1     112.384 129.976 136.764  0.00  0.00    +0.000 A 
ATOM     12  C   UNL     1     112.992 128.712 136.277  0.00  0.00    +0.000 A 
ATOM     13  C   UNL     1     112.759 129.526 136.135  0.00  0.00    +0.000 A 
ENDROOT
BRANCH   9  15
ATOM     14  O   UNL     1     112.043 126.252 141.453  0.00  0.00    +0.000 OA
ATOM     15  C   UNL     1     112.444 127.304 139.249  0.00  0.00    +0.000 A 
ATOM     16  C   UNL     1     113.071 127.195 139.774  0.00  0.00    +0.000 A 
ATOM     17  C   UNL     1     111.684 127.062 139.459  0.00  0.00    +0.000 A 
ATOM     18  C   UNL     1     112.937 126.844 140.509  0.00  0.00    +0.000 A 
ATOM     19  C   UNL     1     111.549 126.712 140.193  0.00  0.00    +0.000 A 
ATOM     20  C   UNL     1     112.177 126.603 140.719  0.00  0.00    +0.000 A 
ENDBRANCH   9  15
BRANCH   5  21
ATOM     21  O   UNL     1     111.888 130.029 138.136  0.00  0.00    +0.000 OA
BRANCH  21  30
ATOM     22  O   UNL     1     110.594 129.683 137.638  0.00  0.00    +0.000 OA
ATOM     23  O   UNL     1     109.567 131.354 139.148  0.00  0.00    +0.000 OA
ATOM     24  O   UNL     1     108.615 130.452 138.147  0.00  0.00    +0.000 OA
ATOM     25  O   UNL     1     111.203 131.143 139.143  0.00  0.00    +0.000 OA
ATOM     26  C   UNL     1     109.909 130.797 138.645  0.00  0.00    +0.000 C 
ATOM     27  C   UNL     1     109.433 130.346 138.145  0.00  0.00    +0.000 C 
ATOM     28  C   UNL     1     110.727 130.692 138.643  0.00  0.00    +0.000 C 
ATOM     29  C   UNL     1     109.776 129.789 137.642  0.00  0.00    +0.000 C 
ATOM     30  C   UNL     1     111.070 130.135 138.139  0.00  0.00    +0.000 C 
BRANCH  29  32
ATOM     31  O   UNL     1     109.213 128.528 137.274  0.00  0.00    +0.000 OA
ATOM     32  C   UNL     1     109.300 129.338 137.141  0.00  0.00    +0.000 C 
ENDBRANCH  29  32
ENDBRANCH  21  30
ENDBRANCH   5  21
BRANCH   6  33
ATOM     33  O   UNL     1     113.164 126.441 138.041  0.00  0.00    +0.000 OA
BRANCH  33  42
ATOM     34  O   UNL     1     112.096 125.901 137.259  0.00  0.00    +0.000 OA
ATOM     35  O   UNL     1     113.477 123.911 136.749  0.00  0.00    +0.000 OA
ATOM     36  O   UNL     1     111.948 124.034 136.138  0.00  0.00    +0.000 OA
ATOM     37  O   UNL     1     114.085 125.114 137.700  0.00  0.00    +0.000 OA
ATOM     38  C   UNL     1     113.017 124.574 136.919  0.00  0.00    +0.000 C 
ATOM     39  C   UNL     1     112.252 124.636 136.613  0.00  0.00    +0.000 C 
ATOM     40  C   UNL     1     113.320 125.176 137.395  0.00  0.00    +0.000 C 
ATOM     41  C   UNL     1     111.793 125.300 136.784  0.00  0.00    +0.000 C 
ATOM     42  C   UNL     1     112.860 125.839 137.565  0.00  0.00    +0.000 C 
BRANCH  41  44
ATOM     43  O   UNL     1     110.388 125.462 136.988  0.00  0.00    +0.000 OA
ATOM     44  C   UNL     1     111.029 125.361 136.478  0.00  0.00    +0.000 C 
ENDBRANCH  41  44
ENDBRANCH  33  42
ENDBRANCH   6  33
TORSDOF 7
ENDMDL
MODEL 5
REMARK VINA RESULT:      -9.8      1.612      4.951
REMARK  Name = 5491604
REMARK  7 active torsions:
REMARK  status: ('A' for Active; 'I' for Inactive)
REMARK    1  A    between atoms: O_3  and  C_26
REMARK    2  A    between atoms: O_3  and  C_30
REMARK    3  A    between atoms: O_4  and  C_27
REMARK    4  A    between atoms: O_4  and  C_31
REMARK    5  A    between atoms: C_24  and  C_28
REMARK    6  A    between atoms: C_25  and  C_29
REMARK    7  A    between atoms: C_34  and  C_39
REMARK                            x       y       z     vdW  Elec       q    Type
REMARK                         _______ _______ _______ _____ _____    ______ ____
ROOT
ATOM      1  O   UNL     1     111.225 128.149 138.013  0.00  0.00    +0.000 OA
ATOM      2  O   UNL     1     112.198 126.117 139.036  0.00  0.00    +0.000 OA
ATOM      3  O   UNL     1     109.093 128.152 139.997  0.00  0.00    +0.000 OA
ATOM      4  O   UNL     1     111.158 126.086 140.035  0.00  0.00    +0.000 OA
ATOM      5  C   UNL     1     110.154 128.166 138.994  0.00  0.00    +0.000 A 
ATOM      6  C   UNL     1     112.233 127.136 138.036  0.00  0.00    +0.000 A 
ATOM      7  C   UNL     1     110.866 127.807 138.672  0.00  0.00    +0.000 A 
ATOM      8  C   UNL     1     111.190 127.130 139.013  0.00  0.00    +0.000 A 
ATOM      9  C   UNL     1     111.909 127.814 137.694  0.00  0.00    +0.000 A 
ATOM     10  C   UNL     1     111.873 126.795 138.695  0.00  0.00    +0.000 A 
ATOM     11  C   UNL     1     109.776 127.814 139.681  0.00  0.00    +0.000 A 
ATOM     12  C   UNL     1     110.826 126.764 139.700  0.00  0.00    +0.000 A 
ATOM     13  C   UNL     1     110.115 127.108 140.036  0.00  0.00    +0.000 A 
ENDROOT
BRANCH   9  15
ATOM     14  O   UNL     1     113.344 129.184 135.058  0.00  0.00    +0.000 OA
ATOM     15  C   UNL     1     112.267 128.156 137.035  0.00  0.00    +0.000 A 
ATOM     16  C   UNL     1     112.967 128.582 137.122  0.00  0.00    +0.000 A 
ATOM     17  C   UNL     1     111.925 128.073 136.289  0.00  0.00    +0.000 A 
ATOM     18  C   UNL     1     113.326 128.925 136.463  0.00  0.00    +0.000 A 
ATOM     19  C   UNL     1     112.283 128.415 135.630  0.00  0.00    +0.000 A 
ATOM     20  C   UNL     1     112.985 128.842 135.717  0.00  0.00    +0.000 A 
ENDBRANCH   9  15
BRANCH   5  21
ATOM     21  O   UNL     1     109.837 128.843 138.647  0.00  0.00    +0.000 OA
BRANCH  21  30
ATOM     22  O   UNL     1     110.554 129.708 139.530  0.00  0.00    +0.000 OA
ATOM     23  O   UNL     1     108.908 131.507 139.105  0.00  0.00    +0.000 OA
ATOM     24  O   UNL     1     110.174 131.772 140.130  0.00  0.00    +0.000 OA
ATOM     25  O   UNL     1     108.740 130.042 138.363  0.00  0.00    +0.000 OA
ATOM     26  C   UNL     1     109.457 130.907 139.247  0.00  0.00    +0.000 C 
ATOM     27  C   UNL     1     110.089 131.040 139.759  0.00  0.00    +0.000 C 
ATOM     28  C   UNL     1     109.372 130.175 138.875  0.00  0.00    +0.000 C 
ATOM     29  C   UNL     1     110.637 130.440 139.900  0.00  0.00    +0.000 C 
ATOM     30  C   UNL     1     109.921 129.575 139.017  0.00  0.00    +0.000 C 
BRANCH  29  32
ATOM     31  O   UNL     1     112.042 130.579 140.121  0.00  0.00    +0.000 OA
ATOM     32  C   UNL     1     111.271 130.573 140.413  0.00  0.00    +0.000 C 
ENDBRANCH  29  32
ENDBRANCH  21  30
ENDBRANCH   5  21
BRANCH   6  33
ATOM     33  O   UNL     1     112.916 126.801 137.718  0.00  0.00    +0.000 OA
BRANCH  33  42
ATOM     34  O   UNL     1     112.231 125.700 137.117  0.00  0.00    +0.000 OA
ATOM     35  O   UNL     1     114.251 124.296 137.389  0.00  0.00    +0.000 OA
ATOM     36  O   UNL     1     112.893 123.663 136.697  0.00  0.00    +0.000 OA
ATOM     37  O   UNL     1     114.263 125.865 137.900  0.00  0.00    +0.000 OA
ATOM     38  C   UNL     1     113.578 124.764 137.298  0.00  0.00    +0.000 C 
ATOM     39  C   UNL     1     112.899 124.447 136.952  0.00  0.00    +0.000 C 
ATOM     40  C   UNL     1     113.583 125.548 137.553  0.00  0.00    +0.000 C 
ATOM     41  C   UNL     1     112.226 124.916 136.862  0.00  0.00    +0.000 C 
ATOM     42  C   UNL     1     112.910 126.017 137.463  0.00  0.00    +0.000 C 
BRANCH  41  44
ATOM     43  O   UNL     1     111.237 124.939 135.830  0.00  0.00    +0.000 OA
ATOM     44  C   UNL     1     111.547 124.600 136.516  0.00  0.00    +0.000 C 
ENDBRANCH  41  44
ENDBRANCH  33  42
ENDBRANCH   6  33
TORSDOF 7
ENDMDL
MODEL 6
REMARK VINA RESULT:      -9.8      1.812      4.326
REMARK  Name = 5491604
REMARK  7 active torsions:
REMARK  status: ('A' for Active; 'I' for Inactive)
REMARK    1  A    between atoms: O_3  and  C_26
REMARK    2  A    between atoms: O_3  and  C_30
REMARK    3  A    between atoms: O_4  and  C_27
REMARK    4  A    between atoms: O_4  and  C_31
REMARK    5  A    between atoms: C_24  and  C_28
REMARK    6  A    between atoms: C_25  and  C_29
REMARK    7  A    between atoms: C_34  and  C_39
REMARK                            x       y       z     vdW  Elec       q    Type
REMARK                         _______ _______ _______ _____ _____    ______ ____
ROOT
ATOM      1  O   UNL     1     111.415 126.159 138.642  0.00  0.00    +0.000 OA
ATOM      2  O   UNL     1     113.548 127.382 138.370  0.00  0.00    +0.000 OA
ATOM      3  O   UNL     1     111.654 126.343 141.538  0.00  0.00    +0.000 OA
ATOM      4  O   UNL     1     113.700 127.493 139.800  0.00  0.00    +0.000 OA
ATOM      5  C   UNL     1     111.518 126.242 140.088  0.00  0.00    +0.000 A 
ATOM      6  C   UNL     1     112.418 126.723 137.796  0.00  0.00    +0.000 A 
ATOM      7  C   UNL     1     111.833 126.410 139.306  0.00  0.00    +0.000 A 
ATOM      8  C   UNL     1     112.544 126.818 139.216  0.00  0.00    +0.000 A 
ATOM      9  C   UNL     1     111.707 126.315 137.886  0.00  0.00    +0.000 A 
ATOM     10  C   UNL     1     112.836 126.974 138.461  0.00  0.00    +0.000 A 
ATOM     11  C   UNL     1     111.949 126.501 140.784  0.00  0.00    +0.000 A 
ATOM     12  C   UNL     1     112.990 127.086 139.900  0.00  0.00    +0.000 A 
ATOM     13  C   UNL     1     112.690 126.926 140.689  0.00  0.00    +0.000 A 
ENDROOT
BRANCH   9  15
ATOM     14  O   UNL     1     110.032 125.306 135.228  0.00  0.00    +0.000 OA
ATOM     15  C   UNL     1     111.288 126.063 137.222  0.00  0.00    +0.000 A 
ATOM     16  C   UNL     1     111.550 125.409 136.793  0.00  0.00    +0.000 A 
ATOM     17  C   UNL     1     110.607 126.465 136.986  0.00  0.00    +0.000 A 
ATOM     18  C   UNL     1     111.131 125.157 136.128  0.00  0.00    +0.000 A 
ATOM     19  C   UNL     1     110.188 126.213 136.322  0.00  0.00    +0.000 A 
ATOM     20  C   UNL     1     110.451 125.558 135.892  0.00  0.00    +0.000 A 
ENDBRANCH   9  15
BRANCH   5  21
ATOM     21  O   UNL     1     110.806 125.833 140.169  0.00  0.00    +0.000 OA
BRANCH  21  30
ATOM     22  O   UNL     1     110.043 127.038 140.259  0.00  0.00    +0.000 OA
ATOM     23  O   UNL     1     108.258 125.819 141.463  0.00  0.00    +0.000 OA
ATOM     24  O   UNL     1     108.090 127.430 141.151  0.00  0.00    +0.000 OA
ATOM     25  O   UNL     1     109.616 125.020 140.972  0.00  0.00    +0.000 OA
ATOM     26  C   UNL     1     108.853 126.225 141.062  0.00  0.00    +0.000 C 
ATOM     27  C   UNL     1     108.769 127.030 140.906  0.00  0.00    +0.000 C 
ATOM     28  C   UNL     1     109.532 125.825 140.816  0.00  0.00    +0.000 C 
ATOM     29  C   UNL     1     109.364 127.437 140.504  0.00  0.00    +0.000 C 
ATOM     30  C   UNL     1     110.127 126.232 140.415  0.00  0.00    +0.000 C 
BRANCH  29  32
ATOM     31  O   UNL     1     109.266 128.512 139.568  0.00  0.00    +0.000 OA
ATOM     32  C   UNL     1     109.280 128.243 140.348  0.00  0.00    +0.000 C 
ENDBRANCH  29  32
ENDBRANCH  21  30
ENDBRANCH   5  21
BRANCH   6  33
ATOM     33  O   UNL     1     112.711 126.879 137.040  0.00  0.00    +0.000 OA
BRANCH  33  42
ATOM     34  O   UNL     1     112.366 128.266 137.057  0.00  0.00    +0.000 OA
ATOM     35  O   UNL     1     114.321 128.768 135.624  0.00  0.00    +0.000 OA
ATOM     36  O   UNL     1     113.324 129.988 136.119  0.00  0.00    +0.000 OA
ATOM     37  O   UNL     1     114.014 127.214 136.085  0.00  0.00    +0.000 OA
ATOM     38  C   UNL     1     113.670 128.601 136.102  0.00  0.00    +0.000 C 
ATOM     39  C   UNL     1     113.171 129.210 136.349  0.00  0.00    +0.000 C 
ATOM     40  C   UNL     1     113.516 127.824 136.332  0.00  0.00    +0.000 C 
ATOM     41  C   UNL     1     112.520 129.042 136.826  0.00  0.00    +0.000 C 
ATOM     42  C   UNL     1     112.865 127.656 136.810  0.00  0.00    +0.000 C 
BRANCH  41  44
ATOM     43  O   UNL     1     111.223 129.641 136.867  0.00  0.00    +0.000 OA
ATOM     44  C   UNL     1     112.021 129.652 137.073  0.00  0.00    +0.000 C 
ENDBRANCH  41  44
ENDBRANCH  33  42
ENDBRANCH   6  33
TORSDOF 7
ENDMDL
MODEL 7
REMARK VINA RESULT:      -9.7      1.370      5.126
REMARK  Name = 5491604
REMARK  7 active torsions:
REMARK  status: ('A' for Active; 'I' for Inactive)
REMARK    1  A    between atoms: O_3  and  C_26
REMARK    2  A    between atoms: O_3  and  C_30
REMARK    3  A    between atoms: O_4  and  C_27
REMARK    4  A    between atoms: O_4  and  C_31
REMARK    5  A    between atoms: C_24  and  C_28
REMARK    6  A    between atoms: C_25  and  C_29
REMARK    7  A    between atoms: C_34  and  C_39
REMARK                            x       y       z     vdW  Elec       q    Type
REMARK                         _______ _______ _______ _____ _____    ______ ____
ROOT
ATOM      1  O   UNL     1     110.982 128.687 135.799  0.00  0.00    +0.000 OA
ATOM      2  O   UNL     1     111.331 126.368 136.586  0.00  0.00    +0.000 OA
ATOM      3  O   UNL     1     108.101 128.262 135.760  0.00  0.00    +0.000 OA
ATOM      4  O   UNL     1     109.910 126.120 136.580  0.00  0.00    +0.000 OA
ATOM      5  C   UNL     1     109.543 128.493 135.773  0.00  0.00    +0.000 A 
ATOM      6  C   UNL     1     111.863 127.636 136.201  0.00  0.00    +0.000 A 
ATOM      7  C   UNL     1     110.335 128.192 135.922  0.00  0.00    +0.000 A 
ATOM      8  C   UNL     1     110.451 127.419 136.184  0.00  0.00    +0.000 A 
ATOM      9  C   UNL     1     111.747 128.410 135.938  0.00  0.00    +0.000 A 
ATOM     10  C   UNL     1     111.215 127.141 136.324  0.00  0.00    +0.000 A 
ATOM     11  C   UNL     1     108.865 127.982 135.900  0.00  0.00    +0.000 A 
ATOM     12  C   UNL     1     109.784 126.892 136.317  0.00  0.00    +0.000 A 
ATOM     13  C   UNL     1     108.986 127.176 136.174  0.00  0.00    +0.000 A 
ENDROOT
BRANCH   9  15
ATOM     14  O   UNL     1     114.337 130.393 135.442  0.00  0.00    +0.000 OA
ATOM     15  C   UNL     1     112.394 128.905 135.814  0.00  0.00    +0.000 A 
ATOM     16  C   UNL     1     112.866 128.808 135.145  0.00  0.00    +0.000 A 
ATOM     17  C   UNL     1     112.571 129.498 136.360  0.00  0.00    +0.000 A 
ATOM     18  C   UNL     1     113.514 129.304 135.021  0.00  0.00    +0.000 A 
ATOM     19  C   UNL     1     113.218 129.994 136.237  0.00  0.00    +0.000 A 
ATOM     20  C   UNL     1     113.690 129.897 135.566  0.00  0.00    +0.000 A 
ENDBRANCH   9  15
BRANCH   5  21
ATOM     21  O   UNL     1     109.436 129.267 135.511  0.00  0.00    +0.000 OA
BRANCH  21  30
ATOM     22  O   UNL     1     109.271 129.758 136.843  0.00  0.00    +0.000 OA
ATOM     23  O   UNL     1     108.086 131.745 135.964  0.00  0.00    +0.000 OA
ATOM     24  O   UNL     1     108.316 131.574 137.588  0.00  0.00    +0.000 OA
ATOM     25  O   UNL     1     108.646 130.592 134.925  0.00  0.00    +0.000 OA
ATOM     26  C   UNL     1     108.481 131.083 136.257  0.00  0.00    +0.000 C 
ATOM     27  C   UNL     1     108.596 130.997 137.068  0.00  0.00    +0.000 C 
ATOM     28  C   UNL     1     108.761 130.506 135.737  0.00  0.00    +0.000 C 
ATOM     29  C   UNL     1     108.991 130.335 137.362  0.00  0.00    +0.000 C 
ATOM     30  C   UNL     1     109.156 129.844 136.030  0.00  0.00    +0.000 C 
BRANCH  29  32
ATOM     31  O   UNL     1     109.871 130.182 138.477  0.00  0.00    +0.000 OA
ATOM     32  C   UNL     1     109.106 130.249 138.175  0.00  0.00    +0.000 C 
ENDBRANCH  29  32
ENDBRANCH  21  30
ENDBRANCH   5  21
BRANCH   6  33
ATOM     33  O   UNL     1     112.627 127.359 136.340  0.00  0.00    +0.000 OA
BRANCH  33  42
ATOM     34  O   UNL     1     112.509 127.423 137.762  0.00  0.00    +0.000 OA
ATOM     35  O   UNL     1     114.108 125.547 137.981  0.00  0.00    +0.000 OA
ATOM     36  O   UNL     1     113.456 126.238 139.331  0.00  0.00    +0.000 OA
ATOM     37  O   UNL     1     113.693 126.107 136.485  0.00  0.00    +0.000 OA
ATOM     38  C   UNL     1     113.575 126.172 137.908  0.00  0.00    +0.000 C 
ATOM     39  C   UNL     1     113.249 126.518 138.583  0.00  0.00    +0.000 C 
ATOM     40  C   UNL     1     113.367 126.453 137.160  0.00  0.00    +0.000 C 
ATOM     41  C   UNL     1     112.716 127.143 138.509  0.00  0.00    +0.000 C 
ATOM     42  C   UNL     1     112.835 127.078 137.087  0.00  0.00    +0.000 C 
BRANCH  41  44
ATOM     43  O   UNL     1     112.530 128.285 139.348  0.00  0.00    +0.000 OA
ATOM     44  C   UNL     1     112.390 127.489 139.184  0.00  0.00    +0.000 C 
ENDBRANCH  41  44
ENDBRANCH  33  42
ENDBRANCH   6  33
TORSDOF 7
ENDMDL
MODEL 8
REMARK VINA RESULT:      -9.7      1.691      2.942
REMARK  Name = 5491604
REMARK  7 active torsions:
REMARK  status: ('A' for Active; 'I' for Inactive)
REMARK    1  A    between atoms: O_3  and  C_26
REMARK    2  A    between atoms: O_3  and  C_30
REMARK    3  A    between atoms: O_4  and  C_27
REMARK    4  A    between atoms: O_4  and  C_31
REMARK    5  A    between atoms: C_24  and  C_28
REMARK    6  A    between atoms: C_25  and  C_29
REMARK    7  A    between atoms: C_34  and  C_39
REMARK                            x       y       z     vdW  Elec       q    Type
REMARK                         _______ _______ _______ _____ _____    ______ ____
ROOT
ATOM      1  O   UNL     1     111.125 128.106 135.747  0.00  0.00    +0.000 OA
ATOM      2  O   UNL     1     109.661 130.000 136.373  0.00  0.00    +0.000 OA
ATOM      3  O   UNL     1     108.812 126.342 135.595  0.00  0.00    +0.000 OA
ATOM      4  O   UNL     1     108.492 129.157 136.307  0.00  0.00    +0.000 OA
ATOM      5  C   UNL     1     109.983 127.213 135.667  0.00  0.00    +0.000 A 
ATOM      6  C   UNL     1     110.963 129.482 136.096  0.00  0.00    +0.000 A 
ATOM      7  C   UNL     1     110.311 127.993 135.815  0.00  0.00    +0.000 A 
ATOM      8  C   UNL     1     109.823 128.624 136.024  0.00  0.00    +0.000 A 
ATOM      9  C   UNL     1     111.452 128.851 135.888  0.00  0.00    +0.000 A 
ATOM     10  C   UNL     1     110.149 129.368 136.164  0.00  0.00    +0.000 A 
ATOM     11  C   UNL     1     109.136 127.088 135.736  0.00  0.00    +0.000 A 
ATOM     12  C   UNL     1     108.973 128.520 136.098  0.00  0.00    +0.000 A 
ATOM     13  C   UNL     1     108.627 127.747 135.953  0.00  0.00    +0.000 A 
ENDROOT
BRANCH   9  15
ATOM     14  O   UNL     1     114.709 129.302 135.614  0.00  0.00    +0.000 OA
ATOM     15  C   UNL     1     112.266 128.963 135.820  0.00  0.00    +0.000 A 
ATOM     16  C   UNL     1     112.575 129.339 135.154  0.00  0.00    +0.000 A 
ATOM     17  C   UNL     1     112.771 128.701 136.417  0.00  0.00    +0.000 A 
ATOM     18  C   UNL     1     113.390 129.452 135.086  0.00  0.00    +0.000 A 
ATOM     19  C   UNL     1     113.585 128.813 136.349  0.00  0.00    +0.000 A 
ATOM     20  C   UNL     1     113.895 129.189 135.682  0.00  0.00    +0.000 A 
ENDBRANCH   9  15
BRANCH   5  21
ATOM     21  O   UNL     1     110.478 126.587 135.459  0.00  0.00    +0.000 OA
BRANCH  21  30
ATOM     22  O   UNL     1     110.582 126.193 136.828  0.00  0.00    +0.000 OA
ATOM     23  O   UNL     1     111.662 124.076 136.139  0.00  0.00    +0.000 OA
ATOM     24  O   UNL     1     111.405 124.388 137.738  0.00  0.00    +0.000 OA
ATOM     25  O   UNL     1     111.199 125.175 134.999  0.00  0.00    +0.000 OA
ATOM     26  C   UNL     1     111.302 124.782 136.369  0.00  0.00    +0.000 C 
ATOM     27  C   UNL     1     111.174 124.937 137.168  0.00  0.00    +0.000 C 
ATOM     28  C   UNL     1     111.070 125.331 135.798  0.00  0.00    +0.000 C 
ATOM     29  C   UNL     1     110.813 125.643 137.398  0.00  0.00    +0.000 C 
ATOM     30  C   UNL     1     110.710 126.037 136.028  0.00  0.00    +0.000 C 
BRANCH  29  32
ATOM     31  O   UNL     1     111.082 126.423 138.565  0.00  0.00    +0.000 OA
ATOM     32  C   UNL     1     110.685 125.800 138.198  0.00  0.00    +0.000 C 
ENDBRANCH  29  32
ENDBRANCH  21  30
ENDBRANCH   5  21
BRANCH   6  33
ATOM     33  O   UNL     1     111.289 130.227 136.237  0.00  0.00    +0.000 OA
BRANCH  33  42
ATOM     34  O   UNL     1     111.154 130.154 137.658  0.00  0.00    +0.000 OA
ATOM     35  O   UNL     1     110.842 132.608 137.753  0.00  0.00    +0.000 OA
ATOM     36  O   UNL     1     110.810 131.717 139.142  0.00  0.00    +0.000 OA
ATOM     37  O   UNL     1     111.081 131.863 136.300  0.00  0.00    +0.000 OA
ATOM     38  C   UNL     1     110.946 131.790 137.721  0.00  0.00    +0.000 C 
ATOM     39  C   UNL     1     110.930 131.345 138.416  0.00  0.00    +0.000 C 
ATOM     40  C   UNL     1     111.065 131.417 136.995  0.00  0.00    +0.000 C 
ATOM     41  C   UNL     1     111.034 130.527 138.383  0.00  0.00    +0.000 C 
ATOM     42  C   UNL     1     111.169 130.600 136.963  0.00  0.00    +0.000 C 
BRANCH  41  44
ATOM     43  O   UNL     1     111.686 129.656 139.310  0.00  0.00    +0.000 OA
ATOM     44  C   UNL     1     111.019 130.081 139.078  0.00  0.00    +0.000 C 
ENDBRANCH  41  44
ENDBRANCH  33  42
ENDBRANCH   6  33
TORSDOF 7
ENDMDL
MODEL 9
REMARK VINA RESULT:      -9.7      1.061      4.590
REMARK  Name = 5491604
REMARK  7 active torsions:
REMARK  status: ('A' for Active; 'I' for Inactive)
REMARK    1  A    between atoms: O_3  and  C_26
REMARK    2  A    between atoms: O_3  and  C_30
REMARK    3  A    between atoms: O_4  and  C_27
REMARK    4  A    between atoms: O_4  and  C_31
REMARK    5  A    between atoms: C_24  and  C_28
REMARK    6  A    between atoms: C_25  and  C_29
REMARK    7  A    between atoms: C_34  and  C_39
REMARK                            x       y       z     vdW  Elec       q    Type
REMARK                         _______ _______ _______ _____ _____    ______ ____
ROOT
ATOM      1  O   UNL     1     111.561 128.694 137.409  0.00  0.00    +0.000 OA
ATOM      2  O   UNL     1     111.855 126.495 138.504  0.00  0.00    +0.000 OA
ATOM      3  O   UNL     1     109.211 129.219 139.046  0.00  0.00    +0.000 OA
ATOM      4  O   UNL     1     110.695 126.719 139.332  0.00  0.00    +0.000 OA
ATOM      5  C   UNL     1     110.387 128.972 138.217  0.00  0.00    +0.000 A 
ATOM      6  C   UNL     1     112.284 127.470 137.553  0.00  0.00    +0.000 A 
ATOM      7  C   UNL     1     111.034 128.452 137.995  0.00  0.00    +0.000 A 
ATOM      8  C   UNL     1     111.132 127.719 138.360  0.00  0.00    +0.000 A 
ATOM      9  C   UNL     1     112.187 128.203 137.187  0.00  0.00    +0.000 A 
ATOM     10  C   UNL     1     111.757 127.228 138.139  0.00  0.00    +0.000 A 
ATOM     11  C   UNL     1     109.835 128.726 138.827  0.00  0.00    +0.000 A 
ATOM     12  C   UNL     1     110.590 127.455 138.972  0.00  0.00    +0.000 A 
ATOM     13  C   UNL     1     109.937 127.961 139.207  0.00  0.00    +0.000 A 
ENDROOT
BRANCH   9  15
ATOM     14  O   UNL     1     114.295 129.174 134.842  0.00  0.00    +0.000 OA
ATOM     15  C   UNL     1     112.713 128.446 136.601  0.00  0.00    +0.000 A 
ATOM     16  C   UNL     1     113.462 128.723 136.808  0.00  0.00    +0.000 A 
ATOM     17  C   UNL     1     112.492 128.411 135.807  0.00  0.00    +0.000 A 
ATOM     18  C   UNL     1     113.989 128.966 136.222  0.00  0.00    +0.000 A 
ATOM     19  C   UNL     1     113.019 128.654 135.220  0.00  0.00    +0.000 A 
ATOM     20  C   UNL     1     113.768 128.932 135.429  0.00  0.00    +0.000 A 
ENDBRANCH   9  15
BRANCH   5  21
ATOM     21  O   UNL     1     110.297 129.703 137.846  0.00  0.00    +0.000 OA
BRANCH  21  30
ATOM     22  O   UNL     1     109.429 129.153 136.854  0.00  0.00    +0.000 OA
ATOM     23  O   UNL     1     108.547 131.414 136.371  0.00  0.00    +0.000 OA
ATOM     24  O   UNL     1     107.972 130.109 135.540  0.00  0.00    +0.000 OA
ATOM     25  O   UNL     1     109.709 131.211 137.524  0.00  0.00    +0.000 OA
ATOM     26  C   UNL     1     108.841 130.660 136.532  0.00  0.00    +0.000 C 
ATOM     27  C   UNL     1     108.553 130.009 136.117  0.00  0.00    +0.000 C 
ATOM     28  C   UNL     1     109.422 130.559 137.109  0.00  0.00    +0.000 C 
ATOM     29  C   UNL     1     108.847 129.255 136.278  0.00  0.00    +0.000 C 
ATOM     30  C   UNL     1     109.716 129.806 137.270  0.00  0.00    +0.000 C 
BRANCH  29  32
ATOM     31  O   UNL     1     109.067 128.164 135.381  0.00  0.00    +0.000 OA
ATOM     32  C   UNL     1     108.560 128.602 135.862  0.00  0.00    +0.000 C 
ENDBRANCH  29  32
ENDBRANCH  21  30
ENDBRANCH   5  21
BRANCH   6  33
ATOM     33  O   UNL     1     112.909 126.979 137.331  0.00  0.00    +0.000 OA
BRANCH  33  42
ATOM     34  O   UNL     1     112.074 126.050 136.636  0.00  0.00    +0.000 OA
ATOM     35  O   UNL     1     113.673 124.231 137.146  0.00  0.00    +0.000 OA
ATOM     36  O   UNL     1     112.304 123.909 136.281  0.00  0.00    +0.000 OA
ATOM     37  O   UNL     1     113.975 125.766 137.671  0.00  0.00    +0.000 OA
ATOM     38  C   UNL     1     113.140 124.838 136.976  0.00  0.00    +0.000 C 
ATOM     39  C   UNL     1     112.456 124.677 136.544  0.00  0.00    +0.000 C 
ATOM     40  C   UNL     1     113.291 125.605 137.239  0.00  0.00    +0.000 C 
ATOM     41  C   UNL     1     111.923 125.284 136.374  0.00  0.00    +0.000 C 
ATOM     42  C   UNL     1     112.758 126.211 137.069  0.00  0.00    +0.000 C 
BRANCH  41  44
ATOM     43  O   UNL     1     111.081 125.542 135.249  0.00  0.00    +0.000 OA
ATOM     44  C   UNL     1     111.239 125.123 135.942  0.00  0.00    +0.000 C 
ENDBRANCH  41  44
ENDBRANCH  33  42
ENDBRANCH   6  33
TORSDOF 7
ENDMDL
