MODEL 1
REMARK VINA RESULT:     -11.8      0.000      0.000
REMARK  Name = 131833367
REMARK  8 active torsions:
REMARK  status: ('A' for Active; 'I' for Inactive)
REMARK    1  A    between atoms: O_15  and  C_47
REMARK    2  A    between atoms: O_15  and  C_51
REMARK    3  A    between atoms: C_24  and  C_33
REMARK    4  A    between atoms: C_25  and  C_35
REMARK    5  A    between atoms: C_32  and  C_40
REMARK    6  A    between atoms: C_34  and  C_41
REMARK    7  A    between atoms: C_45  and  C_50
REMARK    8  A    between atoms: C_48  and  C_52
REMARK                            x       y       z     vdW  Elec       q    Type
REMARK                         _______ _______ _______ _____ _____    ______ ____
ROOT
ATOM      1  O   UNL     1     111.386 129.603 137.726  0.00  0.00    +0.000 OA
ATOM      2  O   UNL     1     108.238 130.329 139.054  0.00  0.00    +0.000 OA
ATOM      3  O   UNL     1     110.722 129.105 141.135  0.00  0.00    +0.000 OA
ATOM      4  O   UNL     1     112.314 128.727 140.518  0.00  0.00    +0.000 OA
ATOM      5  C   UNL     1     109.805 129.964 138.411  0.00  0.00    +0.000 A 
ATOM      6  C   UNL     1     109.480 129.716 140.095  0.00  0.00    +0.000 A 
ATOM      7  C   UNL     1     109.175 130.003 139.187  0.00  0.00    +0.000 A 
ATOM      8  C   UNL     1     110.741 129.638 138.544  0.00  0.00    +0.000 A 
ATOM      9  C   UNL     1     110.416 129.391 140.227  0.00  0.00    +0.000 A 
ATOM     10  C   UNL     1     111.047 129.352 139.452  0.00  0.00    +0.000 A 
ATOM     11  C   UNL     1     112.019 129.010 139.605  0.00  0.00    +0.000 A 
ATOM     12  C   UNL     1     112.363 129.265 137.857  0.00  0.00    +0.000 A 
ATOM     13  C   UNL     1     112.681 128.967 138.803  0.00  0.00    +0.000 A 
ENDROOT
BRANCH   5  18
ATOM     14  O   UNL     1     109.614 131.200 137.213  0.00  0.00    +0.000 OA
ATOM     15  O   UNL     1     108.960 128.636 137.177  0.00  0.00    +0.000 OA
ATOM     16  O   UNL     1     108.346 129.208 135.362  0.00  0.00    +0.000 OA
ATOM     17  O   UNL     1     108.577 131.107 134.780  0.00  0.00    +0.000 OA
ATOM     18  C   UNL     1     109.498 130.250 137.504  0.00  0.00    +0.000 C 
ATOM     19  C   UNL     1     109.075 129.586 136.886  0.00  0.00    +0.000 C 
ATOM     20  C   UNL     1     108.769 129.872 135.978  0.00  0.00    +0.000 C 
ATOM     21  C   UNL     1     108.884 130.822 135.688  0.00  0.00    +0.000 C 
ATOM     22  C   UNL     1     109.307 131.486 136.305  0.00  0.00    +0.000 C 
BRANCH  22  24
ATOM     23  O   UNL     1     110.085 133.024 136.477  0.00  0.00    +0.000 OA
ATOM     24  C   UNL     1     109.422 132.436 136.014  0.00  0.00    +0.000 C 
ENDBRANCH  22  24
ENDBRANCH   5  18
BRANCH   6  29
ATOM     25  O   UNL     1     108.267 128.971 141.080  0.00  0.00    +0.000 OA
ATOM     26  O   UNL     1     109.385 131.364 141.225  0.00  0.00    +0.000 OA
ATOM     27  O   UNL     1     108.123 131.442 142.775  0.00  0.00    +0.000 OA
ATOM     28  O   UNL     1     106.957 129.872 143.195  0.00  0.00    +0.000 OA
ATOM     29  C   UNL     1     108.850 129.756 140.870  0.00  0.00    +0.000 C 
ATOM     30  C   UNL     1     108.802 130.579 141.435  0.00  0.00    +0.000 C 
ATOM     31  C   UNL     1     108.171 130.618 142.210  0.00  0.00    +0.000 C 
ATOM     32  C   UNL     1     107.588 129.833 142.420  0.00  0.00    +0.000 C 
ATOM     33  C   UNL     1     107.636 129.010 141.855  0.00  0.00    +0.000 C 
BRANCH  33  35
ATOM     34  O   UNL     1     106.868 127.536 141.363  0.00  0.00    +0.000 OA
ATOM     35  C   UNL     1     107.052 128.225 142.065  0.00  0.00    +0.000 C 
ENDBRANCH  33  35
ENDBRANCH   6  29
BRANCH  12  38
ATOM     36  O   UNL     1     115.059 130.564 136.112  0.00  0.00    +0.000 OA
ATOM     37  O   UNL     1     114.873 129.114 134.747  0.00  0.00    +0.000 OA
ATOM     38  C   UNL     1     112.990 129.227 137.080  0.00  0.00    +0.000 A 
ATOM     39  C   UNL     1     112.897 128.502 136.397  0.00  0.00    +0.000 A 
ATOM     40  C   UNL     1     113.711 129.915 136.984  0.00  0.00    +0.000 A 
ATOM     41  C   UNL     1     113.525 128.464 135.620  0.00  0.00    +0.000 A 
ATOM     42  C   UNL     1     114.338 129.877 136.207  0.00  0.00    +0.000 A 
ATOM     43  C   UNL     1     114.246 129.152 135.524  0.00  0.00    +0.000 A 
BRANCH  39  44
ATOM     44  O   UNL     1     112.177 127.815 136.492  0.00  0.00    +0.000 OA
BRANCH  44  52
ATOM     45  O   UNL     1     113.328 126.548 136.757  0.00  0.00    +0.000 OA
ATOM     46  O   UNL     1     111.275 124.515 135.952  0.00  0.00    +0.000 OA
ATOM     47  O   UNL     1     110.809 126.460 135.956  0.00  0.00    +0.000 OA
ATOM     48  O   UNL     1     113.111 123.926 136.485  0.00  0.00    +0.000 OA
ATOM     49  C   UNL     1     111.960 125.193 136.220  0.00  0.00    +0.000 C 
ATOM     50  C   UNL     1     111.726 126.165 136.222  0.00  0.00    +0.000 C 
ATOM     51  C   UNL     1     112.878 124.899 136.487  0.00  0.00    +0.000 C 
ATOM     52  C   UNL     1     112.411 126.843 136.491  0.00  0.00    +0.000 C 
ATOM     53  C   UNL     1     113.562 125.576 136.755  0.00  0.00    +0.000 C 
BRANCH  53  56
ATOM     54  O   UNL     1     115.179 125.129 136.324  0.00  0.00    +0.000 OA
ATOM     55  O   UNL     1     114.697 125.139 137.987  0.00  0.00    +0.000 OA
ATOM     56  C   UNL     1     114.479 125.281 137.022  0.00  0.00    +0.000 C 
ENDBRANCH  53  56
ENDBRANCH  44  52
ENDBRANCH  39  44
ENDBRANCH  12  38
TORSDOF 8
ENDMDL
MODEL 2
REMARK VINA RESULT:     -11.5      1.792      2.481
REMARK  Name = 131833367
REMARK  8 active torsions:
REMARK  status: ('A' for Active; 'I' for Inactive)
REMARK    1  A    between atoms: O_15  and  C_47
REMARK    2  A    between atoms: O_15  and  C_51
REMARK    3  A    between atoms: C_24  and  C_33
REMARK    4  A    between atoms: C_25  and  C_35
REMARK    5  A    between atoms: C_32  and  C_40
REMARK    6  A    between atoms: C_34  and  C_41
REMARK    7  A    between atoms: C_45  and  C_50
REMARK    8  A    between atoms: C_48  and  C_52
REMARK                            x       y       z     vdW  Elec       q    Type
REMARK                         _______ _______ _______ _____ _____    ______ ____
ROOT
ATOM      1  O   UNL     1     112.346 130.133 138.676  0.00  0.00    +0.000 OA
ATOM      2  O   UNL     1     109.970 131.030 141.073  0.00  0.00    +0.000 OA
ATOM      3  O   UNL     1     113.060 129.847 142.099  0.00  0.00    +0.000 OA
ATOM      4  O   UNL     1     114.282 129.386 140.936  0.00  0.00    +0.000 OA
ATOM      5  C   UNL     1     111.160 130.581 139.897  0.00  0.00    +0.000 A 
ATOM      6  C   UNL     1     111.515 130.439 141.586  0.00  0.00    +0.000 A 
ATOM      7  C   UNL     1     110.882 130.683 140.852  0.00  0.00    +0.000 A 
ATOM      8  C   UNL     1     112.071 130.234 139.675  0.00  0.00    +0.000 A 
ATOM      9  C   UNL     1     112.427 130.092 141.365  0.00  0.00    +0.000 A 
ATOM     10  C   UNL     1     112.704 129.990 140.409  0.00  0.00    +0.000 A 
ATOM     11  C   UNL     1     113.657 129.627 140.194  0.00  0.00    +0.000 A 
ATOM     12  C   UNL     1     113.294 129.773 138.438  0.00  0.00    +0.000 A 
ATOM     13  C   UNL     1     113.953 129.518 139.202  0.00  0.00    +0.000 A 
ENDROOT
BRANCH   5  18
ATOM     14  O   UNL     1     110.538 131.748 138.778  0.00  0.00    +0.000 OA
ATOM     15  O   UNL     1     109.865 129.224 139.202  0.00  0.00    +0.000 OA
ATOM     16  O   UNL     1     108.596 129.713 137.735  0.00  0.00    +0.000 OA
ATOM     17  O   UNL     1     108.621 131.558 136.963  0.00  0.00    +0.000 OA
ATOM     18  C   UNL     1     110.525 130.826 139.163  0.00  0.00    +0.000 C 
ATOM     19  C   UNL     1     109.877 130.147 138.815  0.00  0.00    +0.000 C 
ATOM     20  C   UNL     1     109.243 130.392 138.082  0.00  0.00    +0.000 C 
ATOM     21  C   UNL     1     109.256 131.314 137.697  0.00  0.00    +0.000 C 
ATOM     22  C   UNL     1     109.903 131.992 138.045  0.00  0.00    +0.000 C 
BRANCH  22  24
ATOM     23  O   UNL     1     110.442 133.638 138.106  0.00  0.00    +0.000 OA
ATOM     24  C   UNL     1     109.915 132.915 137.658  0.00  0.00    +0.000 C 
ENDBRANCH  22  24
ENDBRANCH   5  18
BRANCH   6  29
ATOM     25  O   UNL     1     111.397 131.405 143.018  0.00  0.00    +0.000 OA
ATOM     26  O   UNL     1     110.640 128.916 142.542  0.00  0.00    +0.000 OA
ATOM     27  O   UNL     1     110.084 129.121 144.452  0.00  0.00    +0.000 OA
ATOM     28  O   UNL     1     110.403 130.850 145.406  0.00  0.00    +0.000 OA
ATOM     29  C   UNL     1     111.237 130.541 142.541  0.00  0.00    +0.000 C 
ATOM     30  C   UNL     1     110.800 129.780 143.019  0.00  0.00    +0.000 C 
ATOM     31  C   UNL     1     110.522 129.883 143.974  0.00  0.00    +0.000 C 
ATOM     32  C   UNL     1     110.681 130.748 144.451  0.00  0.00    +0.000 C 
ATOM     33  C   UNL     1     111.119 131.509 143.973  0.00  0.00    +0.000 C 
BRANCH  33  35
ATOM     34  O   UNL     1     111.568 133.181 143.937  0.00  0.00    +0.000 OA
ATOM     35  C   UNL     1     111.278 132.373 144.450  0.00  0.00    +0.000 C 
ENDBRANCH  33  35
ENDBRANCH   6  29
BRANCH  12  38
ATOM     36  O   UNL     1     115.117 130.878 135.707  0.00  0.00    +0.000 OA
ATOM     37  O   UNL     1     114.392 129.370 134.612  0.00  0.00    +0.000 OA
ATOM     38  C   UNL     1     113.568 129.672 137.482  0.00  0.00    +0.000 A 
ATOM     39  C   UNL     1     113.205 128.917 136.934  0.00  0.00    +0.000 A 
ATOM     40  C   UNL     1     114.206 130.326 137.072  0.00  0.00    +0.000 A 
ATOM     41  C   UNL     1     113.480 128.817 135.978  0.00  0.00    +0.000 A 
ATOM     42  C   UNL     1     114.480 130.225 136.116  0.00  0.00    +0.000 A 
ATOM     43  C   UNL     1     114.117 129.470 135.569  0.00  0.00    +0.000 A 
BRANCH  39  44
ATOM     44  O   UNL     1     112.568 128.264 137.343  0.00  0.00    +0.000 OA
BRANCH  44  52
ATOM     45  O   UNL     1     113.508 126.830 137.102  0.00  0.00    +0.000 OA
ATOM     46  O   UNL     1     111.019 125.319 136.385  0.00  0.00    +0.000 OA
ATOM     47  O   UNL     1     110.909 127.257 136.865  0.00  0.00    +0.000 OA
ATOM     48  O   UNL     1     112.789 124.388 136.382  0.00  0.00    +0.000 OA
ATOM     49  C   UNL     1     111.849 125.823 136.624  0.00  0.00    +0.000 C 
ATOM     50  C   UNL     1     111.794 126.792 136.864  0.00  0.00    +0.000 C 
ATOM     51  C   UNL     1     112.734 125.357 136.623  0.00  0.00    +0.000 C 
ATOM     52  C   UNL     1     112.624 127.296 137.103  0.00  0.00    +0.000 C 
ATOM     53  C   UNL     1     113.564 125.861 136.862  0.00  0.00    +0.000 C 
BRANCH  53  56
ATOM     54  O   UNL     1     114.787 124.960 137.694  0.00  0.00    +0.000 OA
ATOM     55  O   UNL     1     114.995 125.365 136.024  0.00  0.00    +0.000 OA
ATOM     56  C   UNL     1     114.448 125.395 136.860  0.00  0.00    +0.000 C 
ENDBRANCH  53  56
ENDBRANCH  44  52
ENDBRANCH  39  44
ENDBRANCH  12  38
TORSDOF 8
ENDMDL
MODEL 3
REMARK VINA RESULT:     -11.3      1.037      3.148
REMARK  Name = 131833367
REMARK  8 active torsions:
REMARK  status: ('A' for Active; 'I' for Inactive)
REMARK    1  A    between atoms: O_15  and  C_47
REMARK    2  A    between atoms: O_15  and  C_51
REMARK    3  A    between atoms: C_24  and  C_33
REMARK    4  A    between atoms: C_25  and  C_35
REMARK    5  A    between atoms: C_32  and  C_40
REMARK    6  A    between atoms: C_34  and  C_41
REMARK    7  A    between atoms: C_45  and  C_50
REMARK    8  A    between atoms: C_48  and  C_52
REMARK                            x       y       z     vdW  Elec       q    Type
REMARK                         _______ _______ _______ _____ _____    ______ ____
ROOT
ATOM      1  O   UNL     1     111.717 129.232 138.179  0.00  0.00    +0.000 OA
ATOM      2  O   UNL     1     110.381 128.901 141.389  0.00  0.00    +0.000 OA
ATOM      3  O   UNL     1     108.452 130.309 138.879  0.00  0.00    +0.000 OA
ATOM      4  O   UNL     1     109.076 130.495 137.257  0.00  0.00    +0.000 OA
ATOM      5  C   UNL     1     111.029 129.072 139.791  0.00  0.00    +0.000 A 
ATOM      6  C   UNL     1     109.416 129.605 140.134  0.00  0.00    +0.000 A 
ATOM      7  C   UNL     1     110.275 129.193 140.438  0.00  0.00    +0.000 A 
ATOM      8  C   UNL     1     110.923 129.364 138.841  0.00  0.00    +0.000 A 
ATOM      9  C   UNL     1     109.311 129.896 139.183  0.00  0.00    +0.000 A 
ATOM     10  C   UNL     1     110.064 129.776 138.537  0.00  0.00    +0.000 A 
ATOM     11  C   UNL     1     109.940 130.085 137.550  0.00  0.00    +0.000 A 
ATOM     12  C   UNL     1     111.614 129.534 137.187  0.00  0.00    +0.000 A 
ATOM     13  C   UNL     1     110.719 129.963 136.870  0.00  0.00    +0.000 A 
ENDROOT
BRANCH   5  18
ATOM     14  O   UNL     1     112.640 129.242 140.404  0.00  0.00    +0.000 OA
ATOM     15  O   UNL     1     111.239 127.083 139.785  0.00  0.00    +0.000 OA
ATOM     16  O   UNL     1     112.955 126.258 140.395  0.00  0.00    +0.000 OA
ATOM     17  O   UNL     1     114.462 127.421 141.010  0.00  0.00    +0.000 OA
ATOM     18  C   UNL     1     111.887 128.660 140.096  0.00  0.00    +0.000 C 
ATOM     19  C   UNL     1     111.992 127.665 140.093  0.00  0.00    +0.000 C 
ATOM     20  C   UNL     1     112.851 127.252 140.398  0.00  0.00    +0.000 C 
ATOM     21  C   UNL     1     113.604 127.834 140.706  0.00  0.00    +0.000 C 
ATOM     22  C   UNL     1     113.498 128.829 140.709  0.00  0.00    +0.000 C 
BRANCH  22  24
ATOM     23  O   UNL     1     114.203 130.401 140.891  0.00  0.00    +0.000 OA
ATOM     24  C   UNL     1     114.252 129.410 141.017  0.00  0.00    +0.000 C 
ENDBRANCH  22  24
ENDBRANCH   5  18
BRANCH   6  29
ATOM     25  O   UNL     1     108.027 128.973 140.952  0.00  0.00    +0.000 OA
ATOM     26  O   UNL     1     109.182 131.349 141.084  0.00  0.00    +0.000 OA
ATOM     27  O   UNL     1     107.676 131.589 142.378  0.00  0.00    +0.000 OA
ATOM     28  O   UNL     1     106.404 130.084 142.721  0.00  0.00    +0.000 OA
ATOM     29  C   UNL     1     108.663 129.725 140.781  0.00  0.00    +0.000 C 
ATOM     30  C   UNL     1     108.546 130.597 141.256  0.00  0.00    +0.000 C 
ATOM     31  C   UNL     1     107.793 130.716 141.903  0.00  0.00    +0.000 C 
ATOM     32  C   UNL     1     107.156 129.964 142.074  0.00  0.00    +0.000 C 
ATOM     33  C   UNL     1     107.274 129.092 141.599  0.00  0.00    +0.000 C 
BRANCH  33  35
ATOM     34  O   UNL     1     106.834 127.427 141.412  0.00  0.00    +0.000 OA
ATOM     35  C   UNL     1     106.638 128.340 141.771  0.00  0.00    +0.000 C 
ENDBRANCH  33  35
ENDBRANCH   6  29
BRANCH  12  38
ATOM     36  O   UNL     1     114.445 130.766 135.616  0.00  0.00    +0.000 OA
ATOM     37  O   UNL     1     114.636 129.046 134.612  0.00  0.00    +0.000 OA
ATOM     38  C   UNL     1     112.369 129.412 136.543  0.00  0.00    +0.000 A 
ATOM     39  C   UNL     1     112.464 128.552 136.042  0.00  0.00    +0.000 A 
ATOM     40  C   UNL     1     113.030 130.150 136.401  0.00  0.00    +0.000 A 
ATOM     41  C   UNL     1     113.220 128.430 135.398  0.00  0.00    +0.000 A 
ATOM     42  C   UNL     1     113.785 130.028 135.757  0.00  0.00    +0.000 A 
ATOM     43  C   UNL     1     113.881 129.168 135.256  0.00  0.00    +0.000 A 
BRANCH  39  44
ATOM     44  O   UNL     1     111.804 127.814 136.183  0.00  0.00    +0.000 OA
BRANCH  44  52
ATOM     45  O   UNL     1     113.058 126.682 136.566  0.00  0.00    +0.000 OA
ATOM     46  O   UNL     1     111.199 124.413 135.943  0.00  0.00    +0.000 OA
ATOM     47  O   UNL     1     110.565 126.302 135.768  0.00  0.00    +0.000 OA
ATOM     48  O   UNL     1     113.072 124.037 136.532  0.00  0.00    +0.000 OA
ATOM     49  C   UNL     1     111.819 125.169 136.150  0.00  0.00    +0.000 C 
ATOM     50  C   UNL     1     111.502 126.114 136.063  0.00  0.00    +0.000 C 
ATOM     51  C   UNL     1     112.756 124.982 136.445  0.00  0.00    +0.000 C 
ATOM     52  C   UNL     1     112.122 126.870 136.271  0.00  0.00    +0.000 C 
ATOM     53  C   UNL     1     113.376 125.738 136.653  0.00  0.00    +0.000 C 
BRANCH  53  56
ATOM     54  O   UNL     1     114.510 125.388 137.914  0.00  0.00    +0.000 OA
ATOM     55  O   UNL     1     115.051 125.523 136.275  0.00  0.00    +0.000 OA
ATOM     56  C   UNL     1     114.312 125.550 136.948  0.00  0.00    +0.000 C 
ENDBRANCH  53  56
ENDBRANCH  44  52
ENDBRANCH  39  44
ENDBRANCH  12  38
TORSDOF 8
ENDMDL
MODEL 4
REMARK VINA RESULT:     -11.2      2.872      5.896
REMARK  Name = 131833367
REMARK  8 active torsions:
REMARK  status: ('A' for Active; 'I' for Inactive)
REMARK    1  A    between atoms: O_15  and  C_47
REMARK    2  A    between atoms: O_15  and  C_51
REMARK    3  A    between atoms: C_24  and  C_33
REMARK    4  A    between atoms: C_25  and  C_35
REMARK    5  A    between atoms: C_32  and  C_40
REMARK    6  A    between atoms: C_34  and  C_41
REMARK    7  A    between atoms: C_45  and  C_50
REMARK    8  A    between atoms: C_48  and  C_52
REMARK                            x       y       z     vdW  Elec       q    Type
REMARK                         _______ _______ _______ _____ _____    ______ ____
ROOT
ATOM      1  O   UNL     1     109.632 128.778 141.863  0.00  0.00    +0.000 OA
ATOM      2  O   UNL     1     106.307 127.712 141.879  0.00  0.00    +0.000 OA
ATOM      3  O   UNL     1     108.830 125.409 141.301  0.00  0.00    +0.000 OA
ATOM      4  O   UNL     1     110.510 125.895 141.284  0.00  0.00    +0.000 OA
ATOM      5  C   UNL     1     107.962 128.224 141.868  0.00  0.00    +0.000 A 
ATOM      6  C   UNL     1     107.569 126.560 141.590  0.00  0.00    +0.000 A 
ATOM      7  C   UNL     1     107.279 127.498 141.779  0.00  0.00    +0.000 A 
ATOM      8  C   UNL     1     108.933 128.012 141.768  0.00  0.00    +0.000 A 
ATOM      9  C   UNL     1     108.541 126.348 141.490  0.00  0.00    +0.000 A 
ATOM     10  C   UNL     1     109.223 127.074 141.579  0.00  0.00    +0.000 A 
ATOM     11  C   UNL     1     110.232 126.837 141.472  0.00  0.00    +0.000 A 
ATOM     12  C   UNL     1     110.647 128.564 141.760  0.00  0.00    +0.000 A 
ATOM     13  C   UNL     1     110.948 127.587 141.564  0.00  0.00    +0.000 A 
ENDROOT
BRANCH   5  18
ATOM     14  O   UNL     1     107.505 129.455 142.998  0.00  0.00    +0.000 OA
ATOM     15  O   UNL     1     107.714 129.515 140.361  0.00  0.00    +0.000 OA
ATOM     16  O   UNL     1     107.133 131.392 140.738  0.00  0.00    +0.000 OA
ATOM     17  O   UNL     1     106.800 131.977 142.621  0.00  0.00    +0.000 OA
ATOM     18  C   UNL     1     107.671 129.162 142.057  0.00  0.00    +0.000 C 
ATOM     19  C   UNL     1     107.547 129.809 141.302  0.00  0.00    +0.000 C 
ATOM     20  C   UNL     1     107.257 130.747 141.491  0.00  0.00    +0.000 C 
ATOM     21  C   UNL     1     107.090 131.039 142.433  0.00  0.00    +0.000 C 
ATOM     22  C   UNL     1     107.214 130.393 143.186  0.00  0.00    +0.000 C 
BRANCH  22  24
ATOM     23  O   UNL     1     106.946 130.006 144.854  0.00  0.00    +0.000 OA
ATOM     24  C   UNL     1     107.047 130.686 144.128  0.00  0.00    +0.000 C 
ENDBRANCH  22  24
ENDBRANCH   5  18
BRANCH   6  29
ATOM     25  O   UNL     1     106.572 125.553 140.595  0.00  0.00    +0.000 OA
ATOM     26  O   UNL     1     106.832 125.673 143.225  0.00  0.00    +0.000 OA
ATOM     27  O   UNL     1     105.467 124.223 143.046  0.00  0.00    +0.000 OA
ATOM     28  O   UNL     1     104.838 123.659 141.233  0.00  0.00    +0.000 OA
ATOM     29  C   UNL     1     106.886 125.835 141.501  0.00  0.00    +0.000 C 
ATOM     30  C   UNL     1     106.518 125.392 142.318  0.00  0.00    +0.000 C 
ATOM     31  C   UNL     1     105.835 124.666 142.229  0.00  0.00    +0.000 C 
ATOM     32  C   UNL     1     105.520 124.384 141.322  0.00  0.00    +0.000 C 
ATOM     33  C   UNL     1     105.889 124.828 140.505  0.00  0.00    +0.000 C 
BRANCH  33  35
ATOM     34  O   UNL     1     105.566 125.203 138.845  0.00  0.00    +0.000 OA
ATOM     35  C   UNL     1     105.574 124.546 139.599  0.00  0.00    +0.000 C 
ENDBRANCH  33  35
ENDBRANCH   6  29
BRANCH  12  38
ATOM     36  O   UNL     1     112.417 130.789 143.740  0.00  0.00    +0.000 OA
ATOM     37  O   UNL     1     113.365 131.477 142.119  0.00  0.00    +0.000 OA
ATOM     38  C   UNL     1     111.326 129.292 141.850  0.00  0.00    +0.000 A 
ATOM     39  C   UNL     1     111.800 129.636 141.039  0.00  0.00    +0.000 A 
ATOM     40  C   UNL     1     111.532 129.677 142.751  0.00  0.00    +0.000 A 
ATOM     41  C   UNL     1     112.480 130.364 141.129  0.00  0.00    +0.000 A 
ATOM     42  C   UNL     1     112.211 130.405 142.840  0.00  0.00    +0.000 A 
ATOM     43  C   UNL     1     112.685 130.749 142.030  0.00  0.00    +0.000 A 
BRANCH  39  44
ATOM     44  O   UNL     1     111.595 129.251 140.139  0.00  0.00    +0.000 OA
BRANCH  44  52
ATOM     45  O   UNL     1     110.815 130.623 139.425  0.00  0.00    +0.000 OA
ATOM     46  O   UNL     1     112.318 130.149 136.874  0.00  0.00    +0.000 OA
ATOM     47  O   UNL     1     112.597 128.936 138.439  0.00  0.00    +0.000 OA
ATOM     48  O   UNL     1     111.037 131.679 137.010  0.00  0.00    +0.000 OA
ATOM     49  C   UNL     1     111.817 130.307 137.724  0.00  0.00    +0.000 C 
ATOM     50  C   UNL     1     111.956 129.700 138.507  0.00  0.00    +0.000 C 
ATOM     51  C   UNL     1     111.176 131.072 137.793  0.00  0.00    +0.000 C 
ATOM     52  C   UNL     1     111.455 129.858 139.358  0.00  0.00    +0.000 C 
ATOM     53  C   UNL     1     110.675 131.230 138.643  0.00  0.00    +0.000 C 
BRANCH  53  56
ATOM     54  O   UNL     1     109.102 131.899 138.364  0.00  0.00    +0.000 OA
ATOM     55  O   UNL     1     110.327 132.855 139.126  0.00  0.00    +0.000 OA
ATOM     56  C   UNL     1     110.034 131.994 138.711  0.00  0.00    +0.000 C 
ENDBRANCH  53  56
ENDBRANCH  44  52
ENDBRANCH  39  44
ENDBRANCH  12  38
TORSDOF 8
ENDMDL
MODEL 5
REMARK VINA RESULT:     -11.1      1.766      6.646
REMARK  Name = 131833367
REMARK  8 active torsions:
REMARK  status: ('A' for Active; 'I' for Inactive)
REMARK    1  A    between atoms: O_15  and  C_47
REMARK    2  A    between atoms: O_15  and  C_51
REMARK    3  A    between atoms: C_24  and  C_33
REMARK    4  A    between atoms: C_25  and  C_35
REMARK    5  A    between atoms: C_32  and  C_40
REMARK    6  A    between atoms: C_34  and  C_41
REMARK    7  A    between atoms: C_45  and  C_50
REMARK    8  A    between atoms: C_48  and  C_52
REMARK                            x       y       z     vdW  Elec       q    Type
REMARK                         _______ _______ _______ _____ _____    ______ ____
ROOT
ATOM      1  O   UNL     1     111.508 129.150 140.461  0.00  0.00    +0.000 OA
ATOM      2  O   UNL     1     111.557 127.654 137.305  0.00  0.00    +0.000 OA
ATOM      3  O   UNL     1     113.091 126.058 139.969  0.00  0.00    +0.000 OA
ATOM      4  O   UNL     1     113.093 126.766 141.568  0.00  0.00    +0.000 OA
ATOM      5  C   UNL     1     111.542 128.382 138.877  0.00  0.00    +0.000 A 
ATOM      6  C   UNL     1     112.324 126.855 138.638  0.00  0.00    +0.000 A 
ATOM      7  C   UNL     1     111.808 127.630 138.273  0.00  0.00    +0.000 A 
ATOM      8  C   UNL     1     111.792 128.360 139.844  0.00  0.00    +0.000 A 
ATOM      9  C   UNL     1     112.575 126.833 139.605  0.00  0.00    +0.000 A 
ATOM     10  C   UNL     1     112.309 127.585 140.209  0.00  0.00    +0.000 A 
ATOM     11  C   UNL     1     112.577 127.546 141.214  0.00  0.00    +0.000 A 
ATOM     12  C   UNL     1     111.766 129.132 141.470  0.00  0.00    +0.000 A 
ATOM     13  C   UNL     1     112.304 128.325 141.849  0.00  0.00    +0.000 A 
ENDROOT
BRANCH   5  18
ATOM     14  O   UNL     1     111.507 129.957 138.156  0.00  0.00    +0.000 OA
ATOM     15  O   UNL     1     109.542 128.330 138.860  0.00  0.00    +0.000 OA
ATOM     16  O   UNL     1     108.508 129.879 138.130  0.00  0.00    +0.000 OA
ATOM     17  O   UNL     1     109.473 131.479 137.417  0.00  0.00    +0.000 OA
ATOM     18  C   UNL     1     111.025 129.157 138.512  0.00  0.00    +0.000 C 
ATOM     19  C   UNL     1     110.024 129.131 138.503  0.00  0.00    +0.000 C 
ATOM     20  C   UNL     1     109.508 129.905 138.138  0.00  0.00    +0.000 C 
ATOM     21  C   UNL     1     109.990 130.705 137.782  0.00  0.00    +0.000 C 
ATOM     22  C   UNL     1     110.990 130.731 137.791  0.00  0.00    +0.000 C 
BRANCH  22  24
ATOM     23  O   UNL     1     112.465 131.507 137.316  0.00  0.00    +0.000 OA
ATOM     24  C   UNL     1     111.472 131.532 137.434  0.00  0.00    +0.000 C 
ENDBRANCH  22  24
ENDBRANCH   5  18
BRANCH   6  29
ATOM     25  O   UNL     1     113.449 126.152 137.525  0.00  0.00    +0.000 OA
ATOM     26  O   UNL     1     111.137 125.257 138.448  0.00  0.00    +0.000 OA
ATOM     27  O   UNL     1     111.669 123.754 137.240  0.00  0.00    +0.000 OA
ATOM     28  O   UNL     1     113.388 123.850 136.222  0.00  0.00    +0.000 OA
ATOM     29  C   UNL     1     112.590 126.104 138.034  0.00  0.00    +0.000 C 
ATOM     30  C   UNL     1     111.997 125.305 137.939  0.00  0.00    +0.000 C 
ATOM     31  C   UNL     1     112.263 124.554 137.334  0.00  0.00    +0.000 C 
ATOM     32  C   UNL     1     113.122 124.602 136.825  0.00  0.00    +0.000 C 
ATOM     33  C   UNL     1     113.715 125.401 136.921  0.00  0.00    +0.000 C 
BRANCH  33  35
ATOM     34  O   UNL     1     114.909 126.330 136.075  0.00  0.00    +0.000 OA
ATOM     35  C   UNL     1     114.575 125.449 136.412  0.00  0.00    +0.000 C 
ENDBRANCH  33  35
ENDBRANCH   6  29
BRANCH  12  38
ATOM     36  O   UNL     1     112.394 132.260 142.821  0.00  0.00    +0.000 OA
ATOM     37  O   UNL     1     110.696 132.147 143.872  0.00  0.00    +0.000 OA
ATOM     38  C   UNL     1     111.498 129.886 142.071  0.00  0.00    +0.000 A 
ATOM     39  C   UNL     1     110.649 129.829 142.596  0.00  0.00    +0.000 A 
ATOM     40  C   UNL     1     112.080 130.697 142.146  0.00  0.00    +0.000 A 
ATOM     41  C   UNL     1     110.382 130.583 143.196  0.00  0.00    +0.000 A 
ATOM     42  C   UNL     1     111.813 131.450 142.746  0.00  0.00    +0.000 A 
ATOM     43  C   UNL     1     110.964 131.393 143.272  0.00  0.00    +0.000 A 
BRANCH  39  44
ATOM     44  O   UNL     1     110.068 129.019 142.521  0.00  0.00    +0.000 OA
BRANCH  44  52
ATOM     45  O   UNL     1     108.748 130.014 142.002  0.00  0.00    +0.000 OA
ATOM     46  O   UNL     1     107.009 127.583 141.764  0.00  0.00    +0.000 OA
ATOM     47  O   UNL     1     108.908 127.398 142.362  0.00  0.00    +0.000 OA
ATOM     48  O   UNL     1     106.269 129.389 141.325  0.00  0.00    +0.000 OA
ATOM     49  C   UNL     1     107.589 128.394 141.843  0.00  0.00    +0.000 C 
ATOM     50  C   UNL     1     108.539 128.301 142.142  0.00  0.00    +0.000 C 
ATOM     51  C   UNL     1     107.219 129.296 141.624  0.00  0.00    +0.000 C 
ATOM     52  C   UNL     1     109.119 129.112 142.222  0.00  0.00    +0.000 C 
ATOM     53  C   UNL     1     107.799 130.107 141.703  0.00  0.00    +0.000 C 
BRANCH  53  56
ATOM     54  O   UNL     1     107.342 131.297 140.531  0.00  0.00    +0.000 OA
ATOM     55  O   UNL     1     107.145 131.625 142.219  0.00  0.00    +0.000 OA
ATOM     56  C   UNL     1     107.429 131.009 141.484  0.00  0.00    +0.000 C 
ENDBRANCH  53  56
ENDBRANCH  44  52
ENDBRANCH  39  44
ENDBRANCH  12  38
TORSDOF 8
ENDMDL
MODEL 6
REMARK VINA RESULT:     -11.1      1.772      2.584
REMARK  Name = 131833367
REMARK  8 active torsions:
REMARK  status: ('A' for Active; 'I' for Inactive)
REMARK    1  A    between atoms: O_15  and  C_47
REMARK    2  A    between atoms: O_15  and  C_51
REMARK    3  A    between atoms: C_24  and  C_33
REMARK    4  A    between atoms: C_25  and  C_35
REMARK    5  A    between atoms: C_32  and  C_40
REMARK    6  A    between atoms: C_34  and  C_41
REMARK    7  A    between atoms: C_45  and  C_50
REMARK    8  A    between atoms: C_48  and  C_52
REMARK                            x       y       z     vdW  Elec       q    Type
REMARK                         _______ _______ _______ _____ _____    ______ ____
ROOT
ATOM      1  O   UNL     1     112.261 130.121 138.664  0.00  0.00    +0.000 OA
ATOM      2  O   UNL     1     109.868 131.240 140.948  0.00  0.00    +0.000 OA
ATOM      3  O   UNL     1     112.878 129.985 142.115  0.00  0.00    +0.000 OA
ATOM      4  O   UNL     1     114.107 129.413 141.011  0.00  0.00    +0.000 OA
ATOM      5  C   UNL     1     111.065 130.681 139.828  0.00  0.00    +0.000 A 
ATOM      6  C   UNL     1     111.373 130.612 141.532  0.00  0.00    +0.000 A 
ATOM      7  C   UNL     1     110.769 130.844 140.769  0.00  0.00    +0.000 A 
ATOM      8  C   UNL     1     111.966 130.286 139.649  0.00  0.00    +0.000 A 
ATOM      9  C   UNL     1     112.274 130.217 141.353  0.00  0.00    +0.000 A 
ATOM     10  C   UNL     1     112.570 130.053 140.411  0.00  0.00    +0.000 A 
ATOM     11  C   UNL     1     113.511 129.641 140.241  0.00  0.00    +0.000 A 
ATOM     12  C   UNL     1     113.198 129.709 138.470  0.00  0.00    +0.000 A 
ATOM     13  C   UNL     1     113.827 129.468 139.264  0.00  0.00    +0.000 A 
ENDROOT
BRANCH   5  18
ATOM     14  O   UNL     1     110.484 131.831 138.670  0.00  0.00    +0.000 OA
ATOM     15  O   UNL     1     109.807 129.308 139.098  0.00  0.00    +0.000 OA
ATOM     16  O   UNL     1     108.597 129.772 137.574  0.00  0.00    +0.000 OA
ATOM     17  O   UNL     1     108.644 131.608 136.782  0.00  0.00    +0.000 OA
ATOM     18  C   UNL     1     110.460 130.913 139.066  0.00  0.00    +0.000 C 
ATOM     19  C   UNL     1     109.831 130.226 138.701  0.00  0.00    +0.000 C 
ATOM     20  C   UNL     1     109.226 130.459 137.939  0.00  0.00    +0.000 C 
ATOM     21  C   UNL     1     109.250 131.376 137.543  0.00  0.00    +0.000 C 
ATOM     22  C   UNL     1     109.879 132.063 137.909  0.00  0.00    +0.000 C 
BRANCH  22  24
ATOM     23  O   UNL     1     110.440 133.701 137.950  0.00  0.00    +0.000 OA
ATOM     24  C   UNL     1     109.902 132.980 137.512  0.00  0.00    +0.000 C 
ENDBRANCH  22  24
ENDBRANCH   5  18
BRANCH   6  29
ATOM     25  O   UNL     1     110.584 130.063 142.972  0.00  0.00    +0.000 OA
ATOM     26  O   UNL     1     111.763 132.364 142.414  0.00  0.00    +0.000 OA
ATOM     27  O   UNL     1     111.168 132.691 144.295  0.00  0.00    +0.000 OA
ATOM     28  O   UNL     1     110.184 131.265 145.294  0.00  0.00    +0.000 OA
ATOM     29  C   UNL     1     111.076 130.776 142.472  0.00  0.00    +0.000 C 
ATOM     30  C   UNL     1     111.271 131.651 142.913  0.00  0.00    +0.000 C 
ATOM     31  C   UNL     1     110.973 131.814 143.854  0.00  0.00    +0.000 C 
ATOM     32  C   UNL     1     110.481 131.101 144.354  0.00  0.00    +0.000 C 
ATOM     33  C   UNL     1     110.287 130.226 143.913  0.00  0.00    +0.000 C 
BRANCH  33  35
ATOM     34  O   UNL     1     109.333 128.779 143.913  0.00  0.00    +0.000 OA
ATOM     35  C   UNL     1     109.795 129.513 144.412  0.00  0.00    +0.000 C 
ENDBRANCH  33  35
ENDBRANCH   6  29
BRANCH  12  38
ATOM     36  O   UNL     1     114.767 130.812 135.584  0.00  0.00    +0.000 OA
ATOM     37  O   UNL     1     114.371 129.062 134.701  0.00  0.00    +0.000 OA
ATOM     38  C   UNL     1     113.491 129.547 137.528  0.00  0.00    +0.000 A 
ATOM     39  C   UNL     1     113.293 128.672 137.086  0.00  0.00    +0.000 A 
ATOM     40  C   UNL     1     113.983 130.261 137.027  0.00  0.00    +0.000 A 
ATOM     41  C   UNL     1     113.587 128.510 136.144  0.00  0.00    +0.000 A 
ATOM     42  C   UNL     1     114.276 130.099 136.085  0.00  0.00    +0.000 A 
ATOM     43  C   UNL     1     114.078 129.224 135.643  0.00  0.00    +0.000 A 
BRANCH  39  44
ATOM     44  O   UNL     1     112.802 127.959 137.587  0.00  0.00    +0.000 OA
BRANCH  44  52
ATOM     45  O   UNL     1     111.457 127.635 136.546  0.00  0.00    +0.000 OA
ATOM     46  O   UNL     1     112.045 124.698 136.701  0.00  0.00    +0.000 OA
ATOM     47  O   UNL     1     113.195 126.002 137.690  0.00  0.00    +0.000 OA
ATOM     48  O   UNL     1     110.503 125.352 135.609  0.00  0.00    +0.000 OA
ATOM     49  C   UNL     1     111.849 125.677 136.649  0.00  0.00    +0.000 C 
ATOM     50  C   UNL     1     112.424 126.329 137.144  0.00  0.00    +0.000 C 
ATOM     51  C   UNL     1     111.078 126.004 136.103  0.00  0.00    +0.000 C 
ATOM     52  C   UNL     1     112.227 127.308 137.092  0.00  0.00    +0.000 C 
ATOM     53  C   UNL     1     110.881 126.984 136.052  0.00  0.00    +0.000 C 
BRANCH  53  56
ATOM     54  O   UNL     1     110.271 127.734 134.615  0.00  0.00    +0.000 OA
ATOM     55  O   UNL     1     109.177 127.212 135.851  0.00  0.00    +0.000 OA
ATOM     56  C   UNL     1     110.111 127.310 135.506  0.00  0.00    +0.000 C 
ENDBRANCH  53  56
ENDBRANCH  44  52
ENDBRANCH  39  44
ENDBRANCH  12  38
TORSDOF 8
ENDMDL
MODEL 7
REMARK VINA RESULT:     -11.1      2.820      5.240
REMARK  Name = 131833367
REMARK  8 active torsions:
REMARK  status: ('A' for Active; 'I' for Inactive)
REMARK    1  A    between atoms: O_15  and  C_47
REMARK    2  A    between atoms: O_15  and  C_51
REMARK    3  A    between atoms: C_24  and  C_33
REMARK    4  A    between atoms: C_25  and  C_35
REMARK    5  A    between atoms: C_32  and  C_40
REMARK    6  A    between atoms: C_34  and  C_41
REMARK    7  A    between atoms: C_45  and  C_50
REMARK    8  A    between atoms: C_48  and  C_52
REMARK                            x       y       z     vdW  Elec       q    Type
REMARK                         _______ _______ _______ _____ _____    ______ ____
ROOT
ATOM      1  O   UNL     1     111.930 129.778 140.547  0.00  0.00    +0.000 OA
ATOM      2  O   UNL     1     110.274 131.443 143.131  0.00  0.00    +0.000 OA
ATOM      3  O   UNL     1     113.700 131.825 142.780  0.00  0.00    +0.000 OA
ATOM      4  O   UNL     1     114.573 131.012 141.502  0.00  0.00    +0.000 OA
ATOM      5  C   UNL     1     111.111 130.624 141.855  0.00  0.00    +0.000 A 
ATOM      6  C   UNL     1     111.987 131.635 142.956  0.00  0.00    +0.000 A 
ATOM      7  C   UNL     1     111.125 131.234 142.647  0.00  0.00    +0.000 A 
ATOM      8  C   UNL     1     111.960 130.415 141.370  0.00  0.00    +0.000 A 
ATOM      9  C   UNL     1     112.837 131.425 142.472  0.00  0.00    +0.000 A 
ATOM     10  C   UNL     1     112.823 130.815 141.679  0.00  0.00    +0.000 A 
ATOM     11  C   UNL     1     113.716 130.606 141.185  0.00  0.00    +0.000 A 
ATOM     12  C   UNL     1     112.811 129.556 140.038  0.00  0.00    +0.000 A 
ATOM     13  C   UNL     1     113.710 129.972 140.359  0.00  0.00    +0.000 A 
ENDROOT
BRANCH   5  18
ATOM     14  O   UNL     1     109.971 129.320 141.871  0.00  0.00    +0.000 OA
ATOM     15  O   UNL     1     109.936 131.636 140.591  0.00  0.00    +0.000 OA
ATOM     16  O   UNL     1     108.209 130.837 139.975  0.00  0.00    +0.000 OA
ATOM     17  O   UNL     1     107.657 129.028 140.622  0.00  0.00    +0.000 OA
ATOM     18  C   UNL     1     110.247 130.225 141.547  0.00  0.00    +0.000 C 
ATOM     19  C   UNL     1     109.659 130.731 140.915  0.00  0.00    +0.000 C 
ATOM     20  C   UNL     1     108.796 130.331 140.607  0.00  0.00    +0.000 C 
ATOM     21  C   UNL     1     108.520 129.427 140.931  0.00  0.00    +0.000 C 
ATOM     22  C   UNL     1     109.108 128.921 141.563  0.00  0.00    +0.000 C 
BRANCH  22  24
ATOM     23  O   UNL     1     109.524 127.334 142.121  0.00  0.00    +0.000 OA
ATOM     24  C   UNL     1     108.831 128.016 141.886  0.00  0.00    +0.000 C 
ENDBRANCH  22  24
ENDBRANCH   5  18
BRANCH   6  29
ATOM     25  O   UNL     1     112.147 131.870 144.664  0.00  0.00    +0.000 OA
ATOM     26  O   UNL     1     111.721 133.601 142.710  0.00  0.00    +0.000 OA
ATOM     27  O   UNL     1     111.747 134.820 144.295  0.00  0.00    +0.000 OA
ATOM     28  O   UNL     1     112.039 134.072 146.127  0.00  0.00    +0.000 OA
ATOM     29  C   UNL     1     112.000 132.244 143.748  0.00  0.00    +0.000 C 
ATOM     30  C   UNL     1     111.867 133.227 143.626  0.00  0.00    +0.000 C 
ATOM     31  C   UNL     1     111.880 133.836 144.419  0.00  0.00    +0.000 C 
ATOM     32  C   UNL     1     112.026 133.462 145.335  0.00  0.00    +0.000 C 
ATOM     33  C   UNL     1     112.160 132.479 145.457  0.00  0.00    +0.000 C 
BRANCH  33  35
ATOM     34  O   UNL     1     112.637 131.168 146.484  0.00  0.00    +0.000 OA
ATOM     35  C   UNL     1     112.306 132.105 146.373  0.00  0.00    +0.000 C 
ENDBRANCH  33  35
ENDBRANCH   6  29
BRANCH  12  38
ATOM     36  O   UNL     1     113.281 126.410 138.662  0.00  0.00    +0.000 OA
ATOM     37  O   UNL     1     112.742 127.114 136.869  0.00  0.00    +0.000 OA
ATOM     38  C   UNL     1     112.794 128.945 139.245  0.00  0.00    +0.000 A 
ATOM     39  C   UNL     1     112.525 129.297 138.349  0.00  0.00    +0.000 A 
ATOM     40  C   UNL     1     113.047 127.982 139.350  0.00  0.00    +0.000 A 
ATOM     41  C   UNL     1     112.507 128.687 137.557  0.00  0.00    +0.000 A 
ATOM     42  C   UNL     1     113.029 127.372 138.558  0.00  0.00    +0.000 A 
ATOM     43  C   UNL     1     112.760 127.724 137.661  0.00  0.00    +0.000 A 
BRANCH  39  44
ATOM     44  O   UNL     1     112.272 130.259 138.245  0.00  0.00    +0.000 OA
BRANCH  44  52
ATOM     45  O   UNL     1     110.789 129.825 137.463  0.00  0.00    +0.000 OA
ATOM     46  O   UNL     1     110.490 132.638 136.467  0.00  0.00    +0.000 OA
ATOM     47  O   UNL     1     112.073 132.134 137.581  0.00  0.00    +0.000 OA
ATOM     48  O   UNL     1     109.106 131.266 136.018  0.00  0.00    +0.000 OA
ATOM     49  C   UNL     1     110.590 131.700 136.800  0.00  0.00    +0.000 C 
ATOM     50  C   UNL     1     111.381 131.448 137.356  0.00  0.00    +0.000 C 
ATOM     51  C   UNL     1     109.898 131.014 136.575  0.00  0.00    +0.000 C 
ATOM     52  C   UNL     1     111.481 130.510 137.688  0.00  0.00    +0.000 C 
ATOM     53  C   UNL     1     109.998 130.076 136.907  0.00  0.00    +0.000 C 
BRANCH  53  56
ATOM     54  O   UNL     1     109.372 128.872 135.830  0.00  0.00    +0.000 OA
ATOM     55  O   UNL     1     108.545 129.224 137.310  0.00  0.00    +0.000 OA
ATOM     56  C   UNL     1     109.306 129.391 136.682  0.00  0.00    +0.000 C 
ENDBRANCH  53  56
ENDBRANCH  44  52
ENDBRANCH  39  44
ENDBRANCH  12  38
TORSDOF 8
ENDMDL
MODEL 8
REMARK VINA RESULT:     -10.9      2.057      4.493
REMARK  Name = 131833367
REMARK  8 active torsions:
REMARK  status: ('A' for Active; 'I' for Inactive)
REMARK    1  A    between atoms: O_15  and  C_47
REMARK    2  A    between atoms: O_15  and  C_51
REMARK    3  A    between atoms: C_24  and  C_33
REMARK    4  A    between atoms: C_25  and  C_35
REMARK    5  A    between atoms: C_32  and  C_40
REMARK    6  A    between atoms: C_34  and  C_41
REMARK    7  A    between atoms: C_45  and  C_50
REMARK    8  A    between atoms: C_48  and  C_52
REMARK                            x       y       z     vdW  Elec       q    Type
REMARK                         _______ _______ _______ _____ _____    ______ ____
ROOT
ATOM      1  O   UNL     1     110.192 127.667 140.255  0.00  0.00    +0.000 OA
ATOM      2  O   UNL     1     107.989 129.228 142.470  0.00  0.00    +0.000 OA
ATOM      3  O   UNL     1     107.775 125.804 141.986  0.00  0.00    +0.000 OA
ATOM      4  O   UNL     1     108.856 124.978 140.887  0.00  0.00    +0.000 OA
ATOM      5  C   UNL     1     109.074 128.439 141.375  0.00  0.00    +0.000 A 
ATOM      6  C   UNL     1     107.882 127.516 142.228  0.00  0.00    +0.000 A 
ATOM      7  C   UNL     1     108.315 128.394 142.024  0.00  0.00    +0.000 A 
ATOM      8  C   UNL     1     109.401 127.605 140.929  0.00  0.00    +0.000 A 
ATOM      9  C   UNL     1     108.208 126.682 141.782  0.00  0.00    +0.000 A 
ATOM     10  C   UNL     1     108.968 126.727 141.133  0.00  0.00    +0.000 A 
ATOM     11  C   UNL     1     109.297 125.851 140.676  0.00  0.00    +0.000 A 
ATOM     12  C   UNL     1     110.537 126.803 139.787  0.00  0.00    +0.000 A 
ATOM     13  C   UNL     1     110.087 125.889 139.999  0.00  0.00    +0.000 A 
ENDROOT
BRANCH   5  18
ATOM     14  O   UNL     1     110.326 129.598 141.670  0.00  0.00    +0.000 OA
ATOM     15  O   UNL     1     108.298 129.632 139.971  0.00  0.00    +0.000 OA
ATOM     16  O   UNL     1     109.162 131.390 139.564  0.00  0.00    +0.000 OA
ATOM     17  O   UNL     1     110.802 131.953 140.561  0.00  0.00    +0.000 OA
ATOM     18  C   UNL     1     109.507 129.317 141.172  0.00  0.00    +0.000 C 
ATOM     19  C   UNL     1     109.118 129.915 140.469  0.00  0.00    +0.000 C 
ATOM     20  C   UNL     1     109.550 130.793 140.266  0.00  0.00    +0.000 C 
ATOM     21  C   UNL     1     110.370 131.075 140.764  0.00  0.00    +0.000 C 
ATOM     22  C   UNL     1     110.758 130.477 141.466  0.00  0.00    +0.000 C 
BRANCH  22  24
ATOM     23  O   UNL     1     111.962 130.167 142.673  0.00  0.00    +0.000 OA
ATOM     24  C   UNL     1     111.578 130.759 141.965  0.00  0.00    +0.000 C 
ENDBRANCH  22  24
ENDBRANCH   5  18
BRANCH   6  29
ATOM     25  O   UNL     1     107.296 127.235 143.833  0.00  0.00    +0.000 OA
ATOM     26  O   UNL     1     106.017 127.900 141.615  0.00  0.00    +0.000 OA
ATOM     27  O   UNL     1     104.500 127.812 142.914  0.00  0.00    +0.000 OA
ATOM     28  O   UNL     1     104.846 127.339 144.827  0.00  0.00    +0.000 OA
ATOM     29  C   UNL     1     107.123 127.472 142.877  0.00  0.00    +0.000 C 
ATOM     30  C   UNL     1     106.191 127.664 142.571  0.00  0.00    +0.000 C 
ATOM     31  C   UNL     1     105.432 127.619 143.221  0.00  0.00    +0.000 C 
ATOM     32  C   UNL     1     105.605 127.383 144.177  0.00  0.00    +0.000 C 
ATOM     33  C   UNL     1     106.538 127.191 144.483  0.00  0.00    +0.000 C 
BRANCH  33  35
ATOM     34  O   UNL     1     107.206 126.116 145.666  0.00  0.00    +0.000 OA
ATOM     35  C   UNL     1     106.711 126.955 145.439  0.00  0.00    +0.000 C 
ENDBRANCH  33  35
ENDBRANCH   6  29
BRANCH  12  38
ATOM     36  O   UNL     1     113.866 126.227 139.015  0.00  0.00    +0.000 OA
ATOM     37  O   UNL     1     113.576 126.996 137.192  0.00  0.00    +0.000 OA
ATOM     38  C   UNL     1     111.297 126.851 139.138  0.00  0.00    +0.000 A 
ATOM     39  C   UNL     1     111.152 127.236 138.227  0.00  0.00    +0.000 A 
ATOM     40  C   UNL     1     112.202 126.515 139.401  0.00  0.00    +0.000 A 
ATOM     41  C   UNL     1     111.911 127.285 137.578  0.00  0.00    +0.000 A 
ATOM     42  C   UNL     1     112.961 126.563 138.753  0.00  0.00    +0.000 A 
ATOM     43  C   UNL     1     112.817 126.948 137.841  0.00  0.00    +0.000 A 
BRANCH  39  44
ATOM     44  O   UNL     1     110.248 127.572 137.964  0.00  0.00    +0.000 OA
BRANCH  44  52
ATOM     45  O   UNL     1     110.860 129.087 137.388  0.00  0.00    +0.000 OA
ATOM     46  O   UNL     1     108.530 129.316 135.514  0.00  0.00    +0.000 OA
ATOM     47  O   UNL     1     108.695 127.725 136.715  0.00  0.00    +0.000 OA
ATOM     48  O   UNL     1     109.919 130.754 135.563  0.00  0.00    +0.000 OA
ATOM     49  C   UNL     1     109.307 129.239 136.139  0.00  0.00    +0.000 C 
ATOM     50  C   UNL     1     109.389 128.444 136.739  0.00  0.00    +0.000 C 
ATOM     51  C   UNL     1     110.001 129.958 136.163  0.00  0.00    +0.000 C 
ATOM     52  C   UNL     1     110.166 128.368 137.364  0.00  0.00    +0.000 C 
ATOM     53  C   UNL     1     110.778 129.882 136.788  0.00  0.00    +0.000 C 
BRANCH  53  56
ATOM     54  O   UNL     1     112.338 130.478 136.328  0.00  0.00    +0.000 OA
ATOM     55  O   UNL     1     111.299 131.445 137.320  0.00  0.00    +0.000 OA
ATOM     56  C   UNL     1     111.472 130.601 136.812  0.00  0.00    +0.000 C 
ENDBRANCH  53  56
ENDBRANCH  44  52
ENDBRANCH  39  44
ENDBRANCH  12  38
TORSDOF 8
ENDMDL
MODEL 9
REMARK VINA RESULT:     -10.7      2.013      6.960
REMARK  Name = 131833367
REMARK  8 active torsions:
REMARK  status: ('A' for Active; 'I' for Inactive)
REMARK    1  A    between atoms: O_15  and  C_47
REMARK    2  A    between atoms: O_15  and  C_51
REMARK    3  A    between atoms: C_24  and  C_33
REMARK    4  A    between atoms: C_25  and  C_35
REMARK    5  A    between atoms: C_32  and  C_40
REMARK    6  A    between atoms: C_34  and  C_41
REMARK    7  A    between atoms: C_45  and  C_50
REMARK    8  A    between atoms: C_48  and  C_52
REMARK                            x       y       z     vdW  Elec       q    Type
REMARK                         _______ _______ _______ _____ _____    ______ ____
ROOT
ATOM      1  O   UNL     1     109.575 128.755 139.717  0.00  0.00    +0.000 OA
ATOM      2  O   UNL     1     111.507 127.847 136.953  0.00  0.00    +0.000 OA
ATOM      3  O   UNL     1     111.095 125.598 139.556  0.00  0.00    +0.000 OA
ATOM      4  O   UNL     1     110.137 126.006 140.960  0.00  0.00    +0.000 OA
ATOM      5  C   UNL     1     110.552 128.282 138.331  0.00  0.00    +0.000 A 
ATOM      6  C   UNL     1     111.301 126.722 138.255  0.00  0.00    +0.000 A 
ATOM      7  C   UNL     1     111.120 127.616 137.847  0.00  0.00    +0.000 A 
ATOM      8  C   UNL     1     110.165 128.052 139.224  0.00  0.00    +0.000 A 
ATOM      9  C   UNL     1     110.914 126.492 139.148  0.00  0.00    +0.000 A 
ATOM     10  C   UNL     1     110.346 127.158 139.632  0.00  0.00    +0.000 A 
ATOM     11  C   UNL     1     109.950 126.904 140.562  0.00  0.00    +0.000 A 
ATOM     12  C   UNL     1     109.169 128.523 140.648  0.00  0.00    +0.000 A 
ATOM     13  C   UNL     1     109.357 127.591 141.073  0.00  0.00    +0.000 A 
ENDROOT
BRANCH   5  18
ATOM     14  O   UNL     1     109.575 129.304 137.331  0.00  0.00    +0.000 OA
ATOM     15  O   UNL     1     111.784 129.814 138.698  0.00  0.00    +0.000 OA
ATOM     16  O   UNL     1     111.423 131.603 137.880  0.00  0.00    +0.000 OA
ATOM     17  O   UNL     1     109.832 131.861 136.696  0.00  0.00    +0.000 OA
ATOM     18  C   UNL     1     110.371 129.176 137.922  0.00  0.00    +0.000 C 
ATOM     19  C   UNL     1     110.988 129.943 138.106  0.00  0.00    +0.000 C 
ATOM     20  C   UNL     1     110.807 130.838 137.697  0.00  0.00    +0.000 C 
ATOM     21  C   UNL     1     110.011 130.966 137.105  0.00  0.00    +0.000 C 
ATOM     22  C   UNL     1     109.396 130.199 136.922  0.00  0.00    +0.000 C 
BRANCH  22  24
ATOM     23  O   UNL     1     107.988 129.561 136.139  0.00  0.00    +0.000 OA
ATOM     24  C   UNL     1     108.600 130.328 136.330  0.00  0.00    +0.000 C 
ENDBRANCH  22  24
ENDBRANCH   5  18
BRANCH   6  29
ATOM     25  O   UNL     1     112.859 126.051 137.908  0.00  0.00    +0.000 OA
ATOM     26  O   UNL     1     110.457 125.405 137.007  0.00  0.00    +0.000 OA
ATOM     27  O   UNL     1     111.594 124.076 136.038  0.00  0.00    +0.000 OA
ATOM     28  O   UNL     1     113.575 124.063 136.315  0.00  0.00    +0.000 OA
ATOM     29  C   UNL     1     111.869 126.057 137.770  0.00  0.00    +0.000 C 
ATOM     30  C   UNL     1     111.448 125.399 137.146  0.00  0.00    +0.000 C 
ATOM     31  C   UNL     1     112.017 124.734 136.661  0.00  0.00    +0.000 C 
ATOM     32  C   UNL     1     113.007 124.728 136.800  0.00  0.00    +0.000 C 
ATOM     33  C   UNL     1     113.428 125.386 137.424  0.00  0.00    +0.000 C 
BRANCH  33  35
ATOM     34  O   UNL     1     114.801 125.626 138.453  0.00  0.00    +0.000 OA
ATOM     35  C   UNL     1     114.419 125.380 137.562  0.00  0.00    +0.000 C 
ENDBRANCH  33  35
ENDBRANCH   6  29
BRANCH  12  38
ATOM     36  O   UNL     1     106.059 129.568 141.764  0.00  0.00    +0.000 OA
ATOM     37  O   UNL     1     106.897 131.193 142.575  0.00  0.00    +0.000 OA
ATOM     38  C   UNL     1     108.601 129.190 141.129  0.00  0.00    +0.000 A 
ATOM     39  C   UNL     1     109.020 130.003 141.535  0.00  0.00    +0.000 A 
ATOM     40  C   UNL     1     107.614 129.045 141.206  0.00  0.00    +0.000 A 
ATOM     41  C   UNL     1     108.452 130.670 142.017  0.00  0.00    +0.000 A 
ATOM     42  C   UNL     1     107.046 129.713 141.688  0.00  0.00    +0.000 A 
ATOM     43  C   UNL     1     107.465 130.525 142.093  0.00  0.00    +0.000 A 
BRANCH  39  44
ATOM     44  O   UNL     1     110.006 130.148 141.459  0.00  0.00    +0.000 OA
BRANCH  44  52
ATOM     45  O   UNL     1     110.468 129.902 143.110  0.00  0.00    +0.000 OA
ATOM     46  O   UNL     1     112.250 132.311 142.970  0.00  0.00    +0.000 OA
ATOM     47  O   UNL     1     111.194 131.753 141.365  0.00  0.00    +0.000 OA
ATOM     48  O   UNL     1     112.117 131.262 144.668  0.00  0.00    +0.000 OA
ATOM     49  C   UNL     1     111.655 131.508 143.017  0.00  0.00    +0.000 C 
ATOM     50  C   UNL     1     111.128 131.229 142.214  0.00  0.00    +0.000 C 
ATOM     51  C   UNL     1     111.589 130.983 143.866  0.00  0.00    +0.000 C 
ATOM     52  C   UNL     1     110.534 130.426 142.261  0.00  0.00    +0.000 C 
ATOM     53  C   UNL     1     110.995 130.181 143.912  0.00  0.00    +0.000 C 
BRANCH  53  56
ATOM     54  O   UNL     1     111.559 128.901 144.934  0.00  0.00    +0.000 OA
ATOM     55  O   UNL     1     110.232 129.891 145.439  0.00  0.00    +0.000 OA
ATOM     56  C   UNL     1     110.929 129.657 144.761  0.00  0.00    +0.000 C 
ENDBRANCH  53  56
ENDBRANCH  44  52
ENDBRANCH  39  44
ENDBRANCH  12  38
TORSDOF 8
ENDMDL
