MODEL 1
REMARK VINA RESULT:      -7.7      0.000      0.000
REMARK  Name = 
REMARK  8 active torsions:
REMARK  status: ('A' for Active; 'I' for Inactive)
REMARK    1  A    between atoms: C_1  and  O_35
REMARK    2  A    between atoms: C_2  and  O_29
REMARK    3  A    between atoms: C_3  and  O_18
REMARK    4  A    between atoms: C_9  and  C_11
REMARK    5  A    between atoms: C_13  and  O_37
REMARK    6  A    between atoms: C_14  and  O_31
REMARK    7  A    between atoms: C_15  and  O_33
REMARK    8  A    between atoms: O_18  and  C_23
REMARK                            x       y       z     vdW  Elec       q    Type
REMARK                         _______ _______ _______ _____ _____    ______ ____
ROOT
ATOM      1  C   UNL     1     112.096 129.001 137.130  0.00  0.00    +0.000 A 
ATOM      2  C   UNL     1     112.675 128.157 137.082  0.00  0.00    +0.000 A 
ATOM      3  C   UNL     1     112.890 127.636 137.935  0.00  0.00    +0.000 A 
ATOM      4  C   UNL     1     112.527 127.955 138.837  0.00  0.00    +0.000 A 
ATOM      5  C   UNL     1     111.948 128.799 138.886  0.00  0.00    +0.000 A 
ATOM      6  C   UNL     1     111.734 129.320 138.032  0.00  0.00    +0.000 A 
ATOM      7  C   UNL     1     112.742 127.434 139.690  0.00  0.00    +0.000 C 
ATOM      8  C   UNL     1     112.379 127.753 140.592  0.00  0.00    +0.000 C 
ATOM      9  C   UNL     1     111.800 128.597 140.640  0.00  0.00    +0.000 C 
ATOM     10  O   UNL     1     111.585 129.118 139.787  0.00  0.00    +0.000 OA
ATOM     11  O   UNL     1     113.233 126.720 139.650  0.00  0.00    +0.000 OA
ENDROOT
BRANCH   9  12
ATOM     12  C   UNL     1     111.437 128.917 141.541  0.00  0.00    +0.000 A 
ATOM     13  C   UNL     1     111.974 129.613 142.103  0.00  0.00    +0.000 A 
ATOM     14  C   UNL     1     111.604 129.938 143.022  0.00  0.00    +0.000 A 
ATOM     15  C   UNL     1     110.697 129.569 143.379  0.00  0.00    +0.000 A 
ATOM     16  C   UNL     1     110.159 128.873 142.818  0.00  0.00    +0.000 A 
ATOM     17  C   UNL     1     110.530 128.547 141.898  0.00  0.00    +0.000 A 
BRANCH  15  18
ATOM     18  O   UNL     1     110.286 129.738 144.086  0.00  0.00    +0.000 OA
ATOM     19  C   UNL     1     110.716 129.523 144.990  0.00  0.00    +0.000 C 
ENDBRANCH  15  18
BRANCH  16  20
ATOM     20  O   UNL     1     109.375 128.550 143.122  0.00  0.00    +0.000 OA
ATOM     21  C   UNL     1     108.664 128.218 142.466  0.00  0.00    +0.000 C 
ENDBRANCH  16  20
BRANCH  14  22
ATOM     22  O   UNL     1     112.170 130.488 143.316  0.00  0.00    +0.000 OA
ATOM     23  C   UNL     1     112.355 131.356 142.805  0.00  0.00    +0.000 C 
ENDBRANCH  14  22
ENDBRANCH   9  12
BRANCH   2  24
ATOM     24  O   UNL     1     113.015 127.901 136.063  0.00  0.00    +0.000 OA
ATOM     25  C   UNL     1     113.885 128.296 135.697  0.00  0.00    +0.000 C 
ENDBRANCH   2  24
BRANCH   1  26
ATOM     26  O   UNL     1     111.887 129.506 136.312  0.00  0.00    +0.000 OA
ATOM     27  C   UNL     1     111.187 130.251 136.341  0.00  0.00    +0.000 C 
ENDBRANCH   1  26
BRANCH   3  28
ATOM     28  O   UNL     1     113.469 126.793 137.887  0.00  0.00    +0.000 OA
BRANCH  28  33
ATOM     29  C   UNL     1     112.562 124.943 136.955  0.00  0.00    +0.000 C 
ATOM     30  C   UNL     1     112.680 123.927 136.655  0.00  0.00    +0.000 C 
ATOM     31  C   UNL     1     113.295 124.667 137.114  0.00  0.00    +0.000 C 
ATOM     32  C   UNL     1     114.235 124.950 137.531  0.00  0.00    +0.000 C 
ATOM     33  C   UNL     1     114.116 125.966 137.831  0.00  0.00    +0.000 C 
ATOM     34  O   UNL     1     113.502 125.226 137.372  0.00  0.00    +0.000 OA
ATOM     35  C   UNL     1     111.909 124.488 136.579  0.00  0.00    +0.000 C 
ATOM     36  O   UNL     1     111.896 123.723 136.318  0.00  0.00    +0.000 OA
ATOM     37  O   UNL     1     113.330 123.869 136.858  0.00  0.00    +0.000 OA
ATOM     38  O   UNL     1     114.659 124.343 137.472  0.00  0.00    +0.000 OA
ENDBRANCH  28  33
ENDBRANCH   3  28
TORSDOF 8
ENDMDL
MODEL 2
REMARK VINA RESULT:      -7.7      2.020      2.663
REMARK  Name = 
REMARK  8 active torsions:
REMARK  status: ('A' for Active; 'I' for Inactive)
REMARK    1  A    between atoms: C_1  and  O_35
REMARK    2  A    between atoms: C_2  and  O_29
REMARK    3  A    between atoms: C_3  and  O_18
REMARK    4  A    between atoms: C_9  and  C_11
REMARK    5  A    between atoms: C_13  and  O_37
REMARK    6  A    between atoms: C_14  and  O_31
REMARK    7  A    between atoms: C_15  and  O_33
REMARK    8  A    between atoms: O_18  and  C_23
REMARK                            x       y       z     vdW  Elec       q    Type
REMARK                         _______ _______ _______ _____ _____    ______ ____
ROOT
ATOM      1  C   UNL     1     109.776 127.526 136.452  0.00  0.00    +0.000 A 
ATOM      2  C   UNL     1     110.329 126.667 136.386  0.00  0.00    +0.000 A 
ATOM      3  C   UNL     1     110.563 126.143 137.233  0.00  0.00    +0.000 A 
ATOM      4  C   UNL     1     110.245 126.477 138.147  0.00  0.00    +0.000 A 
ATOM      5  C   UNL     1     109.692 127.337 138.213  0.00  0.00    +0.000 A 
ATOM      6  C   UNL     1     109.458 127.860 137.365  0.00  0.00    +0.000 A 
ATOM      7  C   UNL     1     110.479 125.954 138.994  0.00  0.00    +0.000 C 
ATOM      8  C   UNL     1     110.161 126.288 139.907  0.00  0.00    +0.000 C 
ATOM      9  C   UNL     1     109.608 127.147 139.973  0.00  0.00    +0.000 C 
ATOM     10  O   UNL     1     109.374 127.671 139.126  0.00  0.00    +0.000 OA
ATOM     11  O   UNL     1     110.947 125.226 138.938  0.00  0.00    +0.000 OA
ENDROOT
BRANCH   9  12
ATOM     12  C   UNL     1     109.289 127.481 140.885  0.00  0.00    +0.000 A 
ATOM     13  C   UNL     1     109.844 128.199 141.402  0.00  0.00    +0.000 A 
ATOM     14  C   UNL     1     109.520 128.539 142.332  0.00  0.00    +0.000 A 
ATOM     15  C   UNL     1     108.640 128.163 142.748  0.00  0.00    +0.000 A 
ATOM     16  C   UNL     1     108.085 127.446 142.232  0.00  0.00    +0.000 A 
ATOM     17  C   UNL     1     108.410 127.105 141.301  0.00  0.00    +0.000 A 
BRANCH  15  18
ATOM     18  O   UNL     1     108.267 128.341 143.472  0.00  0.00    +0.000 OA
ATOM     19  C   UNL     1     107.886 129.277 143.634  0.00  0.00    +0.000 C 
ENDBRANCH  15  18
BRANCH  16  20
ATOM     20  O   UNL     1     107.324 127.117 142.586  0.00  0.00    +0.000 OA
ATOM     21  C   UNL     1     106.874 126.297 142.172  0.00  0.00    +0.000 C 
ENDBRANCH  16  20
BRANCH  14  22
ATOM     22  O   UNL     1     110.091 129.105 142.582  0.00  0.00    +0.000 OA
ATOM     23  C   UNL     1     111.064 128.820 142.727  0.00  0.00    +0.000 C 
ENDBRANCH  14  22
ENDBRANCH   9  12
BRANCH   2  24
ATOM     24  O   UNL     1     110.621 126.396 135.356  0.00  0.00    +0.000 OA
ATOM     25  C   UNL     1     110.012 125.798 134.791  0.00  0.00    +0.000 C 
ENDBRANCH   2  24
BRANCH   1  26
ATOM     26  O   UNL     1     109.549 128.033 135.640  0.00  0.00    +0.000 OA
ATOM     27  C   UNL     1     109.010 128.899 135.716  0.00  0.00    +0.000 C 
ENDBRANCH   1  26
BRANCH   3  28
ATOM     28  O   UNL     1     111.116 125.285 137.167  0.00  0.00    +0.000 OA
BRANCH  28  33
ATOM     29  C   UNL     1     113.324 125.482 136.719  0.00  0.00    +0.000 C 
ATOM     30  C   UNL     1     114.259 125.003 136.538  0.00  0.00    +0.000 C 
ATOM     31  C   UNL     1     113.262 124.685 136.744  0.00  0.00    +0.000 C 
ATOM     32  C   UNL     1     112.565 123.893 136.897  0.00  0.00    +0.000 C 
ATOM     33  C   UNL     1     111.630 124.371 137.078  0.00  0.00    +0.000 C 
ATOM     34  O   UNL     1     112.626 124.689 136.872  0.00  0.00    +0.000 OA
ATOM     35  C   UNL     1     114.059 125.938 136.563  0.00  0.00    +0.000 C 
ATOM     36  O   UNL     1     114.810 125.675 136.416  0.00  0.00    +0.000 OA
ATOM     37  O   UNL     1     114.024 124.364 136.595  0.00  0.00    +0.000 OA
ATOM     38  O   UNL     1     112.966 123.271 136.826  0.00  0.00    +0.000 OA
ENDBRANCH  28  33
ENDBRANCH   3  28
TORSDOF 8
ENDMDL
MODEL 3
REMARK VINA RESULT:      -7.6      2.638      3.839
REMARK  Name = 
REMARK  8 active torsions:
REMARK  status: ('A' for Active; 'I' for Inactive)
REMARK    1  A    between atoms: C_1  and  O_35
REMARK    2  A    between atoms: C_2  and  O_29
REMARK    3  A    between atoms: C_3  and  O_18
REMARK    4  A    between atoms: C_9  and  C_11
REMARK    5  A    between atoms: C_13  and  O_37
REMARK    6  A    between atoms: C_14  and  O_31
REMARK    7  A    between atoms: C_15  and  O_33
REMARK    8  A    between atoms: O_18  and  C_23
REMARK                            x       y       z     vdW  Elec       q    Type
REMARK                         _______ _______ _______ _____ _____    ______ ____
ROOT
ATOM      1  C   UNL     1     110.428 128.829 139.140  0.00  0.00    +0.000 A 
ATOM      2  C   UNL     1     110.882 128.014 138.719  0.00  0.00    +0.000 A 
ATOM      3  C   UNL     1     110.608 127.071 139.006  0.00  0.00    +0.000 A 
ATOM      4  C   UNL     1     109.881 126.941 139.715  0.00  0.00    +0.000 A 
ATOM      5  C   UNL     1     109.427 127.757 140.137  0.00  0.00    +0.000 A 
ATOM      6  C   UNL     1     109.702 128.700 139.849  0.00  0.00    +0.000 A 
ATOM      7  C   UNL     1     109.607 125.999 140.002  0.00  0.00    +0.000 C 
ATOM      8  C   UNL     1     108.881 125.870 140.710  0.00  0.00    +0.000 C 
ATOM      9  C   UNL     1     108.427 126.685 141.132  0.00  0.00    +0.000 C 
ATOM     10  O   UNL     1     108.701 127.628 140.845  0.00  0.00    +0.000 OA
ATOM     11  O   UNL     1     109.992 125.308 139.645  0.00  0.00    +0.000 OA
ENDROOT
BRANCH   9  12
ATOM     12  C   UNL     1     107.701 126.556 141.840  0.00  0.00    +0.000 A 
ATOM     13  C   UNL     1     107.697 127.149 142.699  0.00  0.00    +0.000 A 
ATOM     14  C   UNL     1     106.956 127.018 143.421  0.00  0.00    +0.000 A 
ATOM     15  C   UNL     1     106.218 126.293 143.285  0.00  0.00    +0.000 A 
ATOM     16  C   UNL     1     106.221 125.700 142.427  0.00  0.00    +0.000 A 
ATOM     17  C   UNL     1     106.963 125.832 141.704  0.00  0.00    +0.000 A 
BRANCH  15  18
ATOM     18  O   UNL     1     105.574 126.081 143.772  0.00  0.00    +0.000 OA
ATOM     19  C   UNL     1     105.745 125.688 144.701  0.00  0.00    +0.000 C 
ENDBRANCH  15  18
BRANCH  16  20
ATOM     20  O   UNL     1     105.586 125.072 142.304  0.00  0.00    +0.000 OA
ATOM     21  C   UNL     1     105.571 124.513 141.448  0.00  0.00    +0.000 C 
ENDBRANCH  16  20
BRANCH  14  22
ATOM     22  O   UNL     1     107.122 127.580 144.026  0.00  0.00    +0.000 OA
ATOM     23  C   UNL     1     107.127 128.580 143.808  0.00  0.00    +0.000 C 
ENDBRANCH  14  22
ENDBRANCH   9  12
BRANCH   2  24
ATOM     24  O   UNL     1     111.651 128.264 137.967  0.00  0.00    +0.000 OA
ATOM     25  C   UNL     1     112.625 128.395 138.253  0.00  0.00    +0.000 C 
ENDBRANCH   2  24
BRANCH   1  26
ATOM     26  O   UNL     1     110.688 129.738 138.867  0.00  0.00    +0.000 OA
ATOM     27  C   UNL     1     110.093 130.532 139.113  0.00  0.00    +0.000 C 
ENDBRANCH   1  26
BRANCH   3  28
ATOM     28  O   UNL     1     111.062 126.256 138.585  0.00  0.00    +0.000 OA
BRANCH  28  33
ATOM     29  C   UNL     1     110.570 125.774 136.430  0.00  0.00    +0.000 C 
ATOM     30  C   UNL     1     110.733 125.153 135.580  0.00  0.00    +0.000 C 
ATOM     31  C   UNL     1     111.106 125.200 136.577  0.00  0.00    +0.000 C 
ATOM     32  C   UNL     1     111.743 124.809 137.339  0.00  0.00    +0.000 C 
ATOM     33  C   UNL     1     111.581 125.431 138.189  0.00  0.00    +0.000 C 
ATOM     34  O   UNL     1     111.208 125.384 137.191  0.00  0.00    +0.000 OA
ATOM     35  C   UNL     1     110.149 125.905 135.669  0.00  0.00    +0.000 C 
ATOM     36  O   UNL     1     110.199 125.496 134.973  0.00  0.00    +0.000 OA
ATOM     37  O   UNL     1     111.193 124.745 135.877  0.00  0.00    +0.000 OA
ATOM     38  O   UNL     1     112.088 124.234 137.020  0.00  0.00    +0.000 OA
ENDBRANCH  28  33
ENDBRANCH   3  28
TORSDOF 8
ENDMDL
MODEL 4
REMARK VINA RESULT:      -7.5      1.462      2.450
REMARK  Name = 
REMARK  8 active torsions:
REMARK  status: ('A' for Active; 'I' for Inactive)
REMARK    1  A    between atoms: C_1  and  O_35
REMARK    2  A    between atoms: C_2  and  O_29
REMARK    3  A    between atoms: C_3  and  O_18
REMARK    4  A    between atoms: C_9  and  C_11
REMARK    5  A    between atoms: C_13  and  O_37
REMARK    6  A    between atoms: C_14  and  O_31
REMARK    7  A    between atoms: C_15  and  O_33
REMARK    8  A    between atoms: O_18  and  C_23
REMARK                            x       y       z     vdW  Elec       q    Type
REMARK                         _______ _______ _______ _____ _____    ______ ____
ROOT
ATOM      1  C   UNL     1     110.868 128.661 136.497  0.00  0.00    +0.000 A 
ATOM      2  C   UNL     1     110.912 127.641 136.578  0.00  0.00    +0.000 A 
ATOM      3  C   UNL     1     111.155 127.209 137.473  0.00  0.00    +0.000 A 
ATOM      4  C   UNL     1     111.354 127.796 138.288  0.00  0.00    +0.000 A 
ATOM      5  C   UNL     1     111.309 128.816 138.208  0.00  0.00    +0.000 A 
ATOM      6  C   UNL     1     111.066 129.247 137.312  0.00  0.00    +0.000 A 
ATOM      7  C   UNL     1     111.596 127.364 139.183  0.00  0.00    +0.000 C 
ATOM      8  C   UNL     1     111.795 127.950 139.998  0.00  0.00    +0.000 C 
ATOM      9  C   UNL     1     111.750 128.970 139.917  0.00  0.00    +0.000 C 
ATOM     10  O   UNL     1     111.508 129.402 139.022  0.00  0.00    +0.000 OA
ATOM     11  O   UNL     1     111.634 126.501 139.252  0.00  0.00    +0.000 OA
ENDROOT
BRANCH   9  12
ATOM     12  C   UNL     1     111.949 129.556 140.731  0.00  0.00    +0.000 A 
ATOM     13  C   UNL     1     111.243 129.647 141.494  0.00  0.00    +0.000 A 
ATOM     14  C   UNL     1     111.446 130.245 142.324  0.00  0.00    +0.000 A 
ATOM     15  C   UNL     1     112.354 130.752 142.392  0.00  0.00    +0.000 A 
ATOM     16  C   UNL     1     113.061 130.663 141.630  0.00  0.00    +0.000 A 
ATOM     17  C   UNL     1     112.858 130.064 140.799  0.00  0.00    +0.000 A 
BRANCH  15  18
ATOM     18  O   UNL     1     112.647 131.257 142.988  0.00  0.00    +0.000 OA
ATOM     19  C   UNL     1     112.153 132.126 143.210  0.00  0.00    +0.000 C 
ENDBRANCH  15  18
BRANCH  16  20
ATOM     20  O   UNL     1     113.847 131.099 141.683  0.00  0.00    +0.000 OA
ATOM     21  C   UNL     1     114.606 130.878 141.033  0.00  0.00    +0.000 C 
ENDBRANCH  16  20
BRANCH  14  22
ATOM     22  O   UNL     1     110.766 130.189 142.819  0.00  0.00    +0.000 OA
ATOM     23  C   UNL     1     110.480 129.281 143.195  0.00  0.00    +0.000 C 
ENDBRANCH  14  22
ENDBRANCH   9  12
BRANCH   2  24
ATOM     24  O   UNL     1     110.681 127.104 135.642  0.00  0.00    +0.000 OA
ATOM     25  C   UNL     1     109.719 126.816 135.439  0.00  0.00    +0.000 C 
ENDBRANCH   2  24
BRANCH   1  26
ATOM     26  O   UNL     1     110.634 129.081 135.638  0.00  0.00    +0.000 OA
ATOM     27  C   UNL     1     110.569 130.099 135.572  0.00  0.00    +0.000 C 
ENDBRANCH   1  26
BRANCH   3  28
ATOM     28  O   UNL     1     111.199 126.191 137.554  0.00  0.00    +0.000 OA
BRANCH  28  33
ATOM     29  C   UNL     1     113.026 125.164 136.702  0.00  0.00    +0.000 C 
ATOM     30  C   UNL     1     113.541 124.254 136.494  0.00  0.00    +0.000 C 
ATOM     31  C   UNL     1     112.611 124.524 136.940  0.00  0.00    +0.000 C 
ATOM     32  C   UNL     1     111.697 124.231 137.407  0.00  0.00    +0.000 C 
ATOM     33  C   UNL     1     111.183 125.140 137.615  0.00  0.00    +0.000 C 
ATOM     34  O   UNL     1     112.113 124.871 137.169  0.00  0.00    +0.000 OA
ATOM     35  C   UNL     1     113.815 125.153 136.313  0.00  0.00    +0.000 C 
ATOM     36  O   UNL     1     114.284 124.525 136.113  0.00  0.00    +0.000 OA
ATOM     37  O   UNL     1     113.062 123.841 136.752  0.00  0.00    +0.000 OA
ATOM     38  O   UNL     1     111.727 123.489 137.430  0.00  0.00    +0.000 OA
ENDBRANCH  28  33
ENDBRANCH   3  28
TORSDOF 8
ENDMDL
MODEL 5
REMARK VINA RESULT:      -7.5      1.408      1.957
REMARK  Name = 
REMARK  8 active torsions:
REMARK  status: ('A' for Active; 'I' for Inactive)
REMARK    1  A    between atoms: C_1  and  O_35
REMARK    2  A    between atoms: C_2  and  O_29
REMARK    3  A    between atoms: C_3  and  O_18
REMARK    4  A    between atoms: C_9  and  C_11
REMARK    5  A    between atoms: C_13  and  O_37
REMARK    6  A    between atoms: C_14  and  O_31
REMARK    7  A    between atoms: C_15  and  O_33
REMARK    8  A    between atoms: O_18  and  C_23
REMARK                            x       y       z     vdW  Elec       q    Type
REMARK                         _______ _______ _______ _____ _____    ______ ____
ROOT
ATOM      1  C   UNL     1     110.927 128.678 136.546  0.00  0.00    +0.000 A 
ATOM      2  C   UNL     1     110.966 127.656 136.604  0.00  0.00    +0.000 A 
ATOM      3  C   UNL     1     111.182 127.203 137.495  0.00  0.00    +0.000 A 
ATOM      4  C   UNL     1     111.358 127.769 138.330  0.00  0.00    +0.000 A 
ATOM      5  C   UNL     1     111.319 128.791 138.272  0.00  0.00    +0.000 A 
ATOM      6  C   UNL     1     111.103 129.244 137.380  0.00  0.00    +0.000 A 
ATOM      7  C   UNL     1     111.574 127.316 139.221  0.00  0.00    +0.000 C 
ATOM      8  C   UNL     1     111.750 127.882 140.054  0.00  0.00    +0.000 C 
ATOM      9  C   UNL     1     111.711 128.903 139.996  0.00  0.00    +0.000 C 
ATOM     10  O   UNL     1     111.495 129.357 139.105  0.00  0.00    +0.000 OA
ATOM     11  O   UNL     1     111.607 126.451 139.270  0.00  0.00    +0.000 OA
ENDROOT
BRANCH   9  12
ATOM     12  C   UNL     1     111.887 129.470 140.830  0.00  0.00    +0.000 A 
ATOM     13  C   UNL     1     112.732 130.079 140.878  0.00  0.00    +0.000 A 
ATOM     14  C   UNL     1     112.912 130.656 141.728  0.00  0.00    +0.000 A 
ATOM     15  C   UNL     1     112.246 130.624 142.530  0.00  0.00    +0.000 A 
ATOM     16  C   UNL     1     111.401 130.015 142.483  0.00  0.00    +0.000 A 
ATOM     17  C   UNL     1     111.221 129.437 141.632  0.00  0.00    +0.000 A 
BRANCH  15  18
ATOM     18  O   UNL     1     112.264 131.026 143.261  0.00  0.00    +0.000 OA
ATOM     19  C   UNL     1     112.223 132.048 143.283  0.00  0.00    +0.000 C 
ENDBRANCH  15  18
BRANCH  16  20
ATOM     20  O   UNL     1     110.822 129.983 143.173  0.00  0.00    +0.000 OA
ATOM     21  C   UNL     1     110.074 129.286 143.188  0.00  0.00    +0.000 C 
ENDBRANCH  16  20
BRANCH  14  22
ATOM     22  O   UNL     1     113.629 131.071 141.577  0.00  0.00    +0.000 OA
ATOM     23  C   UNL     1     114.385 130.615 141.058  0.00  0.00    +0.000 C 
ENDBRANCH  14  22
ENDBRANCH   9  12
BRANCH   2  24
ATOM     24  O   UNL     1     110.760 127.142 135.649  0.00  0.00    +0.000 OA
ATOM     25  C   UNL     1     109.805 126.862 135.413  0.00  0.00    +0.000 C 
ENDBRANCH   2  24
BRANCH   1  26
ATOM     26  O   UNL     1     110.720 129.119 135.691  0.00  0.00    +0.000 OA
ATOM     27  C   UNL     1     110.750 130.139 135.626  0.00  0.00    +0.000 C 
ENDBRANCH   1  26
BRANCH   3  28
ATOM     28  O   UNL     1     111.221 126.182 137.553  0.00  0.00    +0.000 OA
BRANCH  28  33
ATOM     29  C   UNL     1     113.053 125.165 136.701  0.00  0.00    +0.000 C 
ATOM     30  C   UNL     1     113.565 124.258 136.479  0.00  0.00    +0.000 C 
ATOM     31  C   UNL     1     112.632 124.522 136.920  0.00  0.00    +0.000 C 
ATOM     32  C   UNL     1     111.711 124.224 137.370  0.00  0.00    +0.000 C 
ATOM     33  C   UNL     1     111.198 125.131 137.592  0.00  0.00    +0.000 C 
ATOM     34  O   UNL     1     112.132 124.867 137.151  0.00  0.00    +0.000 OA
ATOM     35  C   UNL     1     113.846 125.159 136.321  0.00  0.00    +0.000 C 
ATOM     36  O   UNL     1     114.314 124.533 136.113  0.00  0.00    +0.000 OA
ATOM     37  O   UNL     1     113.081 123.842 136.722  0.00  0.00    +0.000 OA
ATOM     38  O   UNL     1     111.737 123.481 137.377  0.00  0.00    +0.000 OA
ENDBRANCH  28  33
ENDBRANCH   3  28
TORSDOF 8
ENDMDL
MODEL 6
REMARK VINA RESULT:      -7.5      1.996      2.786
REMARK  Name = 
REMARK  8 active torsions:
REMARK  status: ('A' for Active; 'I' for Inactive)
REMARK    1  A    between atoms: C_1  and  O_35
REMARK    2  A    between atoms: C_2  and  O_29
REMARK    3  A    between atoms: C_3  and  O_18
REMARK    4  A    between atoms: C_9  and  C_11
REMARK    5  A    between atoms: C_13  and  O_37
REMARK    6  A    between atoms: C_14  and  O_31
REMARK    7  A    between atoms: C_15  and  O_33
REMARK    8  A    between atoms: O_18  and  C_23
REMARK                            x       y       z     vdW  Elec       q    Type
REMARK                         _______ _______ _______ _____ _____    ______ ____
ROOT
ATOM      1  C   UNL     1     110.637 128.449 137.316  0.00  0.00    +0.000 A 
ATOM      2  C   UNL     1     111.534 127.971 137.439  0.00  0.00    +0.000 A 
ATOM      3  C   UNL     1     111.696 127.395 138.269  0.00  0.00    +0.000 A 
ATOM      4  C   UNL     1     110.963 127.296 138.976  0.00  0.00    +0.000 A 
ATOM      5  C   UNL     1     110.066 127.774 138.853  0.00  0.00    +0.000 A 
ATOM      6  C   UNL     1     109.904 128.350 138.023  0.00  0.00    +0.000 A 
ATOM      7  C   UNL     1     111.125 126.720 139.805  0.00  0.00    +0.000 C 
ATOM      8  C   UNL     1     110.393 126.621 140.512  0.00  0.00    +0.000 C 
ATOM      9  C   UNL     1     109.495 127.099 140.389  0.00  0.00    +0.000 C 
ATOM     10  O   UNL     1     109.333 127.675 139.559  0.00  0.00    +0.000 OA
ATOM     11  O   UNL     1     111.885 126.315 139.910  0.00  0.00    +0.000 OA
ENDROOT
BRANCH   9  12
ATOM     12  C   UNL     1     108.762 127.000 141.095  0.00  0.00    +0.000 A 
ATOM     13  C   UNL     1     108.545 127.793 141.738  0.00  0.00    +0.000 A 
ATOM     14  C   UNL     1     107.798 127.692 142.458  0.00  0.00    +0.000 A 
ATOM     15  C   UNL     1     107.267 126.797 142.536  0.00  0.00    +0.000 A 
ATOM     16  C   UNL     1     107.483 126.004 141.894  0.00  0.00    +0.000 A 
ATOM     17  C   UNL     1     108.232 126.105 141.174  0.00  0.00    +0.000 A 
BRANCH  15  18
ATOM     18  O   UNL     1     106.653 126.579 143.057  0.00  0.00    +0.000 OA
ATOM     19  C   UNL     1     105.773 127.103 143.058  0.00  0.00    +0.000 C 
ENDBRANCH  15  18
BRANCH  16  20
ATOM     20  O   UNL     1     107.028 125.229 141.958  0.00  0.00    +0.000 OA
ATOM     21  C   UNL     1     107.139 124.505 141.244  0.00  0.00    +0.000 C 
ENDBRANCH  16  20
BRANCH  14  22
ATOM     22  O   UNL     1     107.774 128.426 142.869  0.00  0.00    +0.000 OA
ATOM     23  C   UNL     1     108.642 128.854 143.203  0.00  0.00    +0.000 C 
ENDBRANCH  14  22
ENDBRANCH   9  12
BRANCH   2  24
ATOM     24  O   UNL     1     112.254 128.144 136.620  0.00  0.00    +0.000 OA
ATOM     25  C   UNL     1     112.911 128.927 136.672  0.00  0.00    +0.000 C 
ENDBRANCH   2  24
BRANCH   1  26
ATOM     26  O   UNL     1     110.476 129.004 136.520  0.00  0.00    +0.000 OA
ATOM     27  C   UNL     1     109.525 129.306 136.295  0.00  0.00    +0.000 C 
ENDBRANCH   1  26
BRANCH   3  28
ATOM     28  O   UNL     1     112.593 126.917 138.392  0.00  0.00    +0.000 OA
BRANCH  28  33
ATOM     29  C   UNL     1     113.003 125.100 137.110  0.00  0.00    +0.000 C 
ATOM     30  C   UNL     1     113.676 124.324 136.824  0.00  0.00    +0.000 C 
ATOM     31  C   UNL     1     113.695 125.142 137.508  0.00  0.00    +0.000 C 
ATOM     32  C   UNL     1     114.215 125.710 138.247  0.00  0.00    +0.000 C 
ATOM     33  C   UNL     1     113.541 126.485 138.532  0.00  0.00    +0.000 C 
ATOM     34  O   UNL     1     113.523 125.667 137.849  0.00  0.00    +0.000 OA
ATOM     35  C   UNL     1     112.791 124.498 136.504  0.00  0.00    +0.000 C 
ATOM     36  O   UNL     1     113.224 123.877 136.219  0.00  0.00    +0.000 OA
ATOM     37  O   UNL     1     114.182 124.512 137.244  0.00  0.00    +0.000 OA
ATOM     38  O   UNL     1     114.874 125.373 138.314  0.00  0.00    +0.000 OA
ENDBRANCH  28  33
ENDBRANCH   3  28
TORSDOF 8
ENDMDL
