MODEL 1
REMARK VINA RESULT:      -8.9      0.000      0.000
REMARK  Name = 44259954
REMARK  9 active torsions:
REMARK  status: ('A' for Active; 'I' for Inactive)
REMARK    1  A    between atoms: O_2  and  C_15
REMARK    2  A    between atoms: O_2  and  C_21
REMARK    3  A    between atoms: O_3  and  C_16
REMARK    4  A    between atoms: O_3  and  C_22
REMARK    5  A    between atoms: O_4  and  C_18
REMARK    6  A    between atoms: O_4  and  C_20
REMARK    7  A    between atoms: O_5  and  C_17
REMARK    8  A    between atoms: O_5  and  C_24
REMARK    9  A    between atoms: C_33  and  C_35
REMARK                            x       y       z     vdW  Elec       q    Type
REMARK                         _______ _______ _______ _____ _____    ______ ____
ROOT
ATOM      1  O   UNL     1     112.226 126.658 136.029  0.00  0.00    +0.000 OA
ATOM      2  O   UNL     1     110.715 128.704 134.612  0.00  0.00    +0.000 OA
ATOM      3  O   UNL     1     109.709 125.967 134.791  0.00  0.00    +0.000 OA
ATOM      4  O   UNL     1     111.814 124.543 136.375  0.00  0.00    +0.000 OA
ATOM      5  O   UNL     1     110.485 124.981 135.501  0.00  0.00    +0.000 OA
ATOM      6  C   UNL     1     111.486 127.691 135.327  0.00  0.00    +0.000 A 
ATOM      7  C   UNL     1     111.562 126.876 135.593  0.00  0.00    +0.000 A 
ATOM      8  C   UNL     1     110.796 127.926 134.871  0.00  0.00    +0.000 A 
ATOM      9  C   UNL     1     110.981 126.317 135.416  0.00  0.00    +0.000 A 
ATOM     10  C   UNL     1     110.190 127.343 134.687  0.00  0.00    +0.000 A 
ATOM     11  C   UNL     1     110.284 126.534 134.962  0.00  0.00    +0.000 A 
ATOM     12  C   UNL     1     111.065 125.540 135.677  0.00  0.00    +0.000 A 
ATOM     13  C   UNL     1     112.310 125.880 136.290  0.00  0.00    +0.000 A 
ATOM     14  C   UNL     1     111.729 125.321 136.114  0.00  0.00    +0.000 A 
ENDROOT
BRANCH  13  16
ATOM     15  O   UNL     1     114.969 125.004 138.037  0.00  0.00    +0.000 OA
ATOM     16  C   UNL     1     112.975 125.661 136.727  0.00  0.00    +0.000 A 
ATOM     17  C   UNL     1     113.662 125.420 136.339  0.00  0.00    +0.000 A 
ATOM     18  C   UNL     1     112.953 125.683 137.551  0.00  0.00    +0.000 A 
ATOM     19  C   UNL     1     114.327 125.201 136.776  0.00  0.00    +0.000 A 
ATOM     20  C   UNL     1     113.617 125.464 137.988  0.00  0.00    +0.000 A 
ATOM     21  C   UNL     1     114.305 125.223 137.600  0.00  0.00    +0.000 A 
ENDBRANCH  13  16
BRANCH   6  22
ATOM     22  O   UNL     1     112.071 128.243 135.507  0.00  0.00    +0.000 OA
BRANCH  22  27
ATOM     23  O   UNL     1     111.204 128.913 136.425  0.00  0.00    +0.000 OA
ATOM     24  C   UNL     1     112.505 129.674 137.098  0.00  0.00    +0.000 C 
ATOM     25  C   UNL     1     112.612 129.149 136.471  0.00  0.00    +0.000 C 
ATOM     26  C   UNL     1     111.746 129.819 137.389  0.00  0.00    +0.000 C 
ATOM     27  C   UNL     1     111.963 128.768 136.135  0.00  0.00    +0.000 C 
ATOM     28  C   UNL     1     111.096 129.439 137.052  0.00  0.00    +0.000 C 
BRANCH  24  29
ATOM     29  O   UNL     1     113.154 130.055 137.434  0.00  0.00    +0.000 OA
BRANCH  29  31
ATOM     30  O   UNL     1     113.368 128.980 138.351  0.00  0.00    +0.000 OA
ATOM     31  C   UNL     1     113.486 129.768 138.133  0.00  0.00    +0.000 C 
ATOM     32  C   UNL     1     113.933 130.267 138.614  0.00  0.00    +0.000 C 
ENDBRANCH  29  31
ENDBRANCH  24  29
BRANCH  25  33
ATOM     33  O   UNL     1     113.371 129.004 136.181  0.00  0.00    +0.000 OA
BRANCH  33  35
ATOM     34  O   UNL     1     113.318 130.166 135.350  0.00  0.00    +0.000 OA
ATOM     35  C   UNL     1     113.657 129.437 135.539  0.00  0.00    +0.000 C 
ATOM     36  C   UNL     1     114.281 129.143 135.087  0.00  0.00    +0.000 C 
ENDBRANCH  33  35
ENDBRANCH  25  33
BRANCH  26  37
ATOM     37  O   UNL     1     111.637 130.344 138.015  0.00  0.00    +0.000 OA
BRANCH  37  39
ATOM     38  O   UNL     1     110.757 131.400 137.623  0.00  0.00    +0.000 OA
ATOM     39  C   UNL     1     110.921 130.745 138.098  0.00  0.00    +0.000 C 
ATOM     40  C   UNL     1     110.369 130.492 138.656  0.00  0.00    +0.000 C 
ENDBRANCH  37  39
ENDBRANCH  26  37
ENDBRANCH  22  27
ENDBRANCH   6  22
TORSDOF 9
ENDMDL
MODEL 2
REMARK VINA RESULT:      -8.8      2.021      3.756
REMARK  Name = 44259954
REMARK  9 active torsions:
REMARK  status: ('A' for Active; 'I' for Inactive)
REMARK    1  A    between atoms: O_2  and  C_15
REMARK    2  A    between atoms: O_2  and  C_21
REMARK    3  A    between atoms: O_3  and  C_16
REMARK    4  A    between atoms: O_3  and  C_22
REMARK    5  A    between atoms: O_4  and  C_18
REMARK    6  A    between atoms: O_4  and  C_20
REMARK    7  A    between atoms: O_5  and  C_17
REMARK    8  A    between atoms: O_5  and  C_24
REMARK    9  A    between atoms: C_33  and  C_35
REMARK                            x       y       z     vdW  Elec       q    Type
REMARK                         _______ _______ _______ _____ _____    ______ ____
ROOT
ATOM      1  O   UNL     1     111.681 126.255 136.760  0.00  0.00    +0.000 OA
ATOM      2  O   UNL     1     114.218 125.752 138.100  0.00  0.00    +0.000 OA
ATOM      3  O   UNL     1     112.944 123.669 136.497  0.00  0.00    +0.000 OA
ATOM      4  O   UNL     1     110.441 124.977 135.498  0.00  0.00    +0.000 OA
ATOM      5  O   UNL     1     111.688 123.954 135.848  0.00  0.00    +0.000 OA
ATOM      6  C   UNL     1     112.946 126.021 137.435  0.00  0.00    +0.000 A 
ATOM      7  C   UNL     1     112.304 125.743 136.935  0.00  0.00    +0.000 A 
ATOM      8  C   UNL     1     113.598 125.493 137.621  0.00  0.00    +0.000 A 
ATOM      9  C   UNL     1     112.306 124.976 136.630  0.00  0.00    +0.000 A 
ATOM     10  C   UNL     1     113.601 124.694 137.304  0.00  0.00    +0.000 A 
ATOM     11  C   UNL     1     112.950 124.434 136.805  0.00  0.00    +0.000 A 
ATOM     12  C   UNL     1     111.686 124.721 136.152  0.00  0.00    +0.000 A 
ATOM     13  C   UNL     1     111.060 125.999 136.281  0.00  0.00    +0.000 A 
ATOM     14  C   UNL     1     111.063 125.232 135.977  0.00  0.00    +0.000 A 
ENDROOT
BRANCH  13  16
ATOM     15  O   UNL     1     108.568 128.045 135.582  0.00  0.00    +0.000 OA
ATOM     16  C   UNL     1     110.437 126.511 136.106  0.00  0.00    +0.000 A 
ATOM     17  C   UNL     1     110.490 127.018 135.459  0.00  0.00    +0.000 A 
ATOM     18  C   UNL     1     109.761 126.514 136.579  0.00  0.00    +0.000 A 
ATOM     19  C   UNL     1     109.866 127.530 135.284  0.00  0.00    +0.000 A 
ATOM     20  C   UNL     1     109.138 127.025 136.405  0.00  0.00    +0.000 A 
ATOM     21  C   UNL     1     109.190 127.534 135.757  0.00  0.00    +0.000 A 
ENDBRANCH  13  16
BRANCH   6  22
ATOM     22  O   UNL     1     112.935 126.789 137.735  0.00  0.00    +0.000 OA
BRANCH  22  27
ATOM     23  O   UNL     1     112.315 126.339 138.941  0.00  0.00    +0.000 OA
ATOM     24  C   UNL     1     112.683 127.774 139.667  0.00  0.00    +0.000 C 
ATOM     25  C   UNL     1     112.901 127.640 138.883  0.00  0.00    +0.000 C 
ATOM     26  C   UNL     1     112.281 127.190 140.089  0.00  0.00    +0.000 C 
ATOM     27  C   UNL     1     112.717 126.923 138.519  0.00  0.00    +0.000 C 
ATOM     28  C   UNL     1     112.097 126.472 139.726  0.00  0.00    +0.000 C 
BRANCH  24  29
ATOM     29  O   UNL     1     112.867 128.492 140.030  0.00  0.00    +0.000 OA
BRANCH  29  31
ATOM     30  O   UNL     1     114.127 127.979 140.469  0.00  0.00    +0.000 OA
ATOM     31  C   UNL     1     113.533 128.552 140.513  0.00  0.00    +0.000 C 
ATOM     32  C   UNL     1     113.606 129.182 141.040  0.00  0.00    +0.000 C 
ENDBRANCH  29  31
ENDBRANCH  24  29
BRANCH  25  33
ATOM     33  O   UNL     1     113.303 128.224 138.461  0.00  0.00    +0.000 OA
BRANCH  33  35
ATOM     34  O   UNL     1     112.083 128.896 138.140  0.00  0.00    +0.000 OA
ATOM     35  C   UNL     1     112.883 128.758 137.993  0.00  0.00    +0.000 C 
ATOM     36  C   UNL     1     113.263 129.154 137.376  0.00  0.00    +0.000 C 
ENDBRANCH  33  35
ENDBRANCH  25  33
BRANCH  26  37
ATOM     37  O   UNL     1     112.063 127.323 140.873  0.00  0.00    +0.000 OA
BRANCH  37  39
ATOM     38  O   UNL     1     111.684 126.091 141.490  0.00  0.00    +0.000 OA
ATOM     39  C   UNL     1     111.489 126.849 141.227  0.00  0.00    +0.000 C 
ATOM     40  C   UNL     1     110.719 127.132 141.320  0.00  0.00    +0.000 C 
ENDBRANCH  37  39
ENDBRANCH  26  37
ENDBRANCH  22  27
ENDBRANCH   6  22
TORSDOF 9
ENDMDL
MODEL 3
REMARK VINA RESULT:      -8.6      1.691      2.787
REMARK  Name = 44259954
REMARK  9 active torsions:
REMARK  status: ('A' for Active; 'I' for Inactive)
REMARK    1  A    between atoms: O_2  and  C_15
REMARK    2  A    between atoms: O_2  and  C_21
REMARK    3  A    between atoms: O_3  and  C_16
REMARK    4  A    between atoms: O_3  and  C_22
REMARK    5  A    between atoms: O_4  and  C_18
REMARK    6  A    between atoms: O_4  and  C_20
REMARK    7  A    between atoms: O_5  and  C_17
REMARK    8  A    between atoms: O_5  and  C_24
REMARK    9  A    between atoms: C_33  and  C_35
REMARK                            x       y       z     vdW  Elec       q    Type
REMARK                         _______ _______ _______ _____ _____    ______ ____
ROOT
ATOM      1  O   UNL     1     110.326 128.091 136.152  0.00  0.00    +0.000 OA
ATOM      2  O   UNL     1     110.561 130.969 136.530  0.00  0.00    +0.000 OA
ATOM      3  O   UNL     1     107.988 129.763 135.852  0.00  0.00    +0.000 OA
ATOM      4  O   UNL     1     108.609 126.840 135.648  0.00  0.00    +0.000 OA
ATOM      5  O   UNL     1     107.910 128.334 135.672  0.00  0.00    +0.000 OA
ATOM      6  C   UNL     1     110.461 129.524 136.344  0.00  0.00    +0.000 A 
ATOM      7  C   UNL     1     109.975 128.838 136.163  0.00  0.00    +0.000 A 
ATOM      8  C   UNL     1     110.103 130.306 136.358  0.00  0.00    +0.000 A 
ATOM      9  C   UNL     1     109.170 128.919 136.004  0.00  0.00    +0.000 A 
ATOM     10  C   UNL     1     109.263 130.390 136.191  0.00  0.00    +0.000 A 
ATOM     11  C   UNL     1     108.794 129.692 136.013  0.00  0.00    +0.000 A 
ATOM     12  C   UNL     1     108.715 128.253 135.832  0.00  0.00    +0.000 A 
ATOM     13  C   UNL     1     109.870 127.426 135.980  0.00  0.00    +0.000 A 
ATOM     14  C   UNL     1     109.064 127.507 135.820  0.00  0.00    +0.000 A 
ENDROOT
BRANCH  13  16
ATOM     15  O   UNL     1     111.270 124.438 135.932  0.00  0.00    +0.000 OA
ATOM     16  C   UNL     1     110.220 126.678 135.968  0.00  0.00    +0.000 A 
ATOM     17  C   UNL     1     110.507 126.369 135.259  0.00  0.00    +0.000 A 
ATOM     18  C   UNL     1     110.282 126.241 136.665  0.00  0.00    +0.000 A 
ATOM     19  C   UNL     1     110.857 125.622 135.247  0.00  0.00    +0.000 A 
ATOM     20  C   UNL     1     110.632 125.494 136.652  0.00  0.00    +0.000 A 
ATOM     21  C   UNL     1     110.920 125.184 135.944  0.00  0.00    +0.000 A 
ENDBRANCH  13  16
BRANCH   6  22
ATOM     22  O   UNL     1     111.265 129.434 136.502  0.00  0.00    +0.000 OA
BRANCH  22  27
ATOM     23  O   UNL     1     111.010 129.397 137.908  0.00  0.00    +0.000 OA
ATOM     24  C   UNL     1     112.616 129.624 138.207  0.00  0.00    +0.000 C 
ATOM     25  C   UNL     1     112.342 129.586 137.430  0.00  0.00    +0.000 C 
ATOM     26  C   UNL     1     112.087 129.548 138.835  0.00  0.00    +0.000 C 
ATOM     27  C   UNL     1     111.539 129.472 137.280  0.00  0.00    +0.000 C 
ATOM     28  C   UNL     1     111.283 129.435 138.686  0.00  0.00    +0.000 C 
BRANCH  24  29
ATOM     29  O   UNL     1     113.420 129.737 138.356  0.00  0.00    +0.000 OA
BRANCH  29  31
ATOM     30  O   UNL     1     113.294 131.159 138.283  0.00  0.00    +0.000 OA
ATOM     31  C   UNL     1     113.703 130.489 138.541  0.00  0.00    +0.000 C 
ATOM     32  C   UNL     1     114.394 130.573 138.984  0.00  0.00    +0.000 C 
ENDBRANCH  29  31
ENDBRANCH  24  29
BRANCH  25  33
ATOM     33  O   UNL     1     112.872 129.661 136.802  0.00  0.00    +0.000 OA
BRANCH  33  35
ATOM     34  O   UNL     1     113.233 128.281 136.887  0.00  0.00    +0.000 OA
ATOM     35  C   UNL     1     113.208 128.988 136.463  0.00  0.00    +0.000 C 
ATOM     36  C   UNL     1     113.521 129.022 135.700  0.00  0.00    +0.000 C 
ENDBRANCH  33  35
ENDBRANCH  25  33
BRANCH  26  37
ATOM     37  O   UNL     1     112.360 129.587 139.612  0.00  0.00    +0.000 OA
BRANCH  37  39
ATOM     38  O   UNL     1     111.977 128.409 140.326  0.00  0.00    +0.000 OA
ATOM     39  C   UNL     1     111.932 129.226 140.218  0.00  0.00    +0.000 C 
ATOM     40  C   UNL     1     111.459 129.682 140.717  0.00  0.00    +0.000 C 
ENDBRANCH  37  39
ENDBRANCH  26  37
ENDBRANCH  22  27
ENDBRANCH   6  22
TORSDOF 9
ENDMDL
MODEL 4
REMARK VINA RESULT:      -8.5      1.737      4.526
REMARK  Name = 44259954
REMARK  9 active torsions:
REMARK  status: ('A' for Active; 'I' for Inactive)
REMARK    1  A    between atoms: O_2  and  C_15
REMARK    2  A    between atoms: O_2  and  C_21
REMARK    3  A    between atoms: O_3  and  C_16
REMARK    4  A    between atoms: O_3  and  C_22
REMARK    5  A    between atoms: O_4  and  C_18
REMARK    6  A    between atoms: O_4  and  C_20
REMARK    7  A    between atoms: O_5  and  C_17
REMARK    8  A    between atoms: O_5  and  C_24
REMARK    9  A    between atoms: C_33  and  C_35
REMARK                            x       y       z     vdW  Elec       q    Type
REMARK                         _______ _______ _______ _____ _____    ______ ____
ROOT
ATOM      1  O   UNL     1     111.957 128.640 137.211  0.00  0.00    +0.000 OA
ATOM      2  O   UNL     1     110.245 127.174 139.055  0.00  0.00    +0.000 OA
ATOM      3  O   UNL     1     109.115 129.157 137.233  0.00  0.00    +0.000 OA
ATOM      4  O   UNL     1     111.496 130.170 135.725  0.00  0.00    +0.000 OA
ATOM      5  O   UNL     1     109.993 129.864 136.334  0.00  0.00    +0.000 OA
ATOM      6  C   UNL     1     111.119 127.899 138.137  0.00  0.00    +0.000 A 
ATOM      7  C   UNL     1     111.206 128.487 137.515  0.00  0.00    +0.000 A 
ATOM      8  C   UNL     1     110.338 127.735 138.459  0.00  0.00    +0.000 A 
ATOM      9  C   UNL     1     110.551 128.895 137.223  0.00  0.00    +0.000 A 
ATOM     10  C   UNL     1     109.656 128.160 138.154  0.00  0.00    +0.000 A 
ATOM     11  C   UNL     1     109.763 128.744 137.532  0.00  0.00    +0.000 A 
ATOM     12  C   UNL     1     110.648 129.456 136.626  0.00  0.00    +0.000 A 
ATOM     13  C   UNL     1     112.053 129.201 136.615  0.00  0.00    +0.000 A 
ATOM     14  C   UNL     1     111.399 129.609 136.322  0.00  0.00    +0.000 A 
ENDROOT
BRANCH  13  16
ATOM     15  O   UNL     1     115.059 129.813 135.397  0.00  0.00    +0.000 OA
ATOM     16  C   UNL     1     112.805 129.354 136.310  0.00  0.00    +0.000 A 
ATOM     17  C   UNL     1     113.056 128.975 135.622  0.00  0.00    +0.000 A 
ATOM     18  C   UNL     1     113.305 129.887 136.694  0.00  0.00    +0.000 A 
ATOM     19  C   UNL     1     113.808 129.128 135.318  0.00  0.00    +0.000 A 
ATOM     20  C   UNL     1     114.056 130.039 136.390  0.00  0.00    +0.000 A 
ATOM     21  C   UNL     1     114.308 129.660 135.701  0.00  0.00    +0.000 A 
ENDBRANCH  13  16
BRANCH   6  22
ATOM     22  O   UNL     1     111.778 127.497 138.423  0.00  0.00    +0.000 OA
BRANCH  22  27
ATOM     23  O   UNL     1     111.406 126.322 137.700  0.00  0.00    +0.000 OA
ATOM     24  C   UNL     1     112.910 125.691 137.950  0.00  0.00    +0.000 C 
ATOM     25  C   UNL     1     112.720 126.435 138.249  0.00  0.00    +0.000 C 
ATOM     26  C   UNL     1     112.348 125.260 137.526  0.00  0.00    +0.000 C 
ATOM     27  C   UNL     1     111.968 126.751 138.124  0.00  0.00    +0.000 C 
ATOM     28  C   UNL     1     111.596 125.576 137.401  0.00  0.00    +0.000 C 
BRANCH  24  29
ATOM     29  O   UNL     1     113.662 125.375 138.075  0.00  0.00    +0.000 OA
BRANCH  29  31
ATOM     30  O   UNL     1     114.195 126.020 136.917  0.00  0.00    +0.000 OA
ATOM     31  C   UNL     1     114.233 125.418 137.482  0.00  0.00    +0.000 C 
ATOM     32  C   UNL     1     114.841 124.862 137.451  0.00  0.00    +0.000 C 
ENDBRANCH  29  31
ENDBRANCH  24  29
BRANCH  25  33
ATOM     33  O   UNL     1     113.282 126.865 138.673  0.00  0.00    +0.000 OA
BRANCH  33  35
ATOM     34  O   UNL     1     112.930 126.192 139.884  0.00  0.00    +0.000 OA
ATOM     35  C   UNL     1     113.300 126.820 139.497  0.00  0.00    +0.000 C 
ATOM     36  C   UNL     1     113.688 127.402 139.934  0.00  0.00    +0.000 C 
ENDBRANCH  33  35
ENDBRANCH  25  33
BRANCH  26  37
ATOM     37  O   UNL     1     112.537 124.516 137.227  0.00  0.00    +0.000 OA
BRANCH  37  39
ATOM     38  O   UNL     1     111.603 123.535 137.682  0.00  0.00    +0.000 OA
ATOM     39  C   UNL     1     111.939 123.971 137.067  0.00  0.00    +0.000 C 
ATOM     40  C   UNL     1     111.677 123.861 136.292  0.00  0.00    +0.000 C 
ENDBRANCH  37  39
ENDBRANCH  26  37
ENDBRANCH  22  27
ENDBRANCH   6  22
TORSDOF 9
ENDMDL
MODEL 5
REMARK VINA RESULT:      -8.4      1.225      3.603
REMARK  Name = 44259954
REMARK  9 active torsions:
REMARK  status: ('A' for Active; 'I' for Inactive)
REMARK    1  A    between atoms: O_2  and  C_15
REMARK    2  A    between atoms: O_2  and  C_21
REMARK    3  A    between atoms: O_3  and  C_16
REMARK    4  A    between atoms: O_3  and  C_22
REMARK    5  A    between atoms: O_4  and  C_18
REMARK    6  A    between atoms: O_4  and  C_20
REMARK    7  A    between atoms: O_5  and  C_17
REMARK    8  A    between atoms: O_5  and  C_24
REMARK    9  A    between atoms: C_33  and  C_35
REMARK                            x       y       z     vdW  Elec       q    Type
REMARK                         _______ _______ _______ _____ _____    ______ ____
ROOT
ATOM      1  O   UNL     1     111.599 126.417 136.728  0.00  0.00    +0.000 OA
ATOM      2  O   UNL     1     114.287 126.264 137.837  0.00  0.00    +0.000 OA
ATOM      3  O   UNL     1     113.172 124.027 136.327  0.00  0.00    +0.000 OA
ATOM      4  O   UNL     1     110.437 124.982 135.564  0.00  0.00    +0.000 OA
ATOM      5  O   UNL     1     111.837 124.139 135.792  0.00  0.00    +0.000 OA
ATOM      6  C   UNL     1     112.938 126.359 137.288  0.00  0.00    +0.000 A 
ATOM      7  C   UNL     1     112.298 125.995 136.842  0.00  0.00    +0.000 A 
ATOM      8  C   UNL     1     113.669 125.924 137.411  0.00  0.00    +0.000 A 
ATOM      9  C   UNL     1     112.377 125.235 136.530  0.00  0.00    +0.000 A 
ATOM     10  C   UNL     1     113.752 125.132 137.085  0.00  0.00    +0.000 A 
ATOM     11  C   UNL     1     113.102 124.786 136.642  0.00  0.00    +0.000 A 
ATOM     12  C   UNL     1     111.757 124.898 136.104  0.00  0.00    +0.000 A 
ATOM     13  C   UNL     1     110.979 126.079 136.302  0.00  0.00    +0.000 A 
ATOM     14  C   UNL     1     111.058 125.320 135.990  0.00  0.00    +0.000 A 
ENDROOT
BRANCH  13  16
ATOM     15  O   UNL     1     108.180 127.767 135.846  0.00  0.00    +0.000 OA
ATOM     16  C   UNL     1     110.279 126.502 136.188  0.00  0.00    +0.000 A 
ATOM     17  C   UNL     1     109.706 126.517 136.781  0.00  0.00    +0.000 A 
ATOM     18  C   UNL     1     110.152 126.908 135.481  0.00  0.00    +0.000 A 
ATOM     19  C   UNL     1     109.005 126.939 136.667  0.00  0.00    +0.000 A 
ATOM     20  C   UNL     1     109.453 127.330 135.367  0.00  0.00    +0.000 A 
ATOM     21  C   UNL     1     108.879 127.346 135.960  0.00  0.00    +0.000 A 
ENDBRANCH  13  16
BRANCH   6  22
ATOM     22  O   UNL     1     112.849 127.118 137.596  0.00  0.00    +0.000 OA
BRANCH  22  27
ATOM     23  O   UNL     1     113.589 127.670 136.505  0.00  0.00    +0.000 OA
ATOM     24  C   UNL     1     113.079 129.183 136.924  0.00  0.00    +0.000 C 
ATOM     25  C   UNL     1     112.837 128.529 137.364  0.00  0.00    +0.000 C 
ATOM     26  C   UNL     1     113.577 129.081 136.274  0.00  0.00    +0.000 C 
ATOM     27  C   UNL     1     113.092 127.772 137.155  0.00  0.00    +0.000 C 
ATOM     28  C   UNL     1     113.832 128.325 136.065  0.00  0.00    +0.000 C 
BRANCH  24  29
ATOM     29  O   UNL     1     112.824 129.939 137.133  0.00  0.00    +0.000 OA
BRANCH  29  31
ATOM     30  O   UNL     1     111.670 129.803 136.301  0.00  0.00    +0.000 OA
ATOM     31  C   UNL     1     112.175 130.276 136.753  0.00  0.00    +0.000 C 
ATOM     32  C   UNL     1     112.029 131.085 136.822  0.00  0.00    +0.000 C 
ENDBRANCH  29  31
ENDBRANCH  24  29
BRANCH  25  33
ATOM     33  O   UNL     1     112.339 128.630 138.014  0.00  0.00    +0.000 OA
BRANCH  33  35
ATOM     34  O   UNL     1     113.441 128.950 138.866  0.00  0.00    +0.000 OA
ATOM     35  C   UNL     1     112.659 128.705 138.771  0.00  0.00    +0.000 C 
ATOM     36  C   UNL     1     112.197 128.534 139.433  0.00  0.00    +0.000 C 
ENDBRANCH  33  35
ENDBRANCH  25  33
BRANCH  26  37
ATOM     37  O   UNL     1     113.820 129.734 135.834  0.00  0.00    +0.000 OA
BRANCH  37  39
ATOM     38  O   UNL     1     115.240 129.884 135.791  0.00  0.00    +0.000 OA
ATOM     39  C   UNL     1     114.528 129.708 135.412  0.00  0.00    +0.000 C 
ATOM     40  C   UNL     1     114.525 129.506 134.612  0.00  0.00    +0.000 C 
ENDBRANCH  37  39
ENDBRANCH  26  37
ENDBRANCH  22  27
ENDBRANCH   6  22
TORSDOF 9
ENDMDL
MODEL 6
REMARK VINA RESULT:      -8.4      1.694      3.159
REMARK  Name = 44259954
REMARK  9 active torsions:
REMARK  status: ('A' for Active; 'I' for Inactive)
REMARK    1  A    between atoms: O_2  and  C_15
REMARK    2  A    between atoms: O_2  and  C_21
REMARK    3  A    between atoms: O_3  and  C_16
REMARK    4  A    between atoms: O_3  and  C_22
REMARK    5  A    between atoms: O_4  and  C_18
REMARK    6  A    between atoms: O_4  and  C_20
REMARK    7  A    between atoms: O_5  and  C_17
REMARK    8  A    between atoms: O_5  and  C_24
REMARK    9  A    between atoms: C_33  and  C_35
REMARK                            x       y       z     vdW  Elec       q    Type
REMARK                         _______ _______ _______ _____ _____    ______ ____
ROOT
ATOM      1  O   UNL     1     111.707 126.808 137.658  0.00  0.00    +0.000 OA
ATOM      2  O   UNL     1     113.608 128.254 139.323  0.00  0.00    +0.000 OA
ATOM      3  O   UNL     1     111.871 126.211 140.480  0.00  0.00    +0.000 OA
ATOM      4  O   UNL     1     110.267 125.241 138.144  0.00  0.00    +0.000 OA
ATOM      5  O   UNL     1     110.942 125.515 139.625  0.00  0.00    +0.000 OA
ATOM      6  C   UNL     1     112.661 127.539 138.473  0.00  0.00    +0.000 A 
ATOM      7  C   UNL     1     112.044 126.944 138.398  0.00  0.00    +0.000 A 
ATOM      8  C   UNL     1     113.017 127.687 139.242  0.00  0.00    +0.000 A 
ATOM      9  C   UNL     1     111.789 126.513 139.054  0.00  0.00    +0.000 A 
ATOM     10  C   UNL     1     112.751 127.237 139.925  0.00  0.00    +0.000 A 
ATOM     11  C   UNL     1     112.133 126.647 139.830  0.00  0.00    +0.000 A 
ATOM     12  C   UNL     1     111.197 125.946 138.969  0.00  0.00    +0.000 A 
ATOM     13  C   UNL     1     111.115 126.240 137.574  0.00  0.00    +0.000 A 
ATOM     14  C   UNL     1     110.860 125.809 138.229  0.00  0.00    +0.000 A 
ENDROOT
BRANCH  13  16
ATOM     15  O   UNL     1     109.766 125.693 134.612  0.00  0.00    +0.000 OA
ATOM     16  C   UNL     1     110.777 126.103 136.833  0.00  0.00    +0.000 A 
ATOM     17  C   UNL     1     110.106 126.523 136.602  0.00  0.00    +0.000 A 
ATOM     18  C   UNL     1     111.112 125.547 136.323  0.00  0.00    +0.000 A 
ATOM     19  C   UNL     1     109.768 126.386 135.861  0.00  0.00    +0.000 A 
ATOM     20  C   UNL     1     110.775 125.410 135.584  0.00  0.00    +0.000 A 
ATOM     21  C   UNL     1     110.103 125.830 135.352  0.00  0.00    +0.000 A 
ENDBRANCH  13  16
BRANCH   6  22
ATOM     22  O   UNL     1     112.909 127.964 137.812  0.00  0.00    +0.000 OA
BRANCH  22  27
ATOM     23  O   UNL     1     112.040 129.048 138.150  0.00  0.00    +0.000 OA
ATOM     24  C   UNL     1     112.843 130.023 137.089  0.00  0.00    +0.000 C 
ATOM     25  C   UNL     1     113.077 129.239 137.186  0.00  0.00    +0.000 C 
ATOM     26  C   UNL     1     112.208 130.322 137.523  0.00  0.00    +0.000 C 
ATOM     27  C   UNL     1     112.676 128.750 137.716  0.00  0.00    +0.000 C 
ATOM     28  C   UNL     1     111.806 129.833 138.054  0.00  0.00    +0.000 C 
BRANCH  24  29
ATOM     29  O   UNL     1     113.245 130.512 136.559  0.00  0.00    +0.000 OA
BRANCH  29  31
ATOM     30  O   UNL     1     114.182 130.894 137.567  0.00  0.00    +0.000 OA
ATOM     31  C   UNL     1     113.832 131.023 136.831  0.00  0.00    +0.000 C 
ATOM     32  C   UNL     1     114.069 131.663 136.368  0.00  0.00    +0.000 C 
ENDBRANCH  29  31
ENDBRANCH  24  29
BRANCH  25  33
ATOM     33  O   UNL     1     113.712 128.941 136.752  0.00  0.00    +0.000 OA
BRANCH  33  35
ATOM     34  O   UNL     1     112.873 128.682 135.624  0.00  0.00    +0.000 OA
ATOM     35  C   UNL     1     113.578 128.556 136.035  0.00  0.00    +0.000 C 
ATOM     36  C   UNL     1     114.147 128.043 135.728  0.00  0.00    +0.000 C 
ENDBRANCH  33  35
ENDBRANCH  25  33
BRANCH  26  37
ATOM     37  O   UNL     1     111.974 131.106 137.427  0.00  0.00    +0.000 OA
BRANCH  37  39
ATOM     38  O   UNL     1     111.174 131.611 138.499  0.00  0.00    +0.000 OA
ATOM     39  C   UNL     1     111.244 131.357 137.717  0.00  0.00    +0.000 C 
ATOM     40  C   UNL     1     110.581 131.355 137.224  0.00  0.00    +0.000 C 
ENDBRANCH  37  39
ENDBRANCH  26  37
ENDBRANCH  22  27
ENDBRANCH   6  22
TORSDOF 9
ENDMDL
MODEL 7
REMARK VINA RESULT:      -8.4      2.522      3.105
REMARK  Name = 44259954
REMARK  9 active torsions:
REMARK  status: ('A' for Active; 'I' for Inactive)
REMARK    1  A    between atoms: O_2  and  C_15
REMARK    2  A    between atoms: O_2  and  C_21
REMARK    3  A    between atoms: O_3  and  C_16
REMARK    4  A    between atoms: O_3  and  C_22
REMARK    5  A    between atoms: O_4  and  C_18
REMARK    6  A    between atoms: O_4  and  C_20
REMARK    7  A    between atoms: O_5  and  C_17
REMARK    8  A    between atoms: O_5  and  C_24
REMARK    9  A    between atoms: C_33  and  C_35
REMARK                            x       y       z     vdW  Elec       q    Type
REMARK                         _______ _______ _______ _____ _____    ______ ____
ROOT
ATOM      1  O   UNL     1     111.558 126.193 136.911  0.00  0.00    +0.000 OA
ATOM      2  O   UNL     1     109.293 127.973 137.335  0.00  0.00    +0.000 OA
ATOM      3  O   UNL     1     109.216 125.942 135.238  0.00  0.00    +0.000 OA
ATOM      4  O   UNL     1     111.873 124.580 135.474  0.00  0.00    +0.000 OA
ATOM      5  O   UNL     1     110.356 125.078 135.057  0.00  0.00    +0.000 OA
ATOM      6  C   UNL     1     110.438 127.089 137.137  0.00  0.00    +0.000 A 
ATOM      7  C   UNL     1     110.800 126.441 136.702  0.00  0.00    +0.000 A 
ATOM      8  C   UNL     1     109.648 127.353 136.924  0.00  0.00    +0.000 A 
ATOM      9  C   UNL     1     110.399 126.069 136.084  0.00  0.00    +0.000 A 
ATOM     10  C   UNL     1     109.230 126.966 136.280  0.00  0.00    +0.000 A 
ATOM     11  C   UNL     1     109.609 126.320 135.857  0.00  0.00    +0.000 A 
ATOM     12  C   UNL     1     110.757 125.449 135.675  0.00  0.00    +0.000 A 
ATOM     13  C   UNL     1     111.915 125.572 136.501  0.00  0.00    +0.000 A 
ATOM     14  C   UNL     1     111.515 125.201 135.883  0.00  0.00    +0.000 A 
ENDROOT
BRANCH  13  16
ATOM     15  O   UNL     1     114.950 124.578 137.335  0.00  0.00    +0.000 OA
ATOM     16  C   UNL     1     112.675 125.324 136.710  0.00  0.00    +0.000 A 
ATOM     17  C   UNL     1     113.332 125.756 136.462  0.00  0.00    +0.000 A 
ATOM     18  C   UNL     1     112.775 124.643 137.166  0.00  0.00    +0.000 A 
ATOM     19  C   UNL     1     114.091 125.507 136.670  0.00  0.00    +0.000 A 
ATOM     20  C   UNL     1     113.533 124.395 137.374  0.00  0.00    +0.000 A 
ATOM     21  C   UNL     1     114.192 124.827 137.126  0.00  0.00    +0.000 A 
ENDBRANCH  13  16
BRANCH   6  22
ATOM     22  O   UNL     1     110.846 127.454 137.753  0.00  0.00    +0.000 OA
BRANCH  22  27
ATOM     23  O   UNL     1     110.066 126.750 138.721  0.00  0.00    +0.000 OA
ATOM     24  C   UNL     1     111.143 127.172 139.897  0.00  0.00    +0.000 C 
ATOM     25  C   UNL     1     111.264 127.418 139.119  0.00  0.00    +0.000 C 
ATOM     26  C   UNL     1     110.483 126.714 140.088  0.00  0.00    +0.000 C 
ATOM     27  C   UNL     1     110.725 127.207 138.531  0.00  0.00    +0.000 C 
ATOM     28  C   UNL     1     109.944 126.503 139.499  0.00  0.00    +0.000 C 
BRANCH  24  29
ATOM     29  O   UNL     1     111.681 127.383 140.486  0.00  0.00    +0.000 OA
BRANCH  29  31
ATOM     30  O   UNL     1     112.455 126.211 140.219  0.00  0.00    +0.000 OA
ATOM     31  C   UNL     1     112.288 126.865 140.696  0.00  0.00    +0.000 C 
ATOM     32  C   UNL     1     112.727 126.999 141.381  0.00  0.00    +0.000 C 
ENDBRANCH  29  31
ENDBRANCH  24  29
BRANCH  25  33
ATOM     33  O   UNL     1     111.923 127.875 138.930  0.00  0.00    +0.000 OA
BRANCH  33  35
ATOM     34  O   UNL     1     111.259 129.078 139.323  0.00  0.00    +0.000 OA
ATOM     35  C   UNL     1     111.863 128.698 138.907  0.00  0.00    +0.000 C 
ATOM     36  C   UNL     1     112.405 129.141 138.470  0.00  0.00    +0.000 C 
ENDBRANCH  33  35
ENDBRANCH  25  33
BRANCH  26  37
ATOM     37  O   UNL     1     110.362 126.468 140.865  0.00  0.00    +0.000 OA
BRANCH  37  39
ATOM     38  O   UNL     1     109.481 125.356 141.039  0.00  0.00    +0.000 OA
ATOM     39  C   UNL     1     109.629 126.166 141.092  0.00  0.00    +0.000 C 
ATOM     40  C   UNL     1     109.042 126.674 141.374  0.00  0.00    +0.000 C 
ENDBRANCH  37  39
ENDBRANCH  26  37
ENDBRANCH  22  27
ENDBRANCH   6  22
TORSDOF 9
ENDMDL
MODEL 8
REMARK VINA RESULT:      -8.4      1.756      5.031
REMARK  Name = 44259954
REMARK  9 active torsions:
REMARK  status: ('A' for Active; 'I' for Inactive)
REMARK    1  A    between atoms: O_2  and  C_15
REMARK    2  A    between atoms: O_2  and  C_21
REMARK    3  A    between atoms: O_3  and  C_16
REMARK    4  A    between atoms: O_3  and  C_22
REMARK    5  A    between atoms: O_4  and  C_18
REMARK    6  A    between atoms: O_4  and  C_20
REMARK    7  A    between atoms: O_5  and  C_17
REMARK    8  A    between atoms: O_5  and  C_24
REMARK    9  A    between atoms: C_33  and  C_35
REMARK                            x       y       z     vdW  Elec       q    Type
REMARK                         _______ _______ _______ _____ _____    ______ ____
ROOT
ATOM      1  O   UNL     1     112.128 128.742 138.456  0.00  0.00    +0.000 OA
ATOM      2  O   UNL     1     111.509 127.716 135.802  0.00  0.00    +0.000 OA
ATOM      3  O   UNL     1     112.391 130.477 136.161  0.00  0.00    +0.000 OA
ATOM      4  O   UNL     1     112.803 130.709 139.119  0.00  0.00    +0.000 OA
ATOM      5  O   UNL     1     112.688 130.950 137.491  0.00  0.00    +0.000 OA
ATOM      6  C   UNL     1     111.815 128.213 137.140  0.00  0.00    +0.000 A 
ATOM      7  C   UNL     1     112.071 128.863 137.642  0.00  0.00    +0.000 A 
ATOM      8  C   UNL     1     111.753 128.333 136.291  0.00  0.00    +0.000 A 
ATOM      9  C   UNL     1     112.258 129.599 137.321  0.00  0.00    +0.000 A 
ATOM     10  C   UNL     1     111.948 129.100 135.955  0.00  0.00    +0.000 A 
ATOM     11  C   UNL     1     112.202 129.737 136.474  0.00  0.00    +0.000 A 
ATOM     12  C   UNL     1     112.501 130.214 137.812  0.00  0.00    +0.000 A 
ATOM     13  C   UNL     1     112.372 129.357 138.948  0.00  0.00    +0.000 A 
ATOM     14  C   UNL     1     112.559 130.094 138.626  0.00  0.00    +0.000 A 
ENDROOT
BRANCH  13  16
ATOM     15  O   UNL     1     112.600 128.874 142.204  0.00  0.00    +0.000 OA
ATOM     16  C   UNL     1     112.429 129.236 139.763  0.00  0.00    +0.000 A 
ATOM     17  C   UNL     1     111.769 129.354 140.244  0.00  0.00    +0.000 A 
ATOM     18  C   UNL     1     113.145 128.998 140.095  0.00  0.00    +0.000 A 
ATOM     19  C   UNL     1     111.826 129.232 141.058  0.00  0.00    +0.000 A 
ATOM     20  C   UNL     1     113.202 128.878 140.909  0.00  0.00    +0.000 A 
ATOM     21  C   UNL     1     112.543 128.994 141.391  0.00  0.00    +0.000 A 
ENDBRANCH  13  16
BRANCH   6  22
ATOM     22  O   UNL     1     111.630 127.481 137.471  0.00  0.00    +0.000 OA
BRANCH  22  27
ATOM     23  O   UNL     1     112.933 126.983 137.160  0.00  0.00    +0.000 OA
ATOM     24  C   UNL     1     112.413 125.443 137.444  0.00  0.00    +0.000 C 
ATOM     25  C   UNL     1     111.892 126.077 137.528  0.00  0.00    +0.000 C 
ATOM     26  C   UNL     1     113.195 125.579 137.217  0.00  0.00    +0.000 C 
ATOM     27  C   UNL     1     112.152 126.847 137.386  0.00  0.00    +0.000 C 
ATOM     28  C   UNL     1     113.455 126.349 137.075  0.00  0.00    +0.000 C 
BRANCH  24  29
ATOM     29  O   UNL     1     112.154 124.673 137.586  0.00  0.00    +0.000 OA
BRANCH  29  31
ATOM     30  O   UNL     1     111.671 124.525 136.249  0.00  0.00    +0.000 OA
ATOM     31  C   UNL     1     111.934 124.188 136.956  0.00  0.00    +0.000 C 
ATOM     32  C   UNL     1     111.977 123.368 137.031  0.00  0.00    +0.000 C 
ENDBRANCH  29  31
ENDBRANCH  24  29
BRANCH  25  33
ATOM     33  O   UNL     1     111.111 125.941 137.755  0.00  0.00    +0.000 OA
BRANCH  33  35
ATOM     34  O   UNL     1     111.479 125.858 139.133  0.00  0.00    +0.000 OA
ATOM     35  C   UNL     1     110.902 125.966 138.553  0.00  0.00    +0.000 C 
ATOM     36  C   UNL     1     110.118 126.099 138.771  0.00  0.00    +0.000 C 
ENDBRANCH  33  35
ENDBRANCH  25  33
BRANCH  26  37
ATOM     37  O   UNL     1     113.716 124.946 137.132  0.00  0.00    +0.000 OA
BRANCH  37  39
ATOM     38  O   UNL     1     114.906 125.130 137.902  0.00  0.00    +0.000 OA
ATOM     39  C   UNL     1     114.530 125.074 137.170  0.00  0.00    +0.000 C 
ATOM     40  C   UNL     1     114.969 125.145 136.474  0.00  0.00    +0.000 C 
ENDBRANCH  37  39
ENDBRANCH  26  37
ENDBRANCH  22  27
ENDBRANCH   6  22
TORSDOF 9
ENDMDL
MODEL 9
REMARK VINA RESULT:      -8.4      1.755      5.660
REMARK  Name = 44259954
REMARK  9 active torsions:
REMARK  status: ('A' for Active; 'I' for Inactive)
REMARK    1  A    between atoms: O_2  and  C_15
REMARK    2  A    between atoms: O_2  and  C_21
REMARK    3  A    between atoms: O_3  and  C_16
REMARK    4  A    between atoms: O_3  and  C_22
REMARK    5  A    between atoms: O_4  and  C_18
REMARK    6  A    between atoms: O_4  and  C_20
REMARK    7  A    between atoms: O_5  and  C_17
REMARK    8  A    between atoms: O_5  and  C_24
REMARK    9  A    between atoms: C_33  and  C_35
REMARK                            x       y       z     vdW  Elec       q    Type
REMARK                         _______ _______ _______ _____ _____    ______ ____
ROOT
ATOM      1  O   UNL     1     112.417 128.898 138.716  0.00  0.00    +0.000 OA
ATOM      2  O   UNL     1     113.323 126.814 140.537  0.00  0.00    +0.000 OA
ATOM      3  O   UNL     1     114.448 129.505 140.680  0.00  0.00    +0.000 OA
ATOM      4  O   UNL     1     113.006 130.990 138.515  0.00  0.00    +0.000 OA
ATOM      5  O   UNL     1     113.975 130.512 139.761  0.00  0.00    +0.000 OA
ATOM      6  C   UNL     1     112.857 127.846 139.616  0.00  0.00    +0.000 A 
ATOM      7  C   UNL     1     112.903 128.659 139.339  0.00  0.00    +0.000 A 
ATOM      8  C   UNL     1     113.360 127.591 140.265  0.00  0.00    +0.000 A 
ATOM      9  C   UNL     1     113.422 129.197 139.687  0.00  0.00    +0.000 A 
ATOM     10  C   UNL     1     113.901 128.151 140.628  0.00  0.00    +0.000 A 
ATOM     11  C   UNL     1     113.932 128.960 140.337  0.00  0.00    +0.000 A 
ATOM     12  C   UNL     1     113.456 129.974 139.413  0.00  0.00    +0.000 A 
ATOM     13  C   UNL     1     112.452 129.675 138.442  0.00  0.00    +0.000 A 
ATOM     14  C   UNL     1     112.972 130.213 138.790  0.00  0.00    +0.000 A 
ENDROOT
BRANCH  13  16
ATOM     15  O   UNL     1     110.512 130.631 135.949  0.00  0.00    +0.000 OA
ATOM     16  C   UNL     1     111.967 129.914 137.818  0.00  0.00    +0.000 A 
ATOM     17  C   UNL     1     111.187 130.139 137.966  0.00  0.00    +0.000 A 
ATOM     18  C   UNL     1     112.262 129.928 137.047  0.00  0.00    +0.000 A 
ATOM     19  C   UNL     1     110.702 130.378 137.342  0.00  0.00    +0.000 A 
ATOM     20  C   UNL     1     111.777 130.167 136.425  0.00  0.00    +0.000 A 
ATOM     21  C   UNL     1     110.997 130.392 136.572  0.00  0.00    +0.000 A 
ENDBRANCH  13  16
BRANCH   6  22
ATOM     22  O   UNL     1     112.335 127.316 139.261  0.00  0.00    +0.000 OA
BRANCH  22  27
ATOM     23  O   UNL     1     113.412 126.676 138.573  0.00  0.00    +0.000 OA
ATOM     24  C   UNL     1     112.331 125.916 137.586  0.00  0.00    +0.000 C 
ATOM     25  C   UNL     1     112.063 126.426 138.176  0.00  0.00    +0.000 C 
ATOM     26  C   UNL     1     113.140 125.786 137.488  0.00  0.00    +0.000 C 
ATOM     27  C   UNL     1     112.603 126.806 138.670  0.00  0.00    +0.000 C 
ATOM     28  C   UNL     1     113.680 126.167 137.982  0.00  0.00    +0.000 C 
BRANCH  24  29
ATOM     29  O   UNL     1     111.790 125.536 137.092  0.00  0.00    +0.000 OA
BRANCH  29  31
ATOM     30  O   UNL     1     111.808 126.637 136.181  0.00  0.00    +0.000 OA
ATOM     31  C   UNL     1     111.615 125.852 136.350  0.00  0.00    +0.000 C 
ATOM     32  C   UNL     1     111.247 125.385 135.778  0.00  0.00    +0.000 C 
ENDBRANCH  29  31
ENDBRANCH  24  29
BRANCH  25  33
ATOM     33  O   UNL     1     111.254 126.555 138.273  0.00  0.00    +0.000 OA
BRANCH  33  35
ATOM     34  O   UNL     1     111.114 125.371 139.062  0.00  0.00    +0.000 OA
ATOM     35  C   UNL     1     110.827 126.105 138.817  0.00  0.00    +0.000 C 
ATOM     36  C   UNL     1     110.112 126.389 139.117  0.00  0.00    +0.000 C 
ENDBRANCH  33  35
ENDBRANCH  25  33
BRANCH  26  37
ATOM     37  O   UNL     1     113.408 125.278 136.898  0.00  0.00    +0.000 OA
BRANCH  37  39
ATOM     38  O   UNL     1     114.248 124.268 137.462  0.00  0.00    +0.000 OA
ATOM     39  C   UNL     1     114.148 124.920 136.966  0.00  0.00    +0.000 C 
ATOM     40  C   UNL     1     114.790 125.214 136.538  0.00  0.00    +0.000 C 
ENDBRANCH  37  39
ENDBRANCH  26  37
ENDBRANCH  22  27
ENDBRANCH   6  22
TORSDOF 9
ENDMDL
MODEL 10
REMARK VINA RESULT:      -8.4      1.935      5.541
REMARK  Name = 44259954
REMARK  9 active torsions:
REMARK  status: ('A' for Active; 'I' for Inactive)
REMARK    1  A    between atoms: O_2  and  C_15
REMARK    2  A    between atoms: O_2  and  C_21
REMARK    3  A    between atoms: O_3  and  C_16
REMARK    4  A    between atoms: O_3  and  C_22
REMARK    5  A    between atoms: O_4  and  C_18
REMARK    6  A    between atoms: O_4  and  C_20
REMARK    7  A    between atoms: O_5  and  C_17
REMARK    8  A    between atoms: O_5  and  C_24
REMARK    9  A    between atoms: C_33  and  C_35
REMARK                            x       y       z     vdW  Elec       q    Type
REMARK                         _______ _______ _______ _____ _____    ______ ____
ROOT
ATOM      1  O   UNL     1     112.682 128.725 139.016  0.00  0.00    +0.000 OA
ATOM      2  O   UNL     1     111.803 126.172 140.107  0.00  0.00    +0.000 OA
ATOM      3  O   UNL     1     113.083 128.160 141.821  0.00  0.00    +0.000 OA
ATOM      4  O   UNL     1     113.659 130.434 139.958  0.00  0.00    +0.000 OA
ATOM      5  O   UNL     1     113.506 129.414 141.246  0.00  0.00    +0.000 OA
ATOM      6  C   UNL     1     112.238 127.447 139.542  0.00  0.00    +0.000 A 
ATOM      7  C   UNL     1     112.606 128.215 139.660  0.00  0.00    +0.000 A 
ATOM      8  C   UNL     1     112.155 126.910 140.209  0.00  0.00    +0.000 A 
ATOM      9  C   UNL     1     112.880 128.445 140.403  0.00  0.00    +0.000 A 
ATOM     10  C   UNL     1     112.441 127.150 140.984  0.00  0.00    +0.000 A 
ATOM     11  C   UNL     1     112.806 127.922 141.081  0.00  0.00    +0.000 A 
ATOM     12  C   UNL     1     113.231 129.184 140.502  0.00  0.00    +0.000 A 
ATOM     13  C   UNL     1     113.033 129.464 139.116  0.00  0.00    +0.000 A 
ATOM     14  C   UNL     1     113.308 129.694 139.859  0.00  0.00    +0.000 A 
ENDROOT
BRANCH  13  16
ATOM     15  O   UNL     1     113.339 131.505 136.540  0.00  0.00    +0.000 OA
ATOM     16  C   UNL     1     113.110 129.975 138.471  0.00  0.00    +0.000 A 
ATOM     17  C   UNL     1     112.491 130.482 138.272  0.00  0.00    +0.000 A 
ATOM     18  C   UNL     1     113.805 129.978 138.028  0.00  0.00    +0.000 A 
ATOM     19  C   UNL     1     112.567 130.993 137.627  0.00  0.00    +0.000 A 
ATOM     20  C   UNL     1     113.882 130.488 137.384  0.00  0.00    +0.000 A 
ATOM     21  C   UNL     1     113.263 130.995 137.184  0.00  0.00    +0.000 A 
ENDBRANCH  13  16
BRANCH   6  22
ATOM     22  O   UNL     1     111.966 127.226 138.796  0.00  0.00    +0.000 OA
BRANCH  22  27
ATOM     23  O   UNL     1     113.178 126.519 138.525  0.00  0.00    +0.000 OA
ATOM     24  C   UNL     1     112.434 125.716 137.291  0.00  0.00    +0.000 C 
ATOM     25  C   UNL     1     112.015 126.270 137.735  0.00  0.00    +0.000 C 
ATOM     26  C   UNL     1     113.227 125.562 137.464  0.00  0.00    +0.000 C 
ATOM     27  C   UNL     1     112.387 126.672 138.352  0.00  0.00    +0.000 C 
ATOM     28  C   UNL     1     113.598 125.964 138.081  0.00  0.00    +0.000 C 
BRANCH  24  29
ATOM     29  O   UNL     1     112.063 125.314 136.673  0.00  0.00    +0.000 OA
BRANCH  29  31
ATOM     30  O   UNL     1     111.591 124.291 137.553  0.00  0.00    +0.000 OA
ATOM     31  C   UNL     1     111.777 124.550 136.790  0.00  0.00    +0.000 C 
ATOM     32  C   UNL     1     111.677 124.043 136.147  0.00  0.00    +0.000 C 
ENDBRANCH  29  31
ENDBRANCH  24  29
BRANCH  25  33
ATOM     33  O   UNL     1     111.223 126.423 137.561  0.00  0.00    +0.000 OA
BRANCH  33  35
ATOM     34  O   UNL     1     111.587 127.360 136.546  0.00  0.00    +0.000 OA
ATOM     35  C   UNL     1     111.024 127.048 137.061  0.00  0.00    +0.000 C 
ATOM     36  C   UNL     1     110.260 127.361 137.076  0.00  0.00    +0.000 C 
ENDBRANCH  33  35
ENDBRANCH  25  33
BRANCH  26  37
ATOM     37  O   UNL     1     113.647 125.009 137.021  0.00  0.00    +0.000 OA
BRANCH  37  39
ATOM     38  O   UNL     1     114.880 124.631 137.636  0.00  0.00    +0.000 OA
ATOM     39  C   UNL     1     114.472 125.013 137.029  0.00  0.00    +0.000 C 
ATOM     40  C   UNL     1     114.889 125.399 136.431  0.00  0.00    +0.000 C 
ENDBRANCH  37  39
ENDBRANCH  26  37
ENDBRANCH  22  27
ENDBRANCH   6  22
TORSDOF 9
ENDMDL
