MODEL 1
REMARK VINA RESULT:     -11.1      0.000      0.000
REMARK  Name = 44259171
REMARK  10 active torsions:
REMARK  status: ('A' for Active; 'I' for Inactive)
REMARK    1  A    between atoms: O_3  and  C_29
REMARK    2  A    between atoms: O_3  and  C_34
REMARK    3  A    between atoms: O_5  and  C_33
REMARK    4  A    between atoms: O_5  and  C_41
REMARK    5  A    between atoms: O_13  and  C_39
REMARK    6  A    between atoms: O_13  and  C_46
REMARK    7  A    between atoms: C_24  and  C_34
REMARK    8  A    between atoms: C_32  and  C_35
REMARK    9  A    between atoms: C_40  and  C_44
REMARK   10  A    between atoms: C_42  and  C_51
REMARK                            x       y       z     vdW  Elec       q    Type
REMARK                         _______ _______ _______ _____ _____    ______ ____
ROOT
ATOM      1  O   UNL     1     113.468 126.243 138.778  0.00  0.00    +0.000 OA
ATOM      2  O   UNL     1     111.066 125.773 138.414  0.00  0.00    +0.000 OA
ATOM      3  O   UNL     1     110.730 126.346 139.695  0.00  0.00    +0.000 OA
ATOM      4  C   UNL     1     112.420 125.722 137.960  0.00  0.00    +0.000 A 
ATOM      5  C   UNL     1     113.221 125.879 138.081  0.00  0.00    +0.000 A 
ATOM      6  C   UNL     1     111.866 125.930 138.535  0.00  0.00    +0.000 A 
ATOM      7  C   UNL     1     112.115 126.295 139.233  0.00  0.00    +0.000 A 
ATOM      8  C   UNL     1     112.615 127.049 140.680  0.00  0.00    +0.000 A 
ATOM      9  C   UNL     1     112.916 126.451 139.355  0.00  0.00    +0.000 A 
ATOM     10  C   UNL     1     113.187 126.830 140.076  0.00  0.00    +0.000 A 
ATOM     11  C   UNL     1     111.529 126.506 139.825  0.00  0.00    +0.000 A 
ATOM     12  C   UNL     1     111.781 126.886 140.554  0.00  0.00    +0.000 A 
ENDROOT
BRANCH   5  15
ATOM     13  O   UNL     1     114.934 126.614 135.915  0.00  0.00    +0.000 OA
ATOM     14  O   UNL     1     115.432 125.047 135.777  0.00  0.00    +0.000 OA
ATOM     15  C   UNL     1     113.773 125.671 137.506  0.00  0.00    +0.000 A 
ATOM     16  C   UNL     1     114.077 126.246 136.999  0.00  0.00    +0.000 A 
ATOM     17  C   UNL     1     114.022 124.887 137.436  0.00  0.00    +0.000 A 
ATOM     18  C   UNL     1     114.630 126.038 136.422  0.00  0.00    +0.000 A 
ATOM     19  C   UNL     1     114.574 124.679 136.860  0.00  0.00    +0.000 A 
ATOM     20  C   UNL     1     114.878 125.255 136.353  0.00  0.00    +0.000 A 
ENDBRANCH   5  15
BRANCH   4  21
ATOM     21  O   UNL     1     112.171 125.358 137.263  0.00  0.00    +0.000 OA
BRANCH  21  30
ATOM     22  O   UNL     1     111.599 126.567 136.763  0.00  0.00    +0.000 OA
ATOM     23  O   UNL     1     110.057 126.902 135.254  0.00  0.00    +0.000 OA
ATOM     24  O   UNL     1     110.145 125.254 135.250  0.00  0.00    +0.000 OA
ATOM     25  O   UNL     1     111.202 124.482 136.254  0.00  0.00    +0.000 OA
ATOM     26  C   UNL     1     111.070 126.953 136.260  0.00  0.00    +0.000 C 
ATOM     27  C   UNL     1     110.586 126.516 135.756  0.00  0.00    +0.000 C 
ATOM     28  C   UNL     1     110.630 125.691 135.754  0.00  0.00    +0.000 C 
ATOM     29  C   UNL     1     111.158 125.305 136.257  0.00  0.00    +0.000 C 
ATOM     30  C   UNL     1     111.643 125.744 136.761  0.00  0.00    +0.000 C 
BRANCH  26  31
ATOM     31  C   UNL     1     111.026 127.777 136.262  0.00  0.00    +0.000 C 
BRANCH  31  32
ATOM     32  O   UNL     1     111.716 128.228 136.290  0.00  0.00    +0.000 OA
BRANCH  32  38
ATOM     33  O   UNL     1     111.198 129.175 137.226  0.00  0.00    +0.000 OA
ATOM     34  O   UNL     1     112.673 129.400 135.633  0.00  0.00    +0.000 OA
ATOM     35  O   UNL     1     112.633 130.934 136.240  0.00  0.00    +0.000 OA
ATOM     36  O   UNL     1     111.636 131.295 137.505  0.00  0.00    +0.000 OA
ATOM     37  C   UNL     1     112.174 129.581 136.266  0.00  0.00    +0.000 C 
ATOM     38  C   UNL     1     111.696 128.994 136.594  0.00  0.00    +0.000 C 
ATOM     39  C   UNL     1     112.154 130.348 136.569  0.00  0.00    +0.000 C 
ATOM     40  C   UNL     1     111.655 130.528 137.202  0.00  0.00    +0.000 C 
ATOM     41  C   UNL     1     111.177 129.941 137.530  0.00  0.00    +0.000 C 
BRANCH  41  43
ATOM     42  O   UNL     1     110.648 129.622 138.817  0.00  0.00    +0.000 OA
ATOM     43  C   UNL     1     110.679 130.122 138.162  0.00  0.00    +0.000 C 
ENDBRANCH  41  43
ENDBRANCH  32  38
ENDBRANCH  31  32
ENDBRANCH  26  31
ENDBRANCH  21  30
ENDBRANCH   4  21
BRANCH   8  44
ATOM     44  O   UNL     1     112.866 127.414 141.377  0.00  0.00    +0.000 OA
BRANCH  44  52
ATOM     45  O   UNL     1     113.473 128.620 140.910  0.00  0.00    +0.000 OA
ATOM     46  O   UNL     1     112.101 129.927 142.503  0.00  0.00    +0.000 OA
ATOM     47  O   UNL     1     111.951 128.284 142.439  0.00  0.00    +0.000 OA
ATOM     48  O   UNL     1     113.165 130.698 141.506  0.00  0.00    +0.000 OA
ATOM     49  C   UNL     1     112.558 129.491 141.972  0.00  0.00    +0.000 C 
ATOM     50  C   UNL     1     112.483 128.670 141.940  0.00  0.00    +0.000 C 
ATOM     51  C   UNL     1     113.090 129.876 141.473  0.00  0.00    +0.000 C 
ATOM     52  C   UNL     1     112.941 128.235 141.409  0.00  0.00    +0.000 C 
ATOM     53  C   UNL     1     113.548 129.441 140.943  0.00  0.00    +0.000 C 
BRANCH  53  56
ATOM     54  O   UNL     1     114.875 129.887 140.657  0.00  0.00    +0.000 OA
ATOM     55  O   UNL     1     113.818 130.152 139.732  0.00  0.00    +0.000 OA
ATOM     56  C   UNL     1     114.080 129.826 140.444  0.00  0.00    +0.000 C 
ENDBRANCH  53  56
ENDBRANCH  44  52
ENDBRANCH   8  44
TORSDOF 10
ENDMDL
MODEL 2
REMARK VINA RESULT:     -10.8      1.726      5.670
REMARK  Name = 44259171
REMARK  10 active torsions:
REMARK  status: ('A' for Active; 'I' for Inactive)
REMARK    1  A    between atoms: O_3  and  C_29
REMARK    2  A    between atoms: O_3  and  C_34
REMARK    3  A    between atoms: O_5  and  C_33
REMARK    4  A    between atoms: O_5  and  C_41
REMARK    5  A    between atoms: O_13  and  C_39
REMARK    6  A    between atoms: O_13  and  C_46
REMARK    7  A    between atoms: C_24  and  C_34
REMARK    8  A    between atoms: C_32  and  C_35
REMARK    9  A    between atoms: C_40  and  C_44
REMARK   10  A    between atoms: C_42  and  C_51
REMARK                            x       y       z     vdW  Elec       q    Type
REMARK                         _______ _______ _______ _____ _____    ______ ____
ROOT
ATOM      1  O   UNL     1     112.856 128.620 138.183  0.00  0.00    +0.000 OA
ATOM      2  O   UNL     1     114.124 128.628 140.309  0.00  0.00    +0.000 OA
ATOM      3  O   UNL     1     113.778 127.248 140.553  0.00  0.00    +0.000 OA
ATOM      4  C   UNL     1     113.668 129.307 139.137  0.00  0.00    +0.000 A 
ATOM      5  C   UNL     1     113.245 129.304 138.428  0.00  0.00    +0.000 A 
ATOM      6  C   UNL     1     113.701 128.625 139.601  0.00  0.00    +0.000 A 
ATOM      7  C   UNL     1     113.312 127.940 139.355  0.00  0.00    +0.000 A 
ATOM      8  C   UNL     1     112.510 126.517 138.858  0.00  0.00    +0.000 A 
ATOM      9  C   UNL     1     112.889 127.937 138.646  0.00  0.00    +0.000 A 
ATOM     10  C   UNL     1     112.480 127.231 138.380  0.00  0.00    +0.000 A 
ATOM     11  C   UNL     1     113.354 127.237 139.846  0.00  0.00    +0.000 A 
ATOM     12  C   UNL     1     112.950 126.520 139.596  0.00  0.00    +0.000 A 
ENDROOT
BRANCH   5  15
ATOM     13  O   UNL     1     111.788 131.554 137.438  0.00  0.00    +0.000 OA
ATOM     14  O   UNL     1     113.112 132.032 136.577  0.00  0.00    +0.000 OA
ATOM     15  C   UNL     1     113.212 129.985 137.966  0.00  0.00    +0.000 A 
ATOM     16  C   UNL     1     112.517 130.428 137.933  0.00  0.00    +0.000 A 
ATOM     17  C   UNL     1     113.874 130.225 137.535  0.00  0.00    +0.000 A 
ATOM     18  C   UNL     1     112.484 131.111 137.470  0.00  0.00    +0.000 A 
ATOM     19  C   UNL     1     113.841 130.907 137.072  0.00  0.00    +0.000 A 
ATOM     20  C   UNL     1     113.146 131.350 137.040  0.00  0.00    +0.000 A 
ENDBRANCH   5  15
BRANCH   4  21
ATOM     21  O   UNL     1     114.057 129.991 139.383  0.00  0.00    +0.000 OA
BRANCH  21  30
ATOM     22  O   UNL     1     113.097 130.292 140.397  0.00  0.00    +0.000 OA
ATOM     23  O   UNL     1     113.300 131.371 142.284  0.00  0.00    +0.000 OA
ATOM     24  O   UNL     1     114.843 131.459 141.706  0.00  0.00    +0.000 OA
ATOM     25  O   UNL     1     115.222 130.769 140.255  0.00  0.00    +0.000 OA
ATOM     26  C   UNL     1     112.908 130.637 141.122  0.00  0.00    +0.000 C 
ATOM     27  C   UNL     1     113.490 131.026 141.559  0.00  0.00    +0.000 C 
ATOM     28  C   UNL     1     114.262 131.070 141.269  0.00  0.00    +0.000 C 
ATOM     29  C   UNL     1     114.451 130.725 140.544  0.00  0.00    +0.000 C 
ATOM     30  C   UNL     1     113.868 130.336 140.108  0.00  0.00    +0.000 C 
BRANCH  26  31
ATOM     31  C   UNL     1     112.137 130.593 141.412  0.00  0.00    +0.000 C 
BRANCH  31  32
ATOM     32  O   UNL     1     111.502 130.811 140.931  0.00  0.00    +0.000 OA
BRANCH  32  38
ATOM     33  O   UNL     1     110.659 129.724 141.318  0.00  0.00    +0.000 OA
ATOM     34  O   UNL     1     110.176 131.777 140.756  0.00  0.00    +0.000 OA
ATOM     35  O   UNL     1     108.670 131.173 141.055  0.00  0.00    +0.000 OA
ATOM     36  O   UNL     1     108.490 129.602 141.529  0.00  0.00    +0.000 OA
ATOM     37  C   UNL     1     110.086 130.991 140.994  0.00  0.00    +0.000 C 
ATOM     38  C   UNL     1     110.749 130.508 141.081  0.00  0.00    +0.000 C 
ATOM     39  C   UNL     1     109.333 130.690 141.143  0.00  0.00    +0.000 C 
ATOM     40  C   UNL     1     109.243 129.904 141.380  0.00  0.00    +0.000 C 
ATOM     41  C   UNL     1     109.906 129.421 141.468  0.00  0.00    +0.000 C 
BRANCH  41  43
ATOM     42  O   UNL     1     110.256 128.042 141.338  0.00  0.00    +0.000 OA
ATOM     43  C   UNL     1     109.816 128.636 141.704  0.00  0.00    +0.000 C 
ENDBRANCH  41  43
ENDBRANCH  32  38
ENDBRANCH  31  32
ENDBRANCH  26  31
ENDBRANCH  21  30
ENDBRANCH   4  21
BRANCH   8  44
ATOM     44  O   UNL     1     112.120 125.834 138.610  0.00  0.00    +0.000 OA
BRANCH  44  52
ATOM     45  O   UNL     1     113.251 125.338 137.890  0.00  0.00    +0.000 OA
ATOM     46  O   UNL     1     111.741 124.093 136.375  0.00  0.00    +0.000 OA
ATOM     47  O   UNL     1     111.113 125.003 137.600  0.00  0.00    +0.000 OA
ATOM     48  O   UNL     1     113.375 124.013 136.160  0.00  0.00    +0.000 OA
ATOM     49  C   UNL     1     112.244 124.508 136.880  0.00  0.00    +0.000 C 
ATOM     50  C   UNL     1     111.930 124.963 137.492  0.00  0.00    +0.000 C 
ATOM     51  C   UNL     1     113.061 124.468 136.773  0.00  0.00    +0.000 C 
ATOM     52  C   UNL     1     112.434 125.378 137.997  0.00  0.00    +0.000 C 
ATOM     53  C   UNL     1     113.564 124.883 137.278  0.00  0.00    +0.000 C 
BRANCH  53  56
ATOM     54  O   UNL     1     114.750 125.338 136.623  0.00  0.00    +0.000 OA
ATOM     55  O   UNL     1     114.830 124.308 137.611  0.00  0.00    +0.000 OA
ATOM     56  C   UNL     1     114.381 124.843 137.171  0.00  0.00    +0.000 C 
ENDBRANCH  53  56
ENDBRANCH  44  52
ENDBRANCH   8  44
TORSDOF 10
ENDMDL
MODEL 3
REMARK VINA RESULT:     -10.7      1.688      3.051
REMARK  Name = 44259171
REMARK  10 active torsions:
REMARK  status: ('A' for Active; 'I' for Inactive)
REMARK    1  A    between atoms: O_3  and  C_29
REMARK    2  A    between atoms: O_3  and  C_34
REMARK    3  A    between atoms: O_5  and  C_33
REMARK    4  A    between atoms: O_5  and  C_41
REMARK    5  A    between atoms: O_13  and  C_39
REMARK    6  A    between atoms: O_13  and  C_46
REMARK    7  A    between atoms: C_24  and  C_34
REMARK    8  A    between atoms: C_32  and  C_35
REMARK    9  A    between atoms: C_40  and  C_44
REMARK   10  A    between atoms: C_42  and  C_51
REMARK                            x       y       z     vdW  Elec       q    Type
REMARK                         _______ _______ _______ _____ _____    ______ ____
ROOT
ATOM      1  O   UNL     1     112.040 126.067 138.839  0.00  0.00    +0.000 OA
ATOM      2  O   UNL     1     113.523 127.966 138.274  0.00  0.00    +0.000 OA
ATOM      3  O   UNL     1     113.329 128.544 139.582  0.00  0.00    +0.000 OA
ATOM      4  C   UNL     1     112.886 126.741 137.906  0.00  0.00    +0.000 A 
ATOM      5  C   UNL     1     112.391 126.108 138.095  0.00  0.00    +0.000 A 
ATOM      6  C   UNL     1     113.029 127.333 138.462  0.00  0.00    +0.000 A 
ATOM      7  C   UNL     1     112.677 127.292 139.208  0.00  0.00    +0.000 A 
ATOM      8  C   UNL     1     111.955 127.218 140.754  0.00  0.00    +0.000 A 
ATOM      9  C   UNL     1     112.183 126.659 139.397  0.00  0.00    +0.000 A 
ATOM     10  C   UNL     1     111.811 126.605 140.169  0.00  0.00    +0.000 A 
ATOM     11  C   UNL     1     112.833 127.914 139.779  0.00  0.00    +0.000 A 
ATOM     12  C   UNL     1     112.470 127.877 140.557  0.00  0.00    +0.000 A 
ENDROOT
BRANCH   5  15
ATOM     13  O   UNL     1     110.673 124.889 136.163  0.00  0.00    +0.000 OA
ATOM     14  O   UNL     1     111.820 123.741 135.867  0.00  0.00    +0.000 OA
ATOM     15  C   UNL     1     112.249 125.517 137.539  0.00  0.00    +0.000 A 
ATOM     16  C   UNL     1     111.533 125.499 137.130  0.00  0.00    +0.000 A 
ATOM     17  C   UNL     1     112.822 124.942 137.390  0.00  0.00    +0.000 A 
ATOM     18  C   UNL     1     111.390 124.907 136.572  0.00  0.00    +0.000 A 
ATOM     19  C   UNL     1     112.680 124.351 136.834  0.00  0.00    +0.000 A 
ATOM     20  C   UNL     1     111.963 124.333 136.425  0.00  0.00    +0.000 A 
ENDBRANCH   5  15
BRANCH   4  21
ATOM     21  O   UNL     1     113.238 126.783 137.161  0.00  0.00    +0.000 OA
BRANCH  21  30
ATOM     22  O   UNL     1     112.405 127.848 136.700  0.00  0.00    +0.000 OA
ATOM     23  O   UNL     1     112.795 129.452 135.272  0.00  0.00    +0.000 OA
ATOM     24  O   UNL     1     114.240 128.656 135.250  0.00  0.00    +0.000 OA
ATOM     25  O   UNL     1     114.461 127.321 136.194  0.00  0.00    +0.000 OA
ATOM     26  C   UNL     1     112.294 128.515 136.228  0.00  0.00    +0.000 C 
ATOM     27  C   UNL     1     112.906 128.785 135.744  0.00  0.00    +0.000 C 
ATOM     28  C   UNL     1     113.629 128.386 135.733  0.00  0.00    +0.000 C 
ATOM     29  C   UNL     1     113.739 127.719 136.206  0.00  0.00    +0.000 C 
ATOM     30  C   UNL     1     113.127 127.450 136.689  0.00  0.00    +0.000 C 
BRANCH  26  31
ATOM     31  C   UNL     1     111.572 128.914 136.239  0.00  0.00    +0.000 C 
BRANCH  31  32
ATOM     32  O   UNL     1     110.866 128.489 136.209  0.00  0.00    +0.000 OA
BRANCH  32  38
ATOM     33  O   UNL     1     110.104 129.584 136.721  0.00  0.00    +0.000 OA
ATOM     34  O   UNL     1     109.505 127.870 135.510  0.00  0.00    +0.000 OA
ATOM     35  O   UNL     1     108.063 128.655 135.674  0.00  0.00    +0.000 OA
ATOM     36  O   UNL     1     107.982 130.060 136.535  0.00  0.00    +0.000 OA
ATOM     37  C   UNL     1     109.465 128.573 135.942  0.00  0.00    +0.000 C 
ATOM     38  C   UNL     1     110.145 128.882 136.291  0.00  0.00    +0.000 C 
ATOM     39  C   UNL     1     108.743 128.965 136.023  0.00  0.00    +0.000 C 
ATOM     40  C   UNL     1     108.703 129.668 136.454  0.00  0.00    +0.000 C 
ATOM     41  C   UNL     1     109.383 129.978 136.803  0.00  0.00    +0.000 C 
BRANCH  41  43
ATOM     42  O   UNL     1     109.849 130.801 137.873  0.00  0.00    +0.000 OA
ATOM     43  C   UNL     1     109.342 130.680 137.233  0.00  0.00    +0.000 C 
ENDBRANCH  41  43
ENDBRANCH  32  38
ENDBRANCH  31  32
ENDBRANCH  26  31
ENDBRANCH  21  30
ENDBRANCH   4  21
BRANCH   8  44
ATOM     44  O   UNL     1     111.602 127.175 141.498  0.00  0.00    +0.000 OA
BRANCH  44  52
ATOM     45  O   UNL     1     110.294 127.601 141.114  0.00  0.00    +0.000 OA
ATOM     46  O   UNL     1     110.105 128.906 143.210  0.00  0.00    +0.000 OA
ATOM     47  O   UNL     1     111.477 128.044 142.895  0.00  0.00    +0.000 OA
ATOM     48  O   UNL     1     108.860 128.898 142.128  0.00  0.00    +0.000 OA
ATOM     49  C   UNL     1     110.168 128.471 142.512  0.00  0.00    +0.000 C 
ATOM     50  C   UNL     1     110.854 128.040 142.354  0.00  0.00    +0.000 C 
ATOM     51  C   UNL     1     109.545 128.467 141.971  0.00  0.00    +0.000 C 
ATOM     52  C   UNL     1     110.916 127.605 141.655  0.00  0.00    +0.000 C 
ATOM     53  C   UNL     1     109.608 128.032 141.272  0.00  0.00    +0.000 C 
BRANCH  53  56
ATOM     54  O   UNL     1     108.937 128.615 140.153  0.00  0.00    +0.000 OA
ATOM     55  O   UNL     1     108.410 127.437 140.768  0.00  0.00    +0.000 OA
ATOM     56  C   UNL     1     108.986 128.028 140.731  0.00  0.00    +0.000 C 
ENDBRANCH  53  56
ENDBRANCH  44  52
ENDBRANCH   8  44
TORSDOF 10
ENDMDL
MODEL 4
REMARK VINA RESULT:     -10.6      1.469      4.799
REMARK  Name = 44259171
REMARK  10 active torsions:
REMARK  status: ('A' for Active; 'I' for Inactive)
REMARK    1  A    between atoms: O_3  and  C_29
REMARK    2  A    between atoms: O_3  and  C_34
REMARK    3  A    between atoms: O_5  and  C_33
REMARK    4  A    between atoms: O_5  and  C_41
REMARK    5  A    between atoms: O_13  and  C_39
REMARK    6  A    between atoms: O_13  and  C_46
REMARK    7  A    between atoms: C_24  and  C_34
REMARK    8  A    between atoms: C_32  and  C_35
REMARK    9  A    between atoms: C_40  and  C_44
REMARK   10  A    between atoms: C_42  and  C_51
REMARK                            x       y       z     vdW  Elec       q    Type
REMARK                         _______ _______ _______ _____ _____    ______ ____
ROOT
ATOM      1  O   UNL     1     111.828 130.527 138.861  0.00  0.00    +0.000 OA
ATOM      2  O   UNL     1     114.224 130.490 138.243  0.00  0.00    +0.000 OA
ATOM      3  O   UNL     1     114.582 129.990 139.549  0.00  0.00    +0.000 OA
ATOM      4  C   UNL     1     112.862 130.756 137.903  0.00  0.00    +0.000 A 
ATOM      5  C   UNL     1     112.063 130.768 138.109  0.00  0.00    +0.000 A 
ATOM      6  C   UNL     1     113.425 130.502 138.449  0.00  0.00    +0.000 A 
ATOM      7  C   UNL     1     113.189 130.261 139.203  0.00  0.00    +0.000 A 
ATOM      8  C   UNL     1     112.714 129.760 140.764  0.00  0.00    +0.000 A 
ATOM      9  C   UNL     1     112.391 130.273 139.409  0.00  0.00    +0.000 A 
ATOM     10  C   UNL     1     112.132 130.025 140.190  0.00  0.00    +0.000 A 
ATOM     11  C   UNL     1     113.785 130.000 139.763  0.00  0.00    +0.000 A 
ATOM     12  C   UNL     1     113.546 129.747 140.550  0.00  0.00    +0.000 A 
ENDROOT
BRANCH   5  15
ATOM     13  O   UNL     1     109.957 130.175 136.270  0.00  0.00    +0.000 OA
ATOM     14  O   UNL     1     109.810 131.781 135.920  0.00  0.00    +0.000 OA
ATOM     15  C   UNL     1     111.500 131.021 137.562  0.00  0.00    +0.000 A 
ATOM     16  C   UNL     1     111.011 130.471 137.190  0.00  0.00    +0.000 A 
ATOM     17  C   UNL     1     111.426 131.824 137.387  0.00  0.00    +0.000 A 
ATOM     18  C   UNL     1     110.447 130.725 136.642  0.00  0.00    +0.000 A 
ATOM     19  C   UNL     1     110.864 132.077 136.840  0.00  0.00    +0.000 A 
ATOM     20  C   UNL     1     110.374 131.528 136.468  0.00  0.00    +0.000 A 
ENDBRANCH   5  15
BRANCH   4  21
ATOM     21  O   UNL     1     113.098 130.997 137.150  0.00  0.00    +0.000 OA
BRANCH  21  30
ATOM     22  O   UNL     1     113.377 129.673 136.693  0.00  0.00    +0.000 OA
ATOM     23  O   UNL     1     114.813 128.941 135.220  0.00  0.00    +0.000 OA
ATOM     24  O   UNL     1     115.112 130.563 135.170  0.00  0.00    +0.000 OA
ATOM     25  O   UNL     1     114.255 131.591 136.135  0.00  0.00    +0.000 OA
ATOM     26  C   UNL     1     113.805 129.159 136.210  0.00  0.00    +0.000 C 
ATOM     27  C   UNL     1     114.384 129.455 135.702  0.00  0.00    +0.000 C 
ATOM     28  C   UNL     1     114.534 130.267 135.678  0.00  0.00    +0.000 C 
ATOM     29  C   UNL     1     114.105 130.781 136.160  0.00  0.00    +0.000 C 
ATOM     30  C   UNL     1     113.527 130.483 136.668  0.00  0.00    +0.000 C 
BRANCH  26  31
ATOM     31  C   UNL     1     113.656 128.348 136.235  0.00  0.00    +0.000 C 
BRANCH  31  32
ATOM     32  O   UNL     1     112.885 128.073 136.340  0.00  0.00    +0.000 OA
BRANCH  32  38
ATOM     33  O   UNL     1     113.272 126.815 136.898  0.00  0.00    +0.000 OA
ATOM     34  O   UNL     1     111.557 127.365 135.664  0.00  0.00    +0.000 OA
ATOM     35  O   UNL     1     111.279 125.753 135.885  0.00  0.00    +0.000 OA
ATOM     36  O   UNL     1     112.330 124.850 136.780  0.00  0.00    +0.000 OA
ATOM     37  C   UNL     1     112.083 126.913 136.113  0.00  0.00    +0.000 C 
ATOM     38  C   UNL     1     112.747 127.267 136.451  0.00  0.00    +0.000 C 
ATOM     39  C   UNL     1     111.943 126.107 136.222  0.00  0.00    +0.000 C 
ATOM     40  C   UNL     1     112.469 125.655 136.671  0.00  0.00    +0.000 C 
ATOM     41  C   UNL     1     113.133 126.009 137.009  0.00  0.00    +0.000 C 
BRANCH  41  43
ATOM     42  O   UNL     1     114.059 125.900 138.091  0.00  0.00    +0.000 OA
ATOM     43  C   UNL     1     113.658 125.558 137.456  0.00  0.00    +0.000 C 
ENDBRANCH  41  43
ENDBRANCH  32  38
ENDBRANCH  31  32
ENDBRANCH  26  31
ENDBRANCH  21  30
ENDBRANCH   4  21
BRANCH   8  44
ATOM     44  O   UNL     1     112.476 129.519 141.516  0.00  0.00    +0.000 OA
BRANCH  44  52
ATOM     45  O   UNL     1     112.217 128.161 141.157  0.00  0.00    +0.000 OA
ATOM     46  O   UNL     1     110.354 128.086 142.786  0.00  0.00    +0.000 OA
ATOM     47  O   UNL     1     111.234 129.470 142.603  0.00  0.00    +0.000 OA
ATOM     48  O   UNL     1     110.716 126.753 141.884  0.00  0.00    +0.000 OA
ATOM     49  C   UNL     1     110.975 128.111 142.243  0.00  0.00    +0.000 C 
ATOM     50  C   UNL     1     111.415 128.803 142.152  0.00  0.00    +0.000 C 
ATOM     51  C   UNL     1     111.156 127.445 141.792  0.00  0.00    +0.000 C 
ATOM     52  C   UNL     1     112.036 128.828 141.608  0.00  0.00    +0.000 C 
ATOM     53  C   UNL     1     111.776 127.470 141.250  0.00  0.00    +0.000 C 
BRANCH  53  56
ATOM     54  O   UNL     1     112.558 126.292 141.040  0.00  0.00    +0.000 OA
ATOM     55  O   UNL     1     111.537 126.647 140.105  0.00  0.00    +0.000 OA
ATOM     56  C   UNL     1     111.957 126.803 140.798  0.00  0.00    +0.000 C 
ENDBRANCH  53  56
ENDBRANCH  44  52
ENDBRANCH   8  44
TORSDOF 10
ENDMDL
MODEL 5
REMARK VINA RESULT:     -10.6      1.302      4.572
REMARK  Name = 44259171
REMARK  10 active torsions:
REMARK  status: ('A' for Active; 'I' for Inactive)
REMARK    1  A    between atoms: O_3  and  C_29
REMARK    2  A    between atoms: O_3  and  C_34
REMARK    3  A    between atoms: O_5  and  C_33
REMARK    4  A    between atoms: O_5  and  C_41
REMARK    5  A    between atoms: O_13  and  C_39
REMARK    6  A    between atoms: O_13  and  C_46
REMARK    7  A    between atoms: C_24  and  C_34
REMARK    8  A    between atoms: C_32  and  C_35
REMARK    9  A    between atoms: C_40  and  C_44
REMARK   10  A    between atoms: C_42  and  C_51
REMARK                            x       y       z     vdW  Elec       q    Type
REMARK                         _______ _______ _______ _____ _____    ______ ____
ROOT
ATOM      1  O   UNL     1     111.303 128.737 136.270  0.00  0.00    +0.000 OA
ATOM      2  O   UNL     1     113.706 128.360 136.729  0.00  0.00    +0.000 OA
ATOM      3  O   UNL     1     113.862 129.722 137.181  0.00  0.00    +0.000 OA
ATOM      4  C   UNL     1     112.440 127.873 136.278  0.00  0.00    +0.000 A 
ATOM      5  C   UNL     1     111.639 127.998 136.125  0.00  0.00    +0.000 A 
ATOM      6  C   UNL     1     112.905 128.486 136.576  0.00  0.00    +0.000 A 
ATOM      7  C   UNL     1     112.568 129.226 136.720  0.00  0.00    +0.000 A 
ATOM      8  C   UNL     1     111.883 130.760 137.024  0.00  0.00    +0.000 A 
ATOM      9  C   UNL     1     111.767 129.351 136.567  0.00  0.00    +0.000 A 
ATOM     10  C   UNL     1     111.405 130.116 136.714  0.00  0.00    +0.000 A 
ATOM     11  C   UNL     1     113.062 129.856 137.030  0.00  0.00    +0.000 A 
ATOM     12  C   UNL     1     112.717 130.629 137.183  0.00  0.00    +0.000 A 
ENDROOT
BRANCH   5  15
ATOM     13  O   UNL     1     109.668 125.968 136.526  0.00  0.00    +0.000 OA
ATOM     14  O   UNL     1     109.783 125.543 134.935  0.00  0.00    +0.000 OA
ATOM     15  C   UNL     1     111.176 127.385 135.828  0.00  0.00    +0.000 A 
ATOM     16  C   UNL     1     110.654 126.984 136.326  0.00  0.00    +0.000 A 
ATOM     17  C   UNL     1     111.232 127.172 135.032  0.00  0.00    +0.000 A 
ATOM     18  C   UNL     1     110.190 126.369 136.028  0.00  0.00    +0.000 A 
ATOM     19  C   UNL     1     110.768 126.559 134.735  0.00  0.00    +0.000 A 
ATOM     20  C   UNL     1     110.247 126.158 135.233  0.00  0.00    +0.000 A 
ENDBRANCH   5  15
BRANCH   4  21
ATOM     21  O   UNL     1     112.777 127.134 136.134  0.00  0.00    +0.000 OA
BRANCH  21  30
ATOM     22  O   UNL     1     112.885 126.807 137.520  0.00  0.00    +0.000 OA
ATOM     23  O   UNL     1     114.275 125.496 138.576  0.00  0.00    +0.000 OA
ATOM     24  O   UNL     1     114.808 125.330 137.023  0.00  0.00    +0.000 OA
ATOM     25  O   UNL     1     114.059 126.149 135.802  0.00  0.00    +0.000 OA
ATOM     26  C   UNL     1     113.260 126.398 138.131  0.00  0.00    +0.000 C 
ATOM     27  C   UNL     1     113.900 125.905 137.966  0.00  0.00    +0.000 C 
ATOM     28  C   UNL     1     114.167 125.823 137.188  0.00  0.00    +0.000 C 
ATOM     29  C   UNL     1     113.793 126.232 136.578  0.00  0.00    +0.000 C 
ATOM     30  C   UNL     1     113.152 126.724 136.744  0.00  0.00    +0.000 C 
BRANCH  26  31
ATOM     31  C   UNL     1     112.994 126.480 138.907  0.00  0.00    +0.000 C 
BRANCH  31  32
ATOM     32  O   UNL     1     112.185 126.456 139.072  0.00  0.00    +0.000 OA
BRANCH  32  38
ATOM     33  O   UNL     1     112.335 127.144 140.315  0.00  0.00    +0.000 OA
ATOM     34  O   UNL     1     110.802 125.750 139.629  0.00  0.00    +0.000 OA
ATOM     35  O   UNL     1     110.260 126.085 141.151  0.00  0.00    +0.000 OA
ATOM     36  O   UNL     1     111.101 127.126 142.116  0.00  0.00    +0.000 OA
ATOM     37  C   UNL     1     111.223 126.271 140.111  0.00  0.00    +0.000 C 
ATOM     38  C   UNL     1     111.915 126.624 139.833  0.00  0.00    +0.000 C 
ATOM     39  C   UNL     1     110.952 126.438 140.872  0.00  0.00    +0.000 C 
ATOM     40  C   UNL     1     111.373 126.959 141.355  0.00  0.00    +0.000 C 
ATOM     41  C   UNL     1     112.065 127.312 141.077  0.00  0.00    +0.000 C 
BRANCH  41  43
ATOM     42  O   UNL     1     112.912 128.453 141.222  0.00  0.00    +0.000 OA
ATOM     43  C   UNL     1     112.485 127.832 141.559  0.00  0.00    +0.000 C 
ENDBRANCH  41  43
ENDBRANCH  32  38
ENDBRANCH  31  32
ENDBRANCH  26  31
ENDBRANCH  21  30
ENDBRANCH   4  21
BRANCH   8  44
ATOM     44  O   UNL     1     111.544 131.498 137.167  0.00  0.00    +0.000 OA
BRANCH  44  52
ATOM     45  O   UNL     1     111.137 131.215 138.508  0.00  0.00    +0.000 OA
ATOM     46  O   UNL     1     109.128 132.626 138.195  0.00  0.00    +0.000 OA
ATOM     47  O   UNL     1     110.204 132.439 136.959  0.00  0.00    +0.000 OA
ATOM     48  O   UNL     1     109.391 131.872 139.640  0.00  0.00    +0.000 OA
ATOM     49  C   UNL     1     109.797 132.156 138.299  0.00  0.00    +0.000 C 
ATOM     50  C   UNL     1     110.336 132.062 137.681  0.00  0.00    +0.000 C 
ATOM     51  C   UNL     1     109.929 131.779 139.021  0.00  0.00    +0.000 C 
ATOM     52  C   UNL     1     111.006 131.591 137.786  0.00  0.00    +0.000 C 
ATOM     53  C   UNL     1     110.599 131.309 139.125  0.00  0.00    +0.000 C 
BRANCH  53  56
ATOM     54  O   UNL     1     110.400 130.190 139.991  0.00  0.00    +0.000 OA
ATOM     55  O   UNL     1     111.192 131.296 140.426  0.00  0.00    +0.000 OA
ATOM     56  C   UNL     1     110.730 130.932 139.847  0.00  0.00    +0.000 C 
ENDBRANCH  53  56
ENDBRANCH  44  52
ENDBRANCH   8  44
TORSDOF 10
ENDMDL
MODEL 6
REMARK VINA RESULT:     -10.5      1.879      5.206
REMARK  Name = 44259171
REMARK  10 active torsions:
REMARK  status: ('A' for Active; 'I' for Inactive)
REMARK    1  A    between atoms: O_3  and  C_29
REMARK    2  A    between atoms: O_3  and  C_34
REMARK    3  A    between atoms: O_5  and  C_33
REMARK    4  A    between atoms: O_5  and  C_41
REMARK    5  A    between atoms: O_13  and  C_39
REMARK    6  A    between atoms: O_13  and  C_46
REMARK    7  A    between atoms: C_24  and  C_34
REMARK    8  A    between atoms: C_32  and  C_35
REMARK    9  A    between atoms: C_40  and  C_44
REMARK   10  A    between atoms: C_42  and  C_51
REMARK                            x       y       z     vdW  Elec       q    Type
REMARK                         _______ _______ _______ _____ _____    ______ ____
ROOT
ATOM      1  O   UNL     1     112.139 127.376 136.897  0.00  0.00    +0.000 OA
ATOM      2  O   UNL     1     113.380 128.388 138.785  0.00  0.00    +0.000 OA
ATOM      3  O   UNL     1     112.963 129.711 138.387  0.00  0.00    +0.000 OA
ATOM      4  C   UNL     1     112.973 127.233 138.048  0.00  0.00    +0.000 A 
ATOM      5  C   UNL     1     112.559 126.896 137.419  0.00  0.00    +0.000 A 
ATOM      6  C   UNL     1     112.967 128.051 138.156  0.00  0.00    +0.000 A 
ATOM      7  C   UNL     1     112.546 128.532 137.633  0.00  0.00    +0.000 A 
ATOM      8  C   UNL     1     111.680 129.538 136.559  0.00  0.00    +0.000 A 
ATOM      9  C   UNL     1     112.132 128.195 137.004  0.00  0.00    +0.000 A 
ATOM     10  C   UNL     1     111.691 128.684 136.453  0.00  0.00    +0.000 A 
ATOM     11  C   UNL     1     112.547 129.382 137.755  0.00  0.00    +0.000 A 
ATOM     12  C   UNL     1     112.111 129.889 137.214  0.00  0.00    +0.000 A 
ENDROOT
BRANCH   5  15
ATOM     13  O   UNL     1     111.243 124.365 137.599  0.00  0.00    +0.000 OA
ATOM     14  O   UNL     1     112.586 123.623 136.992  0.00  0.00    +0.000 OA
ATOM     15  C   UNL     1     112.566 126.078 137.312  0.00  0.00    +0.000 A 
ATOM     16  C   UNL     1     111.901 125.631 137.509  0.00  0.00    +0.000 A 
ATOM     17  C   UNL     1     113.237 125.707 137.008  0.00  0.00    +0.000 A 
ATOM     18  C   UNL     1     111.908 124.813 137.402  0.00  0.00    +0.000 A 
ATOM     19  C   UNL     1     113.244 124.889 136.902  0.00  0.00    +0.000 A 
ATOM     20  C   UNL     1     112.579 124.442 137.098  0.00  0.00    +0.000 A 
ENDBRANCH   5  15
BRANCH   4  21
ATOM     21  O   UNL     1     113.393 126.753 138.570  0.00  0.00    +0.000 OA
BRANCH  21  30
ATOM     22  O   UNL     1     112.474 126.863 139.658  0.00  0.00    +0.000 OA
ATOM     23  O   UNL     1     112.812 126.934 141.814  0.00  0.00    +0.000 OA
ATOM     24  O   UNL     1     114.361 126.804 141.259  0.00  0.00    +0.000 OA
ATOM     25  O   UNL     1     114.651 126.713 139.638  0.00  0.00    +0.000 OA
ATOM     26  C   UNL     1     112.329 126.908 140.469  0.00  0.00    +0.000 C 
ATOM     27  C   UNL     1     112.957 126.888 141.003  0.00  0.00    +0.000 C 
ATOM     28  C   UNL     1     113.732 126.823 140.725  0.00  0.00    +0.000 C 
ATOM     29  C   UNL     1     113.878 126.778 139.914  0.00  0.00    +0.000 C 
ATOM     30  C   UNL     1     113.248 126.798 139.381  0.00  0.00    +0.000 C 
BRANCH  26  31
ATOM     31  C   UNL     1     111.555 126.973 140.747  0.00  0.00    +0.000 C 
BRANCH  31  32
ATOM     32  O   UNL     1     110.998 126.395 140.556  0.00  0.00    +0.000 OA
BRANCH  32  38
ATOM     33  O   UNL     1     109.978 127.144 141.220  0.00  0.00    +0.000 OA
ATOM     34  O   UNL     1     109.963 125.119 140.407  0.00  0.00    +0.000 OA
ATOM     35  O   UNL     1     108.426 125.229 140.996  0.00  0.00    +0.000 OA
ATOM     36  O   UNL     1     107.923 126.617 141.734  0.00  0.00    +0.000 OA
ATOM     37  C   UNL     1     109.712 125.813 140.776  0.00  0.00    +0.000 C 
ATOM     38  C   UNL     1     110.229 126.451 140.851  0.00  0.00    +0.000 C 
ATOM     39  C   UNL     1     108.943 125.868 141.070  0.00  0.00    +0.000 C 
ATOM     40  C   UNL     1     108.692 126.562 141.440  0.00  0.00    +0.000 C 
ATOM     41  C   UNL     1     109.209 127.200 141.514  0.00  0.00    +0.000 C 
BRANCH  41  43
ATOM     42  O   UNL     1     109.360 128.178 142.544  0.00  0.00    +0.000 OA
ATOM     43  C   UNL     1     108.957 127.893 141.883  0.00  0.00    +0.000 C 
ENDBRANCH  41  43
ENDBRANCH  32  38
ENDBRANCH  31  32
ENDBRANCH  26  31
ENDBRANCH  21  30
ENDBRANCH   4  21
BRANCH   8  44
ATOM     44  O   UNL     1     111.259 130.016 136.036  0.00  0.00    +0.000 OA
BRANCH  44  52
ATOM     45  O   UNL     1     110.141 130.258 136.893  0.00  0.00    +0.000 OA
ATOM     46  O   UNL     1     108.626 130.190 134.937  0.00  0.00    +0.000 OA
ATOM     47  O   UNL     1     110.249 129.971 134.731  0.00  0.00    +0.000 OA
ATOM     48  O   UNL     1     108.014 130.455 136.446  0.00  0.00    +0.000 OA
ATOM     49  C   UNL     1     109.131 130.213 135.589  0.00  0.00    +0.000 C 
ATOM     50  C   UNL     1     109.943 130.103 135.486  0.00  0.00    +0.000 C 
ATOM     51  C   UNL     1     108.825 130.345 136.343  0.00  0.00    +0.000 C 
ATOM     52  C   UNL     1     110.447 130.126 136.138  0.00  0.00    +0.000 C 
ATOM     53  C   UNL     1     109.330 130.368 136.995  0.00  0.00    +0.000 C 
BRANCH  53  56
ATOM     54  O   UNL     1     108.967 131.269 138.043  0.00  0.00    +0.000 OA
ATOM     55  O   UNL     1     108.775 129.863 138.212  0.00  0.00    +0.000 OA
ATOM     56  C   UNL     1     109.024 130.500 137.750  0.00  0.00    +0.000 C 
ENDBRANCH  53  56
ENDBRANCH  44  52
ENDBRANCH   8  44
TORSDOF 10
ENDMDL
MODEL 7
REMARK VINA RESULT:     -10.5      1.985      4.828
REMARK  Name = 44259171
REMARK  10 active torsions:
REMARK  status: ('A' for Active; 'I' for Inactive)
REMARK    1  A    between atoms: O_3  and  C_29
REMARK    2  A    between atoms: O_3  and  C_34
REMARK    3  A    between atoms: O_5  and  C_33
REMARK    4  A    between atoms: O_5  and  C_41
REMARK    5  A    between atoms: O_13  and  C_39
REMARK    6  A    between atoms: O_13  and  C_46
REMARK    7  A    between atoms: C_24  and  C_34
REMARK    8  A    between atoms: C_32  and  C_35
REMARK    9  A    between atoms: C_40  and  C_44
REMARK   10  A    between atoms: C_42  and  C_51
REMARK                            x       y       z     vdW  Elec       q    Type
REMARK                         _______ _______ _______ _____ _____    ______ ____
ROOT
ATOM      1  O   UNL     1     111.961 129.329 135.577  0.00  0.00    +0.000 OA
ATOM      2  O   UNL     1     111.737 126.985 136.338  0.00  0.00    +0.000 OA
ATOM      3  O   UNL     1     110.298 127.077 136.291  0.00  0.00    +0.000 OA
ATOM      4  C   UNL     1     112.560 128.098 135.985  0.00  0.00    +0.000 A 
ATOM      5  C   UNL     1     112.635 128.880 135.732  0.00  0.00    +0.000 A 
ATOM      6  C   UNL     1     111.812 127.766 136.085  0.00  0.00    +0.000 A 
ATOM      7  C   UNL     1     111.137 128.216 135.930  0.00  0.00    +0.000 A 
ATOM      8  C   UNL     1     109.734 129.137 135.614  0.00  0.00    +0.000 A 
ATOM      9  C   UNL     1     111.212 128.998 135.676  0.00  0.00    +0.000 A 
ATOM     10  C   UNL     1     110.518 129.476 135.512  0.00  0.00    +0.000 A 
ATOM     11  C   UNL     1     110.363 127.859 136.037  0.00  0.00    +0.000 A 
ATOM     12  C   UNL     1     109.657 128.323 135.878  0.00  0.00    +0.000 A 
ENDROOT
BRANCH   5  15
ATOM     13  O   UNL     1     114.697 130.646 136.624  0.00  0.00    +0.000 OA
ATOM     14  O   UNL     1     115.630 130.206 135.336  0.00  0.00    +0.000 OA
ATOM     15  C   UNL     1     113.383 129.211 135.633  0.00  0.00    +0.000 A 
ATOM     16  C   UNL     1     113.665 129.762 136.177  0.00  0.00    +0.000 A 
ATOM     17  C   UNL     1     113.850 128.992 134.989  0.00  0.00    +0.000 A 
ATOM     18  C   UNL     1     114.415 130.094 136.079  0.00  0.00    +0.000 A 
ATOM     19  C   UNL     1     114.599 129.323 134.889  0.00  0.00    +0.000 A 
ATOM     20  C   UNL     1     114.881 129.874 135.434  0.00  0.00    +0.000 A 
ENDBRANCH   5  15
BRANCH   4  21
ATOM     21  O   UNL     1     113.234 127.648 136.140  0.00  0.00    +0.000 OA
BRANCH  21  30
ATOM     22  O   UNL     1     113.071 127.687 137.558  0.00  0.00    +0.000 OA
ATOM     23  O   UNL     1     113.646 126.256 139.103  0.00  0.00    +0.000 OA
ATOM     24  O   UNL     1     114.177 125.481 137.747  0.00  0.00    +0.000 OA
ATOM     25  O   UNL     1     113.971 126.177 136.265  0.00  0.00    +0.000 OA
ATOM     26  C   UNL     1     113.175 127.339 138.299  0.00  0.00    +0.000 C 
ATOM     27  C   UNL     1     113.543 126.604 138.362  0.00  0.00    +0.000 C 
ATOM     28  C   UNL     1     113.809 126.216 137.684  0.00  0.00    +0.000 C 
ATOM     29  C   UNL     1     113.706 126.564 136.943  0.00  0.00    +0.000 C 
ATOM     30  C   UNL     1     113.337 127.300 136.881  0.00  0.00    +0.000 C 
BRANCH  26  31
ATOM     31  C   UNL     1     112.909 127.726 138.978  0.00  0.00    +0.000 C 
BRANCH  31  32
ATOM     32  O   UNL     1     113.032 128.537 139.066  0.00  0.00    +0.000 OA
BRANCH  32  38
ATOM     33  O   UNL     1     111.950 128.656 139.992  0.00  0.00    +0.000 OA
ATOM     34  O   UNL     1     113.675 129.945 139.637  0.00  0.00    +0.000 OA
ATOM     35  O   UNL     1     112.915 130.768 140.848  0.00  0.00    +0.000 OA
ATOM     36  O   UNL     1     111.511 130.182 141.489  0.00  0.00    +0.000 OA
ATOM     37  C   UNL     1     112.973 129.652 139.957  0.00  0.00    +0.000 C 
ATOM     38  C   UNL     1     112.651 128.948 139.672  0.00  0.00    +0.000 C 
ATOM     39  C   UNL     1     112.593 130.064 140.563  0.00  0.00    +0.000 C 
ATOM     40  C   UNL     1     111.891 129.771 140.883  0.00  0.00    +0.000 C 
ATOM     41  C   UNL     1     111.569 129.067 140.598  0.00  0.00    +0.000 C 
BRANCH  41  43
ATOM     42  O   UNL     1     110.356 128.328 140.450  0.00  0.00    +0.000 OA
ATOM     43  C   UNL     1     110.868 128.774 140.918  0.00  0.00    +0.000 C 
ENDBRANCH  41  43
ENDBRANCH  32  38
ENDBRANCH  31  32
ENDBRANCH  26  31
ENDBRANCH  21  30
ENDBRANCH   4  21
BRANCH   8  44
ATOM     44  O   UNL     1     109.062 129.588 135.458  0.00  0.00    +0.000 OA
BRANCH  44  52
ATOM     45  O   UNL     1     109.029 130.127 136.782  0.00  0.00    +0.000 OA
ATOM     46  O   UNL     1     107.774 132.092 135.949  0.00  0.00    +0.000 OA
ATOM     47  O   UNL     1     108.225 130.898 134.903  0.00  0.00    +0.000 OA
ATOM     48  O   UNL     1     108.159 131.976 137.550  0.00  0.00    +0.000 OA
ATOM     49  C   UNL     1     108.192 131.437 136.226  0.00  0.00    +0.000 C 
ATOM     50  C   UNL     1     108.418 130.840 135.703  0.00  0.00    +0.000 C 
ATOM     51  C   UNL     1     108.385 131.379 137.026  0.00  0.00    +0.000 C 
ATOM     52  C   UNL     1     108.836 130.185 135.981  0.00  0.00    +0.000 C 
ATOM     53  C   UNL     1     108.803 130.724 137.304  0.00  0.00    +0.000 C 
BRANCH  53  56
ATOM     54  O   UNL     1     108.496 130.260 138.620  0.00  0.00    +0.000 OA
ATOM     55  O   UNL     1     109.688 131.014 138.389  0.00  0.00    +0.000 OA
ATOM     56  C   UNL     1     108.995 130.666 138.104  0.00  0.00    +0.000 C 
ENDBRANCH  53  56
ENDBRANCH  44  52
ENDBRANCH   8  44
TORSDOF 10
ENDMDL
MODEL 8
REMARK VINA RESULT:     -10.4      1.566      4.516
REMARK  Name = 44259171
REMARK  10 active torsions:
REMARK  status: ('A' for Active; 'I' for Inactive)
REMARK    1  A    between atoms: O_3  and  C_29
REMARK    2  A    between atoms: O_3  and  C_34
REMARK    3  A    between atoms: O_5  and  C_33
REMARK    4  A    between atoms: O_5  and  C_41
REMARK    5  A    between atoms: O_13  and  C_39
REMARK    6  A    between atoms: O_13  and  C_46
REMARK    7  A    between atoms: C_24  and  C_34
REMARK    8  A    between atoms: C_32  and  C_35
REMARK    9  A    between atoms: C_40  and  C_44
REMARK   10  A    between atoms: C_42  and  C_51
REMARK                            x       y       z     vdW  Elec       q    Type
REMARK                         _______ _______ _______ _____ _____    ______ ____
ROOT
ATOM      1  O   UNL     1     111.331 129.279 139.374  0.00  0.00    +0.000 OA
ATOM      2  O   UNL     1     113.478 130.032 138.401  0.00  0.00    +0.000 OA
ATOM      3  O   UNL     1     114.138 129.893 139.677  0.00  0.00    +0.000 OA
ATOM      4  C   UNL     1     112.090 129.728 138.251  0.00  0.00    +0.000 A 
ATOM      5  C   UNL     1     111.374 129.477 138.575  0.00  0.00    +0.000 A 
ATOM      6  C   UNL     1     112.763 129.781 138.726  0.00  0.00    +0.000 A 
ATOM      7  C   UNL     1     112.719 129.582 139.526  0.00  0.00    +0.000 A 
ATOM      8  C   UNL     1     112.642 129.174 141.182  0.00  0.00    +0.000 A 
ATOM      9  C   UNL     1     112.003 129.331 139.850  0.00  0.00    +0.000 A 
ATOM     10  C   UNL     1     111.945 129.121 140.681  0.00  0.00    +0.000 A 
ATOM     11  C   UNL     1     113.426 129.641 140.010  0.00  0.00    +0.000 A 
ATOM     12  C   UNL     1     113.387 129.435 140.844  0.00  0.00    +0.000 A 
ENDROOT
BRANCH   5  15
ATOM     13  O   UNL     1     109.407 127.894 137.237  0.00  0.00    +0.000 OA
ATOM     14  O   UNL     1     108.685 129.267 136.674  0.00  0.00    +0.000 OA
ATOM     15  C   UNL     1     110.703 129.425 138.100  0.00  0.00    +0.000 A 
ATOM     16  C   UNL     1     110.391 128.686 137.907  0.00  0.00    +0.000 A 
ATOM     17  C   UNL     1     110.341 130.111 137.818  0.00  0.00    +0.000 A 
ATOM     18  C   UNL     1     109.718 128.633 137.431  0.00  0.00    +0.000 A 
ATOM     19  C   UNL     1     109.670 130.059 137.343  0.00  0.00    +0.000 A 
ATOM     20  C   UNL     1     109.358 129.320 137.150  0.00  0.00    +0.000 A 
ENDBRANCH   5  15
BRANCH   4  21
ATOM     21  O   UNL     1     112.134 129.927 137.452  0.00  0.00    +0.000 OA
BRANCH  21  30
ATOM     22  O   UNL     1     112.815 128.742 137.037  0.00  0.00    +0.000 OA
ATOM     23  O   UNL     1     114.328 128.427 135.495  0.00  0.00    +0.000 OA
ATOM     24  O   UNL     1     114.063 130.049 135.347  0.00  0.00    +0.000 OA
ATOM     25  O   UNL     1     112.966 130.799 136.325  0.00  0.00    +0.000 OA
ATOM     26  C   UNL     1     113.363 128.367 136.547  0.00  0.00    +0.000 C 
ATOM     27  C   UNL     1     113.779 128.802 135.984  0.00  0.00    +0.000 C 
ATOM     28  C   UNL     1     113.647 129.614 135.910  0.00  0.00    +0.000 C 
ATOM     29  C   UNL     1     113.099 129.989 136.399  0.00  0.00    +0.000 C 
ATOM     30  C   UNL     1     112.683 129.552 136.962  0.00  0.00    +0.000 C 
BRANCH  26  31
ATOM     31  C   UNL     1     113.496 127.556 136.621  0.00  0.00    +0.000 C 
BRANCH  31  32
ATOM     32  O   UNL     1     112.859 127.032 136.626  0.00  0.00    +0.000 OA
BRANCH  32  38
ATOM     33  O   UNL     1     113.698 125.947 137.026  0.00  0.00    +0.000 OA
ATOM     34  O   UNL     1     111.715 125.959 136.113  0.00  0.00    +0.000 OA
ATOM     35  O   UNL     1     111.982 124.337 136.257  0.00  0.00    +0.000 OA
ATOM     36  O   UNL     1     113.393 123.788 136.914  0.00  0.00    +0.000 OA
ATOM     37  C   UNL     1     112.421 125.684 136.442  0.00  0.00    +0.000 C 
ATOM     38  C   UNL     1     112.993 126.221 136.698  0.00  0.00    +0.000 C 
ATOM     39  C   UNL     1     112.554 124.873 136.513  0.00  0.00    +0.000 C 
ATOM     40  C   UNL     1     113.260 124.599 136.842  0.00  0.00    +0.000 C 
ATOM     41  C   UNL     1     113.832 125.136 137.098  0.00  0.00    +0.000 C 
BRANCH  41  43
ATOM     42  O   UNL     1     114.877 125.259 138.064  0.00  0.00    +0.000 OA
ATOM     43  C   UNL     1     114.537 124.861 137.426  0.00  0.00    +0.000 C 
ENDBRANCH  41  43
ENDBRANCH  32  38
ENDBRANCH  31  32
ENDBRANCH  26  31
ENDBRANCH  21  30
ENDBRANCH   4  21
BRANCH   8  44
ATOM     44  O   UNL     1     112.596 128.974 141.981  0.00  0.00    +0.000 OA
BRANCH  44  52
ATOM     45  O   UNL     1     112.354 130.305 142.443  0.00  0.00    +0.000 OA
ATOM     46  O   UNL     1     110.929 129.415 144.261  0.00  0.00    +0.000 OA
ATOM     47  O   UNL     1     111.645 128.381 143.192  0.00  0.00    +0.000 OA
ATOM     48  O   UNL     1     111.163 131.042 144.117  0.00  0.00    +0.000 OA
ATOM     49  C   UNL     1     111.404 129.711 143.655  0.00  0.00    +0.000 C 
ATOM     50  C   UNL     1     111.762 129.194 143.121  0.00  0.00    +0.000 C 
ATOM     51  C   UNL     1     111.521 130.525 143.583  0.00  0.00    +0.000 C 
ATOM     52  C   UNL     1     112.237 129.491 142.515  0.00  0.00    +0.000 C 
ATOM     53  C   UNL     1     111.996 130.821 142.977  0.00  0.00    +0.000 C 
BRANCH  53  56
ATOM     54  O   UNL     1     112.779 131.987 143.242  0.00  0.00    +0.000 OA
ATOM     55  O   UNL     1     111.565 132.097 142.497  0.00  0.00    +0.000 OA
ATOM     56  C   UNL     1     112.113 131.635 142.905  0.00  0.00    +0.000 C 
ENDBRANCH  53  56
ENDBRANCH  44  52
ENDBRANCH   8  44
TORSDOF 10
ENDMDL
MODEL 9
REMARK VINA RESULT:     -10.4      1.764      3.536
REMARK  Name = 44259171
REMARK  10 active torsions:
REMARK  status: ('A' for Active; 'I' for Inactive)
REMARK    1  A    between atoms: O_3  and  C_29
REMARK    2  A    between atoms: O_3  and  C_34
REMARK    3  A    between atoms: O_5  and  C_33
REMARK    4  A    between atoms: O_5  and  C_41
REMARK    5  A    between atoms: O_13  and  C_39
REMARK    6  A    between atoms: O_13  and  C_46
REMARK    7  A    between atoms: C_24  and  C_34
REMARK    8  A    between atoms: C_32  and  C_35
REMARK    9  A    between atoms: C_40  and  C_44
REMARK   10  A    between atoms: C_42  and  C_51
REMARK                            x       y       z     vdW  Elec       q    Type
REMARK                         _______ _______ _______ _____ _____    ______ ____
ROOT
ATOM      1  O   UNL     1     111.644 125.688 138.275  0.00  0.00    +0.000 OA
ATOM      2  O   UNL     1     110.814 127.509 136.819  0.00  0.00    +0.000 OA
ATOM      3  O   UNL     1     109.587 127.591 137.574  0.00  0.00    +0.000 OA
ATOM      4  C   UNL     1     111.832 126.568 137.165  0.00  0.00    +0.000 A 
ATOM      5  C   UNL     1     112.108 125.961 137.651  0.00  0.00    +0.000 A 
ATOM      6  C   UNL     1     111.091 126.902 137.304  0.00  0.00    +0.000 A 
ATOM      7  C   UNL     1     110.626 126.629 137.929  0.00  0.00    +0.000 A 
ATOM      8  C   UNL     1     109.655 126.072 139.219  0.00  0.00    +0.000 A 
ATOM      9  C   UNL     1     110.902 126.022 138.415  0.00  0.00    +0.000 A 
ATOM     10  C   UNL     1     110.428 125.729 139.068  0.00  0.00    +0.000 A 
ATOM     11  C   UNL     1     109.856 126.985 138.064  0.00  0.00    +0.000 A 
ATOM     12  C   UNL     1     109.367 126.705 138.713  0.00  0.00    +0.000 A 
ENDROOT
BRANCH   5  15
ATOM     13  O   UNL     1     114.848 125.619 138.391  0.00  0.00    +0.000 OA
ATOM     14  O   UNL     1     115.074 124.626 137.093  0.00  0.00    +0.000 OA
ATOM     15  C   UNL     1     112.849 125.627 137.511  0.00  0.00    +0.000 A 
ATOM     16  C   UNL     1     113.477 125.790 138.021  0.00  0.00    +0.000 A 
ATOM     17  C   UNL     1     112.963 125.130 136.863  0.00  0.00    +0.000 A 
ATOM     18  C   UNL     1     114.219 125.456 137.882  0.00  0.00    +0.000 A 
ATOM     19  C   UNL     1     113.704 124.797 136.723  0.00  0.00    +0.000 A 
ATOM     20  C   UNL     1     114.332 124.960 137.233  0.00  0.00    +0.000 A 
ENDBRANCH   5  15
BRANCH   4  21
ATOM     21  O   UNL     1     112.296 126.841 136.541  0.00  0.00    +0.000 OA
BRANCH  21  30
ATOM     22  O   UNL     1     112.751 128.014 137.218  0.00  0.00    +0.000 OA
ATOM     23  O   UNL     1     113.262 129.996 136.458  0.00  0.00    +0.000 OA
ATOM     24  O   UNL     1     112.836 129.227 135.062  0.00  0.00    +0.000 OA
ATOM     25  O   UNL     1     112.352 127.649 135.103  0.00  0.00    +0.000 OA
ATOM     26  C   UNL     1     112.992 128.802 137.197  0.00  0.00    +0.000 C 
ATOM     27  C   UNL     1     113.021 129.207 136.479  0.00  0.00    +0.000 C 
ATOM     28  C   UNL     1     112.807 128.822 135.780  0.00  0.00    +0.000 C 
ATOM     29  C   UNL     1     112.565 128.033 135.801  0.00  0.00    +0.000 C 
ATOM     30  C   UNL     1     112.537 127.630 136.520  0.00  0.00    +0.000 C 
BRANCH  26  31
ATOM     31  C   UNL     1     113.206 129.187 137.895  0.00  0.00    +0.000 C 
BRANCH  31  32
ATOM     32  O   UNL     1     112.646 129.306 138.489  0.00  0.00    +0.000 OA
BRANCH  32  38
ATOM     33  O   UNL     1     113.412 128.915 139.630  0.00  0.00    +0.000 OA
ATOM     34  O   UNL     1     112.095 130.626 139.311  0.00  0.00    +0.000 OA
ATOM     35  O   UNL     1     112.585 130.896 140.863  0.00  0.00    +0.000 OA
ATOM     36  O   UNL     1     113.627 129.845 141.593  0.00  0.00    +0.000 OA
ATOM     37  C   UNL     1     112.616 130.100 139.676  0.00  0.00    +0.000 C 
ATOM     38  C   UNL     1     112.892 129.440 139.265  0.00  0.00    +0.000 C 
ATOM     39  C   UNL     1     112.861 130.236 140.452  0.00  0.00    +0.000 C 
ATOM     40  C   UNL     1     113.382 129.710 140.818  0.00  0.00    +0.000 C 
ATOM     41  C   UNL     1     113.658 129.050 140.407  0.00  0.00    +0.000 C 
BRANCH  41  43
ATOM     42  O   UNL     1     114.005 127.719 140.791  0.00  0.00    +0.000 OA
ATOM     43  C   UNL     1     114.179 128.525 140.772  0.00  0.00    +0.000 C 
ENDBRANCH  41  43
ENDBRANCH  32  38
ENDBRANCH  31  32
ENDBRANCH  26  31
ENDBRANCH  21  30
ENDBRANCH   4  21
BRANCH   8  44
ATOM     44  O   UNL     1     109.192 125.797 139.844  0.00  0.00    +0.000 OA
BRANCH  44  52
ATOM     45  O   UNL     1     109.732 126.701 140.811  0.00  0.00    +0.000 OA
ATOM     46  O   UNL     1     107.550 126.756 141.977  0.00  0.00    +0.000 OA
ATOM     47  O   UNL     1     107.737 125.834 140.622  0.00  0.00    +0.000 OA
ATOM     48  O   UNL     1     108.817 127.641 142.555  0.00  0.00    +0.000 OA
ATOM     49  C   UNL     1     108.277 126.738 141.588  0.00  0.00    +0.000 C 
ATOM     50  C   UNL     1     108.371 126.277 140.910  0.00  0.00    +0.000 C 
ATOM     51  C   UNL     1     108.911 127.180 141.877  0.00  0.00    +0.000 C 
ATOM     52  C   UNL     1     109.099 126.258 140.522  0.00  0.00    +0.000 C 
ATOM     53  C   UNL     1     109.638 127.161 141.488  0.00  0.00    +0.000 C 
BRANCH  53  56
ATOM     54  O   UNL     1     110.869 127.234 142.210  0.00  0.00    +0.000 OA
ATOM     55  O   UNL     1     110.309 128.415 141.633  0.00  0.00    +0.000 OA
ATOM     56  C   UNL     1     110.272 127.603 141.777  0.00  0.00    +0.000 C 
ENDBRANCH  53  56
ENDBRANCH  44  52
ENDBRANCH   8  44
TORSDOF 10
ENDMDL
MODEL 10
REMARK VINA RESULT:     -10.4      1.846      3.858
REMARK  Name = 44259171
REMARK  10 active torsions:
REMARK  status: ('A' for Active; 'I' for Inactive)
REMARK    1  A    between atoms: O_3  and  C_29
REMARK    2  A    between atoms: O_3  and  C_34
REMARK    3  A    between atoms: O_5  and  C_33
REMARK    4  A    between atoms: O_5  and  C_41
REMARK    5  A    between atoms: O_13  and  C_39
REMARK    6  A    between atoms: O_13  and  C_46
REMARK    7  A    between atoms: C_24  and  C_34
REMARK    8  A    between atoms: C_32  and  C_35
REMARK    9  A    between atoms: C_40  and  C_44
REMARK   10  A    between atoms: C_42  and  C_51
REMARK                            x       y       z     vdW  Elec       q    Type
REMARK                         _______ _______ _______ _____ _____    ______ ____
ROOT
ATOM      1  O   UNL     1     112.064 129.422 138.856  0.00  0.00    +0.000 OA
ATOM      2  O   UNL     1     109.606 129.561 138.600  0.00  0.00    +0.000 OA
ATOM      3  O   UNL     1     109.414 129.212 139.987  0.00  0.00    +0.000 OA
ATOM      4  C   UNL     1     110.917 129.665 138.040  0.00  0.00    +0.000 A 
ATOM      5  C   UNL     1     111.736 129.618 138.125  0.00  0.00    +0.000 A 
ATOM      6  C   UNL     1     110.425 129.514 138.685  0.00  0.00    +0.000 A 
ATOM      7  C   UNL     1     110.754 129.318 139.417  0.00  0.00    +0.000 A 
ATOM      8  C   UNL     1     111.421 128.910 140.934  0.00  0.00    +0.000 A 
ATOM      9  C   UNL     1     111.573 129.272 139.502  0.00  0.00    +0.000 A 
ATOM     10  C   UNL     1     111.927 129.068 140.257  0.00  0.00    +0.000 A 
ATOM     11  C   UNL     1     110.232 129.164 140.081  0.00  0.00    +0.000 A 
ATOM     12  C   UNL     1     110.568 128.958 140.846  0.00  0.00    +0.000 A 
ENDROOT
BRANCH   5  15
ATOM     13  O   UNL     1     113.472 128.670 136.062  0.00  0.00    +0.000 OA
ATOM     14  O   UNL     1     113.700 130.219 135.542  0.00  0.00    +0.000 OA
ATOM     15  C   UNL     1     112.227 129.768 137.480  0.00  0.00    +0.000 A 
ATOM     16  C   UNL     1     112.604 129.144 137.094  0.00  0.00    +0.000 A 
ATOM     17  C   UNL     1     112.341 130.543 137.219  0.00  0.00    +0.000 A 
ATOM     18  C   UNL     1     113.095 129.294 136.448  0.00  0.00    +0.000 A 
ATOM     19  C   UNL     1     112.831 130.693 136.573  0.00  0.00    +0.000 A 
ATOM     20  C   UNL     1     113.208 130.069 136.188  0.00  0.00    +0.000 A 
ENDBRANCH   5  15
BRANCH   4  21
ATOM     21  O   UNL     1     110.588 129.861 137.309  0.00  0.00    +0.000 OA
BRANCH  21  30
ATOM     22  O   UNL     1     110.170 128.530 137.001  0.00  0.00    +0.000 OA
ATOM     23  O   UNL     1     108.472 127.798 135.842  0.00  0.00    +0.000 OA
ATOM     24  O   UNL     1     108.250 129.429 135.724  0.00  0.00    +0.000 OA
ATOM     25  O   UNL     1     109.308 130.460 136.458  0.00  0.00    +0.000 OA
ATOM     26  C   UNL     1     109.641 128.015 136.634  0.00  0.00    +0.000 C 
ATOM     27  C   UNL     1     109.001 128.314 136.209  0.00  0.00    +0.000 C 
ATOM     28  C   UNL     1     108.890 129.130 136.150  0.00  0.00    +0.000 C 
ATOM     29  C   UNL     1     109.419 129.645 136.517  0.00  0.00    +0.000 C 
ATOM     30  C   UNL     1     110.059 129.345 136.942  0.00  0.00    +0.000 C 
BRANCH  26  31
ATOM     31  C   UNL     1     109.751 127.199 136.693  0.00  0.00    +0.000 C 
BRANCH  31  32
ATOM     32  O   UNL     1     110.445 126.855 136.408  0.00  0.00    +0.000 OA
BRANCH  32  38
ATOM     33  O   UNL     1     110.741 126.076 137.569  0.00  0.00    +0.000 OA
ATOM     34  O   UNL     1     110.991 125.630 135.447  0.00  0.00    +0.000 OA
ATOM     35  O   UNL     1     111.560 124.239 136.128  0.00  0.00    +0.000 OA
ATOM     36  O   UNL     1     111.584 124.073 137.769  0.00  0.00    +0.000 OA
ATOM     37  C   UNL     1     111.002 125.547 136.269  0.00  0.00    +0.000 C 
ATOM     38  C   UNL     1     110.729 126.159 136.749  0.00  0.00    +0.000 C 
ATOM     39  C   UNL     1     111.287 124.851 136.608  0.00  0.00    +0.000 C 
ATOM     40  C   UNL     1     111.299 124.768 137.430  0.00  0.00    +0.000 C 
ATOM     41  C   UNL     1     111.026 125.381 137.910  0.00  0.00    +0.000 C 
BRANCH  41  43
ATOM     42  O   UNL     1     111.456 125.838 139.193  0.00  0.00    +0.000 OA
ATOM     43  C   UNL     1     111.038 125.298 138.730  0.00  0.00    +0.000 C 
ENDBRANCH  41  43
ENDBRANCH  32  38
ENDBRANCH  31  32
ENDBRANCH  26  31
ENDBRANCH  21  30
ENDBRANCH   4  21
BRANCH   8  44
ATOM     44  O   UNL     1     111.752 128.714 141.664  0.00  0.00    +0.000 OA
BRANCH  44  52
ATOM     45  O   UNL     1     111.960 130.061 142.094  0.00  0.00    +0.000 OA
ATOM     46  O   UNL     1     111.504 129.384 144.431  0.00  0.00    +0.000 OA
ATOM     47  O   UNL     1     111.449 128.262 143.222  0.00  0.00    +0.000 OA
ATOM     48  O   UNL     1     111.864 130.956 144.083  0.00  0.00    +0.000 OA
ATOM     49  C   UNL     1     111.656 129.609 143.652  0.00  0.00    +0.000 C 
ATOM     50  C   UNL     1     111.628 129.048 143.048  0.00  0.00    +0.000 C 
ATOM     51  C   UNL     1     111.836 130.395 143.478  0.00  0.00    +0.000 C 
ATOM     52  C   UNL     1     111.780 129.275 142.269  0.00  0.00    +0.000 C 
ATOM     53  C   UNL     1     111.987 130.621 142.699  0.00  0.00    +0.000 C 
BRANCH  53  56
ATOM     54  O   UNL     1     111.559 131.950 142.398  0.00  0.00    +0.000 OA
ATOM     55  O   UNL     1     112.954 131.650 142.477  0.00  0.00    +0.000 OA
ATOM     56  C   UNL     1     112.167 131.407 142.525  0.00  0.00    +0.000 C 
ENDBRANCH  53  56
ENDBRANCH  44  52
ENDBRANCH   8  44
TORSDOF 10
ENDMDL
