MODEL 1
REMARK VINA RESULT:      -9.9      0.000      0.000
REMARK  Name = 44257190
REMARK  3 active torsions:
REMARK  status: ('A' for Active; 'I' for Inactive)
REMARK    1  A    between atoms: O_2  and  C_12
REMARK    2  A    between atoms: O_2  and  C_19
REMARK    3  A    between atoms: C_17  and  C_21
REMARK                            x       y       z     vdW  Elec       q    Type
REMARK                         _______ _______ _______ _____ _____    ______ ____
ROOT
ATOM      1  O   UNL     1     104.898 123.551 139.296  0.00  0.00    +0.000 OA
ATOM      2  O   UNL     1     107.119 123.011 141.051  0.00  0.00    +0.000 OA
ATOM      3  C   UNL     1     104.369 124.933 139.184  0.00  0.00    +0.000 C 
ATOM      4  C   UNL     1     104.960 125.195 139.750  0.00  0.00    +0.000 C 
ATOM      5  C   UNL     1     104.338 124.105 138.955  0.00  0.00    +0.000 C 
ATOM      6  C   UNL     1     105.512 124.625 140.081  0.00  0.00    +0.000 A 
ATOM      7  C   UNL     1     106.077 124.881 140.624  0.00  0.00    +0.000 A 
ATOM      8  C   UNL     1     105.483 123.830 139.861  0.00  0.00    +0.000 A 
ATOM      9  C   UNL     1     106.613 124.344 140.948  0.00  0.00    +0.000 A 
ATOM     10  C   UNL     1     106.018 123.292 140.184  0.00  0.00    +0.000 A 
ATOM     11  C   UNL     1     106.583 123.549 140.728  0.00  0.00    +0.000 A 
ENDROOT
BRANCH   5  14
ATOM     12  O   UNL     1     101.607 123.639 138.256  0.00  0.00    +0.000 OA
ATOM     13  O   UNL     1     102.081 123.067 136.783  0.00  0.00    +0.000 OA
ATOM     14  C   UNL     1     103.774 123.845 138.412  0.00  0.00    +0.000 A 
ATOM     15  C   UNL     1     102.972 123.872 138.606  0.00  0.00    +0.000 A 
ATOM     16  C   UNL     1     104.011 123.560 137.675  0.00  0.00    +0.000 A 
ATOM     17  C   UNL     1     102.408 123.612 138.062  0.00  0.00    +0.000 A 
ATOM     18  C   UNL     1     103.447 123.300 137.132  0.00  0.00    +0.000 A 
ATOM     19  C   UNL     1     102.646 123.326 137.326  0.00  0.00    +0.000 A 
ENDBRANCH   5  14
BRANCH   7  20
ATOM     20  O   UNL     1     106.107 125.676 140.843  0.00  0.00    +0.000 OA
BRANCH  20  27
ATOM     21  O   UNL     1     105.895 125.558 142.252  0.00  0.00    +0.000 OA
ATOM     22  O   UNL     1     107.338 126.740 141.117  0.00  0.00    +0.000 OA
ATOM     23  O   UNL     1     107.742 127.154 142.662  0.00  0.00    +0.000 OA
ATOM     24  O   UNL     1     106.915 126.505 143.934  0.00  0.00    +0.000 OA
ATOM     25  C   UNL     1     106.924 126.415 141.753  0.00  0.00    +0.000 C 
ATOM     26  C   UNL     1     107.126 126.622 142.526  0.00  0.00    +0.000 C 
ATOM     27  C   UNL     1     106.309 125.883 141.617  0.00  0.00    +0.000 C 
ATOM     28  C   UNL     1     106.712 126.297 143.161  0.00  0.00    +0.000 C 
ATOM     29  C   UNL     1     106.097 125.766 143.024  0.00  0.00    +0.000 C 
ENDBRANCH  20  27
ENDBRANCH   7  20
TORSDOF 3
ENDMDL
MODEL 2
REMARK VINA RESULT:      -9.5      7.582      9.131
REMARK  Name = 44257190
REMARK  3 active torsions:
REMARK  status: ('A' for Active; 'I' for Inactive)
REMARK    1  A    between atoms: O_2  and  C_12
REMARK    2  A    between atoms: O_2  and  C_19
REMARK    3  A    between atoms: C_17  and  C_21
REMARK                            x       y       z     vdW  Elec       q    Type
REMARK                         _______ _______ _______ _____ _____    ______ ____
ROOT
ATOM      1  O   UNL     1     112.065 125.846 136.071  0.00  0.00    +0.000 OA
ATOM      2  O   UNL     1     109.578 125.811 134.618  0.00  0.00    +0.000 OA
ATOM      3  C   UNL     1     112.648 127.143 136.498  0.00  0.00    +0.000 C 
ATOM      4  C   UNL     1     111.983 127.550 136.138  0.00  0.00    +0.000 C 
ATOM      5  C   UNL     1     112.690 126.284 136.464  0.00  0.00    +0.000 C 
ATOM      6  C   UNL     1     111.368 127.094 135.748  0.00  0.00    +0.000 A 
ATOM      7  C   UNL     1     110.732 127.489 135.404  0.00  0.00    +0.000 A 
ATOM      8  C   UNL     1     111.407 126.270 135.716  0.00  0.00    +0.000 A 
ATOM      9  C   UNL     1     110.134 127.063 135.027  0.00  0.00    +0.000 A 
ATOM     10  C   UNL     1     110.811 125.842 135.339  0.00  0.00    +0.000 A 
ATOM     11  C   UNL     1     110.174 126.239 134.994  0.00  0.00    +0.000 A 
ENDROOT
BRANCH   5  14
ATOM     12  O   UNL     1     115.237 125.012 136.220  0.00  0.00    +0.000 OA
ATOM     13  O   UNL     1     115.232 124.689 137.838  0.00  0.00    +0.000 OA
ATOM     14  C   UNL     1     113.325 125.886 136.808  0.00  0.00    +0.000 A 
ATOM     15  C   UNL     1     113.963 125.648 136.342  0.00  0.00    +0.000 A 
ATOM     16  C   UNL     1     113.322 125.724 137.617  0.00  0.00    +0.000 A 
ATOM     17  C   UNL     1     114.599 125.250 136.686  0.00  0.00    +0.000 A 
ATOM     18  C   UNL     1     113.957 125.325 137.961  0.00  0.00    +0.000 A 
ATOM     19  C   UNL     1     114.596 125.088 137.495  0.00  0.00    +0.000 A 
ENDBRANCH   5  14
BRANCH   7  20
ATOM     20  O   UNL     1     110.692 128.313 135.436  0.00  0.00    +0.000 OA
BRANCH  20  27
ATOM     21  O   UNL     1     109.452 128.373 136.146  0.00  0.00    +0.000 OA
ATOM     22  O   UNL     1     110.287 129.684 134.612  0.00  0.00    +0.000 OA
ATOM     23  O   UNL     1     108.846 130.430 134.910  0.00  0.00    +0.000 OA
ATOM     24  O   UNL     1     107.809 129.805 136.031  0.00  0.00    +0.000 OA
ATOM     25  C   UNL     1     109.769 129.371 135.173  0.00  0.00    +0.000 C 
ATOM     26  C   UNL     1     109.048 129.744 135.322  0.00  0.00    +0.000 C 
ATOM     27  C   UNL     1     109.971 128.686 135.585  0.00  0.00    +0.000 C 
ATOM     28  C   UNL     1     108.530 129.431 135.883  0.00  0.00    +0.000 C 
ATOM     29  C   UNL     1     108.732 128.746 136.294  0.00  0.00    +0.000 C 
ENDBRANCH  20  27
ENDBRANCH   7  20
TORSDOF 3
ENDMDL
MODEL 3
REMARK VINA RESULT:      -9.4      8.061      9.299
REMARK  Name = 44257190
REMARK  3 active torsions:
REMARK  status: ('A' for Active; 'I' for Inactive)
REMARK    1  A    between atoms: O_2  and  C_12
REMARK    2  A    between atoms: O_2  and  C_19
REMARK    3  A    between atoms: C_17  and  C_21
REMARK                            x       y       z     vdW  Elec       q    Type
REMARK                         _______ _______ _______ _____ _____    ______ ____
ROOT
ATOM      1  O   UNL     1     113.072 127.386 137.802  0.00  0.00    +0.000 OA
ATOM      2  O   UNL     1     112.650 130.231 137.632  0.00  0.00    +0.000 OA
ATOM      3  C   UNL     1     113.433 126.773 139.105  0.00  0.00    +0.000 C 
ATOM      4  C   UNL     1     113.405 127.552 139.468  0.00  0.00    +0.000 C 
ATOM      5  C   UNL     1     113.265 126.690 138.266  0.00  0.00    +0.000 C 
ATOM      6  C   UNL     1     113.209 128.237 138.987  0.00  0.00    +0.000 A 
ATOM      7  C   UNL     1     113.184 128.981 139.340  0.00  0.00    +0.000 A 
ATOM      8  C   UNL     1     113.048 128.157 138.182  0.00  0.00    +0.000 A 
ATOM      9  C   UNL     1     112.997 129.647 138.889  0.00  0.00    +0.000 A 
ATOM     10  C   UNL     1     112.862 128.821 137.730  0.00  0.00    +0.000 A 
ATOM     11  C   UNL     1     112.836 129.567 138.084  0.00  0.00    +0.000 A 
ENDROOT
BRANCH   5  14
ATOM     12  O   UNL     1     111.914 124.380 137.263  0.00  0.00    +0.000 OA
ATOM     13  O   UNL     1     113.364 123.715 136.840  0.00  0.00    +0.000 OA
ATOM     14  C   UNL     1     113.290 125.946 137.909  0.00  0.00    +0.000 A 
ATOM     15  C   UNL     1     112.590 125.535 137.765  0.00  0.00    +0.000 A 
ATOM     16  C   UNL     1     114.015 125.614 137.698  0.00  0.00    +0.000 A 
ATOM     17  C   UNL     1     112.615 124.791 137.408  0.00  0.00    +0.000 A 
ATOM     18  C   UNL     1     114.040 124.871 137.342  0.00  0.00    +0.000 A 
ATOM     19  C   UNL     1     113.340 124.459 137.197  0.00  0.00    +0.000 A 
ENDBRANCH   5  14
BRANCH   7  20
ATOM     20  O   UNL     1     113.345 129.061 140.145  0.00  0.00    +0.000 OA
BRANCH  20  27
ATOM     21  O   UNL     1     114.526 129.861 140.055  0.00  0.00    +0.000 OA
ATOM     22  O   UNL     1     112.812 129.990 141.401  0.00  0.00    +0.000 OA
ATOM     23  O   UNL     1     113.726 131.254 141.938  0.00  0.00    +0.000 OA
ATOM     24  O   UNL     1     115.174 131.589 141.220  0.00  0.00    +0.000 OA
ATOM     25  C   UNL     1     113.536 130.158 141.042  0.00  0.00    +0.000 C 
ATOM     26  C   UNL     1     113.993 130.789 141.310  0.00  0.00    +0.000 C 
ATOM     27  C   UNL     1     113.802 129.694 140.414  0.00  0.00    +0.000 C 
ATOM     28  C   UNL     1     114.717 130.957 140.951  0.00  0.00    +0.000 C 
ATOM     29  C   UNL     1     114.983 130.493 140.324  0.00  0.00    +0.000 C 
ENDBRANCH  20  27
ENDBRANCH   7  20
TORSDOF 3
ENDMDL
MODEL 4
REMARK VINA RESULT:      -9.2      8.588      9.951
REMARK  Name = 44257190
REMARK  3 active torsions:
REMARK  status: ('A' for Active; 'I' for Inactive)
REMARK    1  A    between atoms: O_2  and  C_12
REMARK    2  A    between atoms: O_2  and  C_19
REMARK    3  A    between atoms: C_17  and  C_21
REMARK                            x       y       z     vdW  Elec       q    Type
REMARK                         _______ _______ _______ _____ _____    ______ ____
ROOT
ATOM      1  O   UNL     1     112.125 126.654 136.026  0.00  0.00    +0.000 OA
ATOM      2  O   UNL     1     111.472 129.099 134.649  0.00  0.00    +0.000 OA
ATOM      3  C   UNL     1     113.303 126.611 136.928  0.00  0.00    +0.000 C 
ATOM      4  C   UNL     1     113.460 127.436 136.747  0.00  0.00    +0.000 C 
ATOM      5  C   UNL     1     112.631 126.217 136.565  0.00  0.00    +0.000 C 
ATOM      6  C   UNL     1     112.942 127.857 136.205  0.00  0.00    +0.000 A 
ATOM      7  C   UNL     1     113.097 128.649 136.035  0.00  0.00    +0.000 A 
ATOM      8  C   UNL     1     112.297 127.479 135.857  0.00  0.00    +0.000 A 
ATOM      9  C   UNL     1     112.607 129.063 135.517  0.00  0.00    +0.000 A 
ATOM     10  C   UNL     1     111.807 127.893 135.338  0.00  0.00    +0.000 A 
ATOM     11  C   UNL     1     111.962 128.685 135.168  0.00  0.00    +0.000 A 
ENDROOT
BRANCH   5  14
ATOM     12  O   UNL     1     111.211 124.240 138.063  0.00  0.00    +0.000 OA
ATOM     13  O   UNL     1     112.000 123.048 137.239  0.00  0.00    +0.000 OA
ATOM     14  C   UNL     1     112.473 125.425 136.733  0.00  0.00    +0.000 A 
ATOM     15  C   UNL     1     111.921 125.229 137.314  0.00  0.00    +0.000 A 
ATOM     16  C   UNL     1     112.868 124.829 136.321  0.00  0.00    +0.000 A 
ATOM     17  C   UNL     1     111.763 124.437 137.483  0.00  0.00    +0.000 A 
ATOM     18  C   UNL     1     112.710 124.037 136.489  0.00  0.00    +0.000 A 
ATOM     19  C   UNL     1     112.158 123.841 137.070  0.00  0.00    +0.000 A 
ENDBRANCH   5  14
BRANCH   7  20
ATOM     20  O   UNL     1     113.742 129.027 136.384  0.00  0.00    +0.000 OA
BRANCH  20  27
ATOM     21  O   UNL     1     114.517 129.307 135.216  0.00  0.00    +0.000 OA
ATOM     22  O   UNL     1     114.041 130.548 136.947  0.00  0.00    +0.000 OA
ATOM     23  O   UNL     1     114.966 131.589 136.061  0.00  0.00    +0.000 OA
ATOM     24  O   UNL     1     115.591 131.108 134.612  0.00  0.00    +0.000 OA
ATOM     25  C   UNL     1     114.354 130.308 136.223  0.00  0.00    +0.000 C 
ATOM     26  C   UNL     1     114.816 130.828 135.779  0.00  0.00    +0.000 C 
ATOM     27  C   UNL     1     114.205 129.547 135.940  0.00  0.00    +0.000 C 
ATOM     28  C   UNL     1     115.129 130.587 135.055  0.00  0.00    +0.000 C 
ATOM     29  C   UNL     1     114.979 129.827 134.773  0.00  0.00    +0.000 C 
ENDBRANCH  20  27
ENDBRANCH   7  20
TORSDOF 3
ENDMDL
MODEL 5
REMARK VINA RESULT:      -9.1      8.846      9.808
REMARK  Name = 44257190
REMARK  3 active torsions:
REMARK  status: ('A' for Active; 'I' for Inactive)
REMARK    1  A    between atoms: O_2  and  C_12
REMARK    2  A    between atoms: O_2  and  C_19
REMARK    3  A    between atoms: C_17  and  C_21
REMARK                            x       y       z     vdW  Elec       q    Type
REMARK                         _______ _______ _______ _____ _____    ______ ____
ROOT
ATOM      1  O   UNL     1     113.647 127.346 136.258  0.00  0.00    +0.000 OA
ATOM      2  O   UNL     1     114.134 129.898 135.011  0.00  0.00    +0.000 OA
ATOM      3  C   UNL     1     112.818 127.276 137.487  0.00  0.00    +0.000 C 
ATOM      4  C   UNL     1     112.717 128.129 137.457  0.00  0.00    +0.000 C 
ATOM      5  C   UNL     1     113.286 126.882 136.883  0.00  0.00    +0.000 C 
ATOM      6  C   UNL     1     113.086 128.577 136.822  0.00  0.00    +0.000 A 
ATOM      7  C   UNL     1     112.986 129.395 136.798  0.00  0.00    +0.000 A 
ATOM      8  C   UNL     1     113.535 128.199 136.243  0.00  0.00    +0.000 A 
ATOM      9  C   UNL     1     113.336 129.836 136.194  0.00  0.00    +0.000 A 
ATOM     10  C   UNL     1     113.885 128.638 135.639  0.00  0.00    +0.000 A 
ATOM     11  C   UNL     1     113.785 129.458 135.615  0.00  0.00    +0.000 A 
ENDROOT
BRANCH   5  14
ATOM     12  O   UNL     1     114.888 124.603 137.523  0.00  0.00    +0.000 OA
ATOM     13  O   UNL     1     113.693 123.608 136.971  0.00  0.00    +0.000 OA
ATOM     14  C   UNL     1     113.388 126.064 136.905  0.00  0.00    +0.000 A 
ATOM     15  C   UNL     1     114.087 125.743 137.203  0.00  0.00    +0.000 A 
ATOM     16  C   UNL     1     112.790 125.566 136.629  0.00  0.00    +0.000 A 
ATOM     17  C   UNL     1     114.188 124.924 137.225  0.00  0.00    +0.000 A 
ATOM     18  C   UNL     1     112.891 124.748 136.651  0.00  0.00    +0.000 A 
ATOM     19  C   UNL     1     113.591 124.427 136.949  0.00  0.00    +0.000 A 
ENDBRANCH   5  14
BRANCH   7  20
ATOM     20  O   UNL     1     112.537 129.773 137.377  0.00  0.00    +0.000 OA
BRANCH  20  27
ATOM     21  O   UNL     1     111.463 130.168 136.521  0.00  0.00    +0.000 OA
ATOM     22  O   UNL     1     112.382 131.182 138.221  0.00  0.00    +0.000 OA
ATOM     23  O   UNL     1     111.232 132.282 137.787  0.00  0.00    +0.000 OA
ATOM     24  O   UNL     1     110.236 131.973 136.508  0.00  0.00    +0.000 OA
ATOM     25  C   UNL     1     111.884 131.027 137.582  0.00  0.00    +0.000 C 
ATOM     26  C   UNL     1     111.309 131.577 137.364  0.00  0.00    +0.000 C 
ATOM     27  C   UNL     1     111.961 130.323 137.160  0.00  0.00    +0.000 C 
ATOM     28  C   UNL     1     110.811 131.422 136.725  0.00  0.00    +0.000 C 
ATOM     29  C   UNL     1     110.888 130.718 136.304  0.00  0.00    +0.000 C 
ENDBRANCH  20  27
ENDBRANCH   7  20
TORSDOF 3
ENDMDL
MODEL 6
REMARK VINA RESULT:      -9.0      7.718      9.505
REMARK  Name = 44257190
REMARK  3 active torsions:
REMARK  status: ('A' for Active; 'I' for Inactive)
REMARK    1  A    between atoms: O_2  and  C_12
REMARK    2  A    between atoms: O_2  and  C_19
REMARK    3  A    between atoms: C_17  and  C_21
REMARK                            x       y       z     vdW  Elec       q    Type
REMARK                         _______ _______ _______ _____ _____    ______ ____
ROOT
ATOM      1  O   UNL     1     113.348 127.791 136.763  0.00  0.00    +0.000 OA
ATOM      2  O   UNL     1     112.829 130.602 136.406  0.00  0.00    +0.000 OA
ATOM      3  C   UNL     1     112.278 126.804 136.472  0.00  0.00    +0.000 C 
ATOM      4  C   UNL     1     111.755 127.449 136.255  0.00  0.00    +0.000 C 
ATOM      5  C   UNL     1     113.081 126.976 136.727  0.00  0.00    +0.000 C 
ATOM      6  C   UNL     1     112.040 128.259 136.297  0.00  0.00    +0.000 A 
ATOM      7  C   UNL     1     111.533 128.875 136.089  0.00  0.00    +0.000 A 
ATOM      8  C   UNL     1     112.810 128.424 136.542  0.00  0.00    +0.000 A 
ATOM      9  C   UNL     1     111.795 129.656 136.124  0.00  0.00    +0.000 A 
ATOM     10  C   UNL     1     113.074 129.205 136.579  0.00  0.00    +0.000 A 
ATOM     11  C   UNL     1     112.566 129.822 136.370  0.00  0.00    +0.000 A 
ENDROOT
BRANCH   5  14
ATOM     12  O   UNL     1     115.117 125.099 136.020  0.00  0.00    +0.000 OA
ATOM     13  O   UNL     1     115.120 124.519 137.565  0.00  0.00    +0.000 OA
ATOM     14  C   UNL     1     113.591 126.362 136.937  0.00  0.00    +0.000 A 
ATOM     15  C   UNL     1     114.099 126.037 136.374  0.00  0.00    +0.000 A 
ATOM     16  C   UNL     1     113.592 126.072 137.709  0.00  0.00    +0.000 A 
ATOM     17  C   UNL     1     114.609 125.423 136.583  0.00  0.00    +0.000 A 
ATOM     18  C   UNL     1     114.102 125.458 137.919  0.00  0.00    +0.000 A 
ATOM     19  C   UNL     1     114.610 125.134 137.356  0.00  0.00    +0.000 A 
ENDBRANCH   5  14
BRANCH   7  20
ATOM     20  O   UNL     1     110.763 128.710 135.843  0.00  0.00    +0.000 OA
BRANCH  20  27
ATOM     21  O   UNL     1     110.098 129.304 136.961  0.00  0.00    +0.000 OA
ATOM     22  O   UNL     1     109.561 129.241 134.846  0.00  0.00    +0.000 OA
ATOM     23  O   UNL     1     108.295 130.100 135.465  0.00  0.00    +0.000 OA
ATOM     24  O   UNL     1     108.232 130.428 137.081  0.00  0.00    +0.000 OA
ATOM     25  C   UNL     1     109.529 129.405 135.654  0.00  0.00    +0.000 C 
ATOM     26  C   UNL     1     108.897 129.834 135.964  0.00  0.00    +0.000 C 
ATOM     27  C   UNL     1     110.130 129.140 136.153  0.00  0.00    +0.000 C 
ATOM     28  C   UNL     1     108.865 129.998 136.772  0.00  0.00    +0.000 C 
ATOM     29  C   UNL     1     109.466 129.733 137.270  0.00  0.00    +0.000 C 
ENDBRANCH  20  27
ENDBRANCH   7  20
TORSDOF 3
ENDMDL
MODEL 7
REMARK VINA RESULT:      -9.0      4.421      7.198
REMARK  Name = 44257190
REMARK  3 active torsions:
REMARK  status: ('A' for Active; 'I' for Inactive)
REMARK    1  A    between atoms: O_2  and  C_12
REMARK    2  A    between atoms: O_2  and  C_19
REMARK    3  A    between atoms: C_17  and  C_21
REMARK                            x       y       z     vdW  Elec       q    Type
REMARK                         _______ _______ _______ _____ _____    ______ ____
ROOT
ATOM      1  O   UNL     1     106.445 124.809 146.089  0.00  0.00    +0.000 OA
ATOM      2  O   UNL     1     105.332 124.187 143.505  0.00  0.00    +0.000 OA
ATOM      3  C   UNL     1     106.734 126.221 146.444  0.00  0.00    +0.000 C 
ATOM      4  C   UNL     1     106.445 126.464 145.672  0.00  0.00    +0.000 C 
ATOM      5  C   UNL     1     106.734 125.387 146.654  0.00  0.00    +0.000 C 
ATOM      6  C   UNL     1     106.160 125.870 145.120  0.00  0.00    +0.000 A 
ATOM      7  C   UNL     1     105.884 126.109 144.381  0.00  0.00    +0.000 A 
ATOM      8  C   UNL     1     106.160 125.070 145.321  0.00  0.00    +0.000 A 
ATOM      9  C   UNL     1     105.608 125.548 143.842  0.00  0.00    +0.000 A 
ATOM     10  C   UNL     1     105.884 124.509 144.784  0.00  0.00    +0.000 A 
ATOM     11  C   UNL     1     105.608 124.748 144.043  0.00  0.00    +0.000 A 
ENDROOT
BRANCH   5  14
ATOM     12  O   UNL     1     106.224 124.338 149.263  0.00  0.00    +0.000 OA
ATOM     13  O   UNL     1     107.835 124.420 149.611  0.00  0.00    +0.000 OA
ATOM     14  C   UNL     1     107.009 125.145 147.393  0.00  0.00    +0.000 A 
ATOM     15  C   UNL     1     106.479 124.863 147.958  0.00  0.00    +0.000 A 
ATOM     16  C   UNL     1     107.815 125.186 147.567  0.00  0.00    +0.000 A 
ATOM     17  C   UNL     1     106.754 124.621 148.697  0.00  0.00    +0.000 A 
ATOM     18  C   UNL     1     108.090 124.945 148.306  0.00  0.00    +0.000 A 
ATOM     19  C   UNL     1     107.560 124.662 148.871  0.00  0.00    +0.000 A 
ENDBRANCH   5  14
BRANCH   7  20
ATOM     20  O   UNL     1     105.884 126.909 144.179  0.00  0.00    +0.000 OA
BRANCH  20  27
ATOM     21  O   UNL     1     106.936 126.894 143.211  0.00  0.00    +0.000 OA
ATOM     22  O   UNL     1     105.002 127.907 143.205  0.00  0.00    +0.000 OA
ATOM     23  O   UNL     1     105.614 128.393 141.751  0.00  0.00    +0.000 OA
ATOM     24  O   UNL     1     107.106 127.879 141.271  0.00  0.00    +0.000 OA
ATOM     25  C   UNL     1     105.749 127.651 142.965  0.00  0.00    +0.000 C 
ATOM     26  C   UNL     1     106.055 127.893 142.239  0.00  0.00    +0.000 C 
ATOM     27  C   UNL     1     106.190 127.151 143.452  0.00  0.00    +0.000 C 
ATOM     28  C   UNL     1     106.801 127.636 141.998  0.00  0.00    +0.000 C 
ATOM     29  C   UNL     1     107.241 127.137 142.485  0.00  0.00    +0.000 C 
ENDBRANCH  20  27
ENDBRANCH   7  20
TORSDOF 3
ENDMDL
MODEL 8
REMARK VINA RESULT:      -9.0      4.895      6.442
REMARK  Name = 44257190
REMARK  3 active torsions:
REMARK  status: ('A' for Active; 'I' for Inactive)
REMARK    1  A    between atoms: O_2  and  C_12
REMARK    2  A    between atoms: O_2  and  C_19
REMARK    3  A    between atoms: C_17  and  C_21
REMARK                            x       y       z     vdW  Elec       q    Type
REMARK                         _______ _______ _______ _____ _____    ______ ____
ROOT
ATOM      1  O   UNL     1     103.085 130.002 141.501  0.00  0.00    +0.000 OA
ATOM      2  O   UNL     1     104.238 127.575 140.462  0.00  0.00    +0.000 OA
ATOM      3  C   UNL     1     103.420 130.443 142.879  0.00  0.00    +0.000 C 
ATOM      4  C   UNL     1     103.923 129.753 142.967  0.00  0.00    +0.000 C 
ATOM      5  C   UNL     1     102.998 130.569 142.140  0.00  0.00    +0.000 C 
ATOM      6  C   UNL     1     103.999 129.197 142.316  0.00  0.00    +0.000 A 
ATOM      7  C   UNL     1     104.483 128.536 142.407  0.00  0.00    +0.000 A 
ATOM      8  C   UNL     1     103.594 129.317 141.608  0.00  0.00    +0.000 A 
ATOM      9  C   UNL     1     104.564 127.995 141.789  0.00  0.00    +0.000 A 
ATOM     10  C   UNL     1     103.673 128.777 140.990  0.00  0.00    +0.000 A 
ATOM     11  C   UNL     1     104.159 128.115 141.080  0.00  0.00    +0.000 A 
ENDROOT
BRANCH   5  14
ATOM     12  O   UNL     1     102.624 133.262 141.259  0.00  0.00    +0.000 OA
ATOM     13  O   UNL     1     101.055 133.211 141.767  0.00  0.00    +0.000 OA
ATOM     14  C   UNL     1     102.512 131.229 142.047  0.00  0.00    +0.000 A 
ATOM     15  C   UNL     1     102.811 131.915 141.700  0.00  0.00    +0.000 A 
ATOM     16  C   UNL     1     101.727 131.203 142.301  0.00  0.00    +0.000 A 
ATOM     17  C   UNL     1     102.325 132.576 141.607  0.00  0.00    +0.000 A 
ATOM     18  C   UNL     1     101.242 131.864 142.208  0.00  0.00    +0.000 A 
ATOM     19  C   UNL     1     101.541 132.550 141.860  0.00  0.00    +0.000 A 
ENDBRANCH   5  14
BRANCH   7  20
ATOM     20  O   UNL     1     104.888 128.416 143.115  0.00  0.00    +0.000 OA
BRANCH  20  27
ATOM     21  O   UNL     1     106.226 128.423 142.611  0.00  0.00    +0.000 OA
ATOM     22  O   UNL     1     105.262 127.136 144.088  0.00  0.00    +0.000 OA
ATOM     23  O   UNL     1     106.786 126.504 144.071  0.00  0.00    +0.000 OA
ATOM     24  O   UNL     1     107.936 127.151 143.081  0.00  0.00    +0.000 OA
ATOM     25  C   UNL     1     105.837 127.460 143.593  0.00  0.00    +0.000 C 
ATOM     26  C   UNL     1     106.599 127.144 143.584  0.00  0.00    +0.000 C 
ATOM     27  C   UNL     1     105.651 128.099 143.106  0.00  0.00    +0.000 C 
ATOM     28  C   UNL     1     107.174 127.468 143.089  0.00  0.00    +0.000 C 
ATOM     29  C   UNL     1     106.987 128.107 142.603  0.00  0.00    +0.000 C 
ENDBRANCH  20  27
ENDBRANCH   7  20
TORSDOF 3
ENDMDL
MODEL 9
REMARK VINA RESULT:      -9.0      8.401     10.264
REMARK  Name = 44257190
REMARK  3 active torsions:
REMARK  status: ('A' for Active; 'I' for Inactive)
REMARK    1  A    between atoms: O_2  and  C_12
REMARK    2  A    between atoms: O_2  and  C_19
REMARK    3  A    between atoms: C_17  and  C_21
REMARK                            x       y       z     vdW  Elec       q    Type
REMARK                         _______ _______ _______ _____ _____    ______ ____
ROOT
ATOM      1  O   UNL     1     112.842 128.694 135.330  0.00  0.00    +0.000 OA
ATOM      2  O   UNL     1     110.343 127.285 135.066  0.00  0.00    +0.000 OA
ATOM      3  C   UNL     1     113.828 128.255 136.349  0.00  0.00    +0.000 C 
ATOM      4  C   UNL     1     113.290 127.630 136.588  0.00  0.00    +0.000 C 
ATOM      5  C   UNL     1     113.603 128.791 135.715  0.00  0.00    +0.000 C 
ATOM      6  C   UNL     1     112.532 127.548 136.190  0.00  0.00    +0.000 A 
ATOM      7  C   UNL     1     112.019 126.947 136.423  0.00  0.00    +0.000 A 
ATOM      8  C   UNL     1     112.316 128.062 135.582  0.00  0.00    +0.000 A 
ATOM      9  C   UNL     1     111.289 126.858 136.048  0.00  0.00    +0.000 A 
ATOM     10  C   UNL     1     111.586 127.975 135.207  0.00  0.00    +0.000 A 
ATOM     11  C   UNL     1     111.072 127.372 135.440  0.00  0.00    +0.000 A 
ENDROOT
BRANCH   5  14
ATOM     12  O   UNL     1     114.616 131.443 136.038  0.00  0.00    +0.000 OA
ATOM     13  O   UNL     1     115.649 131.203 134.774  0.00  0.00    +0.000 OA
ATOM     14  C   UNL     1     114.114 129.394 135.480  0.00  0.00    +0.000 A 
ATOM     15  C   UNL     1     114.110 130.117 135.877  0.00  0.00    +0.000 A 
ATOM     16  C   UNL     1     114.631 129.273 134.848  0.00  0.00    +0.000 A 
ATOM     17  C   UNL     1     114.621 130.720 135.641  0.00  0.00    +0.000 A 
ATOM     18  C   UNL     1     115.142 129.876 134.612  0.00  0.00    +0.000 A 
ATOM     19  C   UNL     1     115.138 130.600 135.009  0.00  0.00    +0.000 A 
ENDBRANCH   5  14
BRANCH   7  20
ATOM     20  O   UNL     1     112.235 126.433 137.031  0.00  0.00    +0.000 OA
BRANCH  20  27
ATOM     21  O   UNL     1     112.365 125.248 136.241  0.00  0.00    +0.000 OA
ATOM     22  O   UNL     1     111.556 125.548 138.247  0.00  0.00    +0.000 OA
ATOM     23  O   UNL     1     111.347 123.921 138.066  0.00  0.00    +0.000 OA
ATOM     24  O   UNL     1     111.817 123.179 136.669  0.00  0.00    +0.000 OA
ATOM     25  C   UNL     1     111.791 125.177 137.548  0.00  0.00    +0.000 C 
ATOM     26  C   UNL     1     111.687 124.364 137.457  0.00  0.00    +0.000 C 
ATOM     27  C   UNL     1     112.130 125.619 136.940  0.00  0.00    +0.000 C 
ATOM     28  C   UNL     1     111.922 123.993 136.759  0.00  0.00    +0.000 C 
ATOM     29  C   UNL     1     112.261 124.435 136.151  0.00  0.00    +0.000 C 
ENDBRANCH  20  27
ENDBRANCH   7  20
TORSDOF 3
ENDMDL
MODEL 10
REMARK VINA RESULT:      -8.9      8.662      9.650
REMARK  Name = 44257190
REMARK  3 active torsions:
REMARK  status: ('A' for Active; 'I' for Inactive)
REMARK    1  A    between atoms: O_2  and  C_12
REMARK    2  A    between atoms: O_2  and  C_19
REMARK    3  A    between atoms: C_17  and  C_21
REMARK                            x       y       z     vdW  Elec       q    Type
REMARK                         _______ _______ _______ _____ _____    ______ ____
ROOT
ATOM      1  O   UNL     1     110.013 131.381 136.322  0.00  0.00    +0.000 OA
ATOM      2  O   UNL     1     112.382 131.376 137.962  0.00  0.00    +0.000 OA
ATOM      3  C   UNL     1     109.748 130.239 135.411  0.00  0.00    +0.000 C 
ATOM      4  C   UNL     1     110.474 129.868 135.680  0.00  0.00    +0.000 C 
ATOM      5  C   UNL     1     109.515 131.002 135.735  0.00  0.00    +0.000 C 
ATOM      6  C   UNL     1     110.960 130.264 136.269  0.00  0.00    +0.000 A 
ATOM      7  C   UNL     1     111.656 129.903 136.523  0.00  0.00    +0.000 A 
ATOM      8  C   UNL     1     110.737 130.995 136.579  0.00  0.00    +0.000 A 
ATOM      9  C   UNL     1     112.131 130.273 137.088  0.00  0.00    +0.000 A 
ATOM     10  C   UNL     1     111.211 131.366 137.143  0.00  0.00    +0.000 A 
ATOM     11  C   UNL     1     111.908 131.005 137.398  0.00  0.00    +0.000 A 
ENDROOT
BRANCH   5  14
ATOM     12  O   UNL     1     106.689 131.360 135.958  0.00  0.00    +0.000 OA
ATOM     13  O   UNL     1     106.729 132.454 134.724  0.00  0.00    +0.000 OA
ATOM     14  C   UNL     1     108.819 131.365 135.482  0.00  0.00    +0.000 A 
ATOM     15  C   UNL     1     108.102 131.181 135.846  0.00  0.00    +0.000 A 
ATOM     16  C   UNL     1     108.840 131.912 134.865  0.00  0.00    +0.000 A 
ATOM     17  C   UNL     1     107.406 131.544 135.594  0.00  0.00    +0.000 A 
ATOM     18  C   UNL     1     108.144 132.275 134.612  0.00  0.00    +0.000 A 
ATOM     19  C   UNL     1     107.427 132.091 134.976  0.00  0.00    +0.000 A 
ENDBRANCH   5  14
BRANCH   7  20
ATOM     20  O   UNL     1     111.879 129.172 136.213  0.00  0.00    +0.000 OA
BRANCH  20  27
ATOM     21  O   UNL     1     113.024 129.623 135.486  0.00  0.00    +0.000 OA
ATOM     22  O   UNL     1     112.684 127.791 136.624  0.00  0.00    +0.000 OA
ATOM     23  O   UNL     1     114.231 127.552 136.102  0.00  0.00    +0.000 OA
ATOM     24  O   UNL     1     114.973 128.694 135.170  0.00  0.00    +0.000 OA
ATOM     25  C   UNL     1     113.055 128.362 136.158  0.00  0.00    +0.000 C 
ATOM     26  C   UNL     1     113.828 128.243 135.897  0.00  0.00    +0.000 C 
ATOM     27  C   UNL     1     112.653 129.053 135.952  0.00  0.00    +0.000 C 
ATOM     28  C   UNL     1     114.199 128.814 135.431  0.00  0.00    +0.000 C 
ATOM     29  C   UNL     1     113.797 129.504 135.226  0.00  0.00    +0.000 C 
ENDBRANCH  20  27
ENDBRANCH   7  20
TORSDOF 3
ENDMDL
