MODEL 1
REMARK VINA RESULT:      -8.6      0.000      0.000
REMARK  Name = 44259692
REMARK  3 active torsions:
REMARK  status: ('A' for Active; 'I' for Inactive)
REMARK    1  A    between atoms: O_2  and  C_12
REMARK    2  A    between atoms: O_6  and  C_21
REMARK    3  A    between atoms: C_10  and  C_15
REMARK                            x       y       z     vdW  Elec       q    Type
REMARK                         _______ _______ _______ _____ _____    ______ ____
ROOT
ATOM      1  O   UNL     1     105.051 124.269 147.414  0.00  0.00    +0.000 OA
ATOM      2  O   UNL     1     107.460 125.488 146.384  0.00  0.00    +0.000 OA
ATOM      3  O   UNL     1     107.336 124.650 149.179  0.00  0.00    +0.000 OA
ATOM      4  O   UNL     1     106.309 125.283 145.539  0.00  0.00    +0.000 OA
ATOM      5  C   UNL     1     106.243 124.872 146.905  0.00  0.00    +0.000 A 
ATOM      6  C   UNL     1     105.824 124.534 147.530  0.00  0.00    +0.000 A 
ATOM      7  C   UNL     1     104.698 124.343 146.671  0.00  0.00    +0.000 A 
ATOM      8  C   UNL     1     107.049 125.151 147.014  0.00  0.00    +0.000 A 
ATOM      9  C   UNL     1     105.117 124.681 146.046  0.00  0.00    +0.000 A 
ATOM     10  C   UNL     1     105.890 124.945 146.164  0.00  0.00    +0.000 A 
ATOM     11  C   UNL     1     107.422 125.077 147.785  0.00  0.00    +0.000 A 
ATOM     12  C   UNL     1     106.181 124.452 148.307  0.00  0.00    +0.000 A 
ATOM     13  C   UNL     1     106.985 124.725 148.435  0.00  0.00    +0.000 A 
ATOM     14  C   UNL     1     108.195 125.343 147.899  0.00  0.00    +0.000 C 
ENDROOT
BRANCH   7  16
ATOM     15  O   UNL     1     101.608 123.282 146.205  0.00  0.00    +0.000 OA
ATOM     16  C   UNL     1     103.925 124.078 146.555  0.00  0.00    +0.000 A 
ATOM     17  C   UNL     1     103.289 124.537 146.810  0.00  0.00    +0.000 A 
ATOM     18  C   UNL     1     103.789 123.354 146.182  0.00  0.00    +0.000 A 
ATOM     19  C   UNL     1     102.516 124.271 146.693  0.00  0.00    +0.000 A 
ATOM     20  C   UNL     1     103.017 123.089 146.066  0.00  0.00    +0.000 A 
ATOM     21  C   UNL     1     102.380 123.548 146.322  0.00  0.00    +0.000 A 
BRANCH  19  22
ATOM     22  O   UNL     1     101.880 124.729 146.949  0.00  0.00    +0.000 OA
ATOM     23  C   UNL     1     101.858 125.011 147.724  0.00  0.00    +0.000 C 
ENDBRANCH  19  22
ENDBRANCH   7  16
BRANCH   9  24
ATOM     24  O   UNL     1     104.764 124.754 145.305  0.00  0.00    +0.000 OA
ATOM     25  C   UNL     1     105.232 124.859 144.634  0.00  0.00    +0.000 C 
ENDBRANCH   9  24
TORSDOF 3
ENDMDL
MODEL 2
REMARK VINA RESULT:      -8.5      1.089      4.464
REMARK  Name = 44259692
REMARK  3 active torsions:
REMARK  status: ('A' for Active; 'I' for Inactive)
REMARK    1  A    between atoms: O_2  and  C_12
REMARK    2  A    between atoms: O_6  and  C_21
REMARK    3  A    between atoms: C_10  and  C_15
REMARK                            x       y       z     vdW  Elec       q    Type
REMARK                         _______ _______ _______ _____ _____    ______ ____
ROOT
ATOM      1  O   UNL     1     104.961 124.246 146.716  0.00  0.00    +0.000 OA
ATOM      2  O   UNL     1     102.218 124.429 147.607  0.00  0.00    +0.000 OA
ATOM      3  O   UNL     1     102.864 122.919 145.191  0.00  0.00    +0.000 OA
ATOM      4  O   UNL     1     103.283 125.072 148.337  0.00  0.00    +0.000 OA
ATOM      5  C   UNL     1     103.604 124.336 147.156  0.00  0.00    +0.000 A 
ATOM      6  C   UNL     1     104.163 124.060 146.616  0.00  0.00    +0.000 A 
ATOM      7  C   UNL     1     105.199 124.708 147.358  0.00  0.00    +0.000 A 
ATOM      8  C   UNL     1     102.770 124.148 147.062  0.00  0.00    +0.000 A 
ATOM      9  C   UNL     1     104.640 124.983 147.898  0.00  0.00    +0.000 A 
ATOM     10  C   UNL     1     103.842 124.797 147.797  0.00  0.00    +0.000 A 
ATOM     11  C   UNL     1     102.516 123.668 146.396  0.00  0.00    +0.000 A 
ATOM     12  C   UNL     1     103.927 123.578 145.944  0.00  0.00    +0.000 A 
ATOM     13  C   UNL     1     103.099 123.381 145.834  0.00  0.00    +0.000 A 
ATOM     14  C   UNL     1     101.718 123.484 146.298  0.00  0.00    +0.000 C 
ENDROOT
BRANCH   7  16
ATOM     15  O   UNL     1     108.389 125.448 147.760  0.00  0.00    +0.000 OA
ATOM     16  C   UNL     1     105.996 124.893 147.458  0.00  0.00    +0.000 A 
ATOM     17  C   UNL     1     106.342 125.488 147.003  0.00  0.00    +0.000 A 
ATOM     18  C   UNL     1     106.448 124.483 148.014  0.00  0.00    +0.000 A 
ATOM     19  C   UNL     1     107.140 125.673 147.104  0.00  0.00    +0.000 A 
ATOM     20  C   UNL     1     107.245 124.669 148.114  0.00  0.00    +0.000 A 
ATOM     21  C   UNL     1     107.592 125.264 147.659  0.00  0.00    +0.000 A 
BRANCH  19  22
ATOM     22  O   UNL     1     107.486 126.267 146.649  0.00  0.00    +0.000 OA
ATOM     23  C   UNL     1     107.103 126.992 146.555  0.00  0.00    +0.000 C 
ENDBRANCH  19  22
ENDBRANCH   7  16
BRANCH   9  24
ATOM     24  O   UNL     1     104.878 125.444 148.538  0.00  0.00    +0.000 OA
ATOM     25  C   UNL     1     104.335 125.939 148.915  0.00  0.00    +0.000 C 
ENDBRANCH   9  24
TORSDOF 3
ENDMDL
MODEL 3
REMARK VINA RESULT:      -8.3      6.900      8.239
REMARK  Name = 44259692
REMARK  3 active torsions:
REMARK  status: ('A' for Active; 'I' for Inactive)
REMARK    1  A    between atoms: O_2  and  C_12
REMARK    2  A    between atoms: O_6  and  C_21
REMARK    3  A    between atoms: C_10  and  C_15
REMARK                            x       y       z     vdW  Elec       q    Type
REMARK                         _______ _______ _______ _____ _____    ______ ____
ROOT
ATOM      1  O   UNL     1     103.352 130.200 142.340  0.00  0.00    +0.000 OA
ATOM      2  O   UNL     1     104.312 127.847 140.965  0.00  0.00    +0.000 OA
ATOM      3  O   UNL     1     105.310 128.478 143.636  0.00  0.00    +0.000 OA
ATOM      4  O   UNL     1     103.342 128.723 140.354  0.00  0.00    +0.000 OA
ATOM      5  C   UNL     1     103.827 129.036 141.660  0.00  0.00    +0.000 A 
ATOM      6  C   UNL     1     103.830 129.528 142.322  0.00  0.00    +0.000 A 
ATOM      7  C   UNL     1     102.870 130.380 141.694  0.00  0.00    +0.000 A 
ATOM      8  C   UNL     1     104.321 128.333 141.631  0.00  0.00    +0.000 A 
ATOM      9  C   UNL     1     102.867 129.887 141.032  0.00  0.00    +0.000 A 
ATOM     10  C   UNL     1     103.346 129.216 141.016  0.00  0.00    +0.000 A 
ATOM     11  C   UNL     1     104.825 128.141 142.300  0.00  0.00    +0.000 A 
ATOM     12  C   UNL     1     104.328 129.352 143.001  0.00  0.00    +0.000 A 
ATOM     13  C   UNL     1     104.829 128.654 142.989  0.00  0.00    +0.000 A 
ATOM     14  C   UNL     1     105.303 127.469 142.280  0.00  0.00    +0.000 C 
ENDROOT
BRANCH   7  16
ATOM     15  O   UNL     1     100.954 133.066 141.764  0.00  0.00    +0.000 OA
ATOM     16  C   UNL     1     102.392 131.051 141.711  0.00  0.00    +0.000 A 
ATOM     17  C   UNL     1     102.691 131.778 141.461  0.00  0.00    +0.000 A 
ATOM     18  C   UNL     1     101.613 130.996 141.979  0.00  0.00    +0.000 A 
ATOM     19  C   UNL     1     102.211 132.450 141.479  0.00  0.00    +0.000 A 
ATOM     20  C   UNL     1     101.134 131.668 141.997  0.00  0.00    +0.000 A 
ATOM     21  C   UNL     1     101.434 132.395 141.747  0.00  0.00    +0.000 A 
BRANCH  19  22
ATOM     22  O   UNL     1     102.511 133.177 141.229  0.00  0.00    +0.000 OA
ATOM     23  C   UNL     1     103.299 133.371 141.376  0.00  0.00    +0.000 C 
ENDBRANCH  19  22
ENDBRANCH   7  16
BRANCH   9  24
ATOM     24  O   UNL     1     102.385 130.067 140.387  0.00  0.00    +0.000 OA
ATOM     25  C   UNL     1     102.229 129.492 139.816  0.00  0.00    +0.000 C 
ENDBRANCH   9  24
TORSDOF 3
ENDMDL
MODEL 4
REMARK VINA RESULT:      -8.3      1.006      4.168
REMARK  Name = 44259692
REMARK  3 active torsions:
REMARK  status: ('A' for Active; 'I' for Inactive)
REMARK    1  A    between atoms: O_2  and  C_12
REMARK    2  A    between atoms: O_6  and  C_21
REMARK    3  A    between atoms: C_10  and  C_15
REMARK                            x       y       z     vdW  Elec       q    Type
REMARK                         _______ _______ _______ _____ _____    ______ ____
ROOT
ATOM      1  O   UNL     1     104.692 124.843 146.953  0.00  0.00    +0.000 OA
ATOM      2  O   UNL     1     103.323 122.998 145.201  0.00  0.00    +0.000 OA
ATOM      3  O   UNL     1     102.185 123.637 147.814  0.00  0.00    +0.000 OA
ATOM      4  O   UNL     1     104.566 123.614 144.808  0.00  0.00    +0.000 OA
ATOM      5  C   UNL     1     104.014 123.930 146.087  0.00  0.00    +0.000 A 
ATOM      6  C   UNL     1     104.056 124.340 146.802  0.00  0.00    +0.000 A 
ATOM      7  C   UNL     1     105.287 124.936 146.388  0.00  0.00    +0.000 A 
ATOM      8  C   UNL     1     103.356 123.403 145.918  0.00  0.00    +0.000 A 
ATOM      9  C   UNL     1     105.245 124.526 145.673  0.00  0.00    +0.000 A 
ATOM     10  C   UNL     1     104.608 124.023 145.523  0.00  0.00    +0.000 A 
ATOM     11  C   UNL     1     102.734 123.302 146.502  0.00  0.00    +0.000 A 
ATOM     12  C   UNL     1     103.443 124.251 147.398  0.00  0.00    +0.000 A 
ATOM     13  C   UNL     1     102.778 123.728 147.247  0.00  0.00    +0.000 A 
ATOM     14  C   UNL     1     102.099 122.798 146.349  0.00  0.00    +0.000 C 
ENDROOT
BRANCH   7  16
ATOM     15  O   UNL     1     107.830 126.951 146.991  0.00  0.00    +0.000 OA
ATOM     16  C   UNL     1     105.923 125.439 146.539  0.00  0.00    +0.000 A 
ATOM     17  C   UNL     1     106.609 125.144 146.890  0.00  0.00    +0.000 A 
ATOM     18  C   UNL     1     105.873 126.238 146.339  0.00  0.00    +0.000 A 
ATOM     19  C   UNL     1     107.245 125.648 147.041  0.00  0.00    +0.000 A 
ATOM     20  C   UNL     1     106.509 126.741 146.490  0.00  0.00    +0.000 A 
ATOM     21  C   UNL     1     107.195 126.446 146.841  0.00  0.00    +0.000 A 
BRANCH  19  22
ATOM     22  O   UNL     1     107.930 125.353 147.392  0.00  0.00    +0.000 OA
ATOM     23  C   UNL     1     107.885 124.945 148.107  0.00  0.00    +0.000 C 
ENDBRANCH  19  22
ENDBRANCH   7  16
BRANCH   9  24
ATOM     24  O   UNL     1     105.839 124.620 145.109  0.00  0.00    +0.000 OA
ATOM     25  C   UNL     1     105.674 124.494 144.311  0.00  0.00    +0.000 C 
ENDBRANCH   9  24
TORSDOF 3
ENDMDL
MODEL 5
REMARK VINA RESULT:      -8.2     12.978     14.168
REMARK  Name = 44259692
REMARK  3 active torsions:
REMARK  status: ('A' for Active; 'I' for Inactive)
REMARK    1  A    between atoms: O_2  and  C_12
REMARK    2  A    between atoms: O_6  and  C_21
REMARK    3  A    between atoms: C_10  and  C_15
REMARK                            x       y       z     vdW  Elec       q    Type
REMARK                         _______ _______ _______ _____ _____    ______ ____
ROOT
ATOM      1  O   UNL     1     113.811 127.124 136.690  0.00  0.00    +0.000 OA
ATOM      2  O   UNL     1     111.901 124.993 136.295  0.00  0.00    +0.000 OA
ATOM      3  O   UNL     1     114.566 124.384 137.324  0.00  0.00    +0.000 OA
ATOM      4  O   UNL     1     111.562 126.362 135.992  0.00  0.00    +0.000 OA
ATOM      5  C   UNL     1     112.867 126.069 136.495  0.00  0.00    +0.000 A 
ATOM      6  C   UNL     1     113.617 126.324 136.728  0.00  0.00    +0.000 A 
ATOM      7  C   UNL     1     113.255 127.671 136.419  0.00  0.00    +0.000 A 
ATOM      8  C   UNL     1     112.653 125.237 136.530  0.00  0.00    +0.000 A 
ATOM      9  C   UNL     1     112.506 127.417 136.187  0.00  0.00    +0.000 A 
ATOM     10  C   UNL     1     112.312 126.616 136.225  0.00  0.00    +0.000 A 
ATOM     11  C   UNL     1     113.227 124.664 136.811  0.00  0.00    +0.000 A 
ATOM     12  C   UNL     1     114.204 125.763 137.011  0.00  0.00    +0.000 A 
ATOM     13  C   UNL     1     114.008 124.928 137.053  0.00  0.00    +0.000 A 
ATOM     14  C   UNL     1     113.030 123.863 136.848  0.00  0.00    +0.000 C 
ENDROOT
BRANCH   7  16
ATOM     15  O   UNL     1     114.033 130.875 136.271  0.00  0.00    +0.000 OA
ATOM     16  C   UNL     1     113.450 128.472 136.382  0.00  0.00    +0.000 A 
ATOM     17  C   UNL     1     113.825 128.775 135.712  0.00  0.00    +0.000 A 
ATOM     18  C   UNL     1     113.269 128.970 137.015  0.00  0.00    +0.000 A 
ATOM     19  C   UNL     1     114.020 129.576 135.676  0.00  0.00    +0.000 A 
ATOM     20  C   UNL     1     113.463 129.771 136.977  0.00  0.00    +0.000 A 
ATOM     21  C   UNL     1     113.839 130.074 136.308  0.00  0.00    +0.000 A 
BRANCH  19  22
ATOM     22  O   UNL     1     114.395 129.879 135.007  0.00  0.00    +0.000 OA
ATOM     23  C   UNL     1     114.962 129.428 134.612  0.00  0.00    +0.000 C 
ENDBRANCH  19  22
ENDBRANCH   7  16
BRANCH   9  24
ATOM     24  O   UNL     1     111.951 127.964 135.917  0.00  0.00    +0.000 OA
ATOM     25  C   UNL     1     111.303 127.709 135.474  0.00  0.00    +0.000 C 
ENDBRANCH   9  24
TORSDOF 3
ENDMDL
MODEL 6
REMARK VINA RESULT:      -8.1     11.452     13.364
REMARK  Name = 44259692
REMARK  3 active torsions:
REMARK  status: ('A' for Active; 'I' for Inactive)
REMARK    1  A    between atoms: O_2  and  C_12
REMARK    2  A    between atoms: O_6  and  C_21
REMARK    3  A    between atoms: C_10  and  C_15
REMARK                            x       y       z     vdW  Elec       q    Type
REMARK                         _______ _______ _______ _____ _____    ______ ____
ROOT
ATOM      1  O   UNL     1     113.208 127.224 136.129  0.00  0.00    +0.000 OA
ATOM      2  O   UNL     1     113.356 129.601 137.765  0.00  0.00    +0.000 OA
ATOM      3  O   UNL     1     114.501 129.612 135.078  0.00  0.00    +0.000 OA
ATOM      4  O   UNL     1     112.724 128.400 138.252  0.00  0.00    +0.000 OA
ATOM      5  C   UNL     1     113.282 128.400 136.938  0.00  0.00    +0.000 A 
ATOM      6  C   UNL     1     113.443 128.008 136.230  0.00  0.00    +0.000 A 
ATOM      7  C   UNL     1     112.810 126.831 136.737  0.00  0.00    +0.000 A 
ATOM      8  C   UNL     1     113.522 129.217 137.054  0.00  0.00    +0.000 A 
ATOM      9  C   UNL     1     112.649 127.223 137.445  0.00  0.00    +0.000 A 
ATOM     10  C   UNL     1     112.885 128.008 137.544  0.00  0.00    +0.000 A 
ATOM     11  C   UNL     1     113.936 129.630 136.425  0.00  0.00    +0.000 A 
ATOM     12  C   UNL     1     113.856 128.406 135.589  0.00  0.00    +0.000 A 
ATOM     13  C   UNL     1     114.104 129.222 135.688  0.00  0.00    +0.000 A 
ATOM     14  C   UNL     1     114.171 130.415 136.528  0.00  0.00    +0.000 C 
ENDROOT
BRANCH   7  16
ATOM     15  O   UNL     1     111.871 123.693 136.335  0.00  0.00    +0.000 OA
ATOM     16  C   UNL     1     112.575 126.047 136.636  0.00  0.00    +0.000 A 
ATOM     17  C   UNL     1     111.849 125.876 136.284  0.00  0.00    +0.000 A 
ATOM     18  C   UNL     1     113.067 125.434 136.888  0.00  0.00    +0.000 A 
ATOM     19  C   UNL     1     111.615 125.091 136.184  0.00  0.00    +0.000 A 
ATOM     20  C   UNL     1     112.832 124.649 136.787  0.00  0.00    +0.000 A 
ATOM     21  C   UNL     1     112.105 124.478 136.435  0.00  0.00    +0.000 A 
BRANCH  19  22
ATOM     22  O   UNL     1     110.889 124.920 135.832  0.00  0.00    +0.000 OA
ATOM     23  C   UNL     1     110.540 125.463 135.319  0.00  0.00    +0.000 C 
ENDBRANCH  19  22
ENDBRANCH   7  16
BRANCH   9  24
ATOM     24  O   UNL     1     112.252 126.831 138.052  0.00  0.00    +0.000 OA
ATOM     25  C   UNL     1     111.846 127.263 138.626  0.00  0.00    +0.000 C 
ENDBRANCH   9  24
TORSDOF 3
ENDMDL
MODEL 7
REMARK VINA RESULT:      -8.0      1.454      3.162
REMARK  Name = 44259692
REMARK  3 active torsions:
REMARK  status: ('A' for Active; 'I' for Inactive)
REMARK    1  A    between atoms: O_2  and  C_12
REMARK    2  A    between atoms: O_6  and  C_21
REMARK    3  A    between atoms: C_10  and  C_15
REMARK                            x       y       z     vdW  Elec       q    Type
REMARK                         _______ _______ _______ _____ _____    ______ ____
ROOT
ATOM      1  O   UNL     1     106.875 125.281 146.407  0.00  0.00    +0.000 OA
ATOM      2  O   UNL     1     105.805 124.453 148.960  0.00  0.00    +0.000 OA
ATOM      3  O   UNL     1     108.688 124.793 148.633  0.00  0.00    +0.000 OA
ATOM      4  O   UNL     1     104.938 124.704 147.835  0.00  0.00    +0.000 OA
ATOM      5  C   UNL     1     106.347 124.872 147.670  0.00  0.00    +0.000 A 
ATOM      6  C   UNL     1     106.992 125.064 147.194  0.00  0.00    +0.000 A 
ATOM      7  C   UNL     1     106.110 125.306 146.096  0.00  0.00    +0.000 A 
ATOM      8  C   UNL     1     106.457 124.644 148.492  0.00  0.00    +0.000 A 
ATOM      9  C   UNL     1     105.465 125.114 146.572  0.00  0.00    +0.000 A 
ATOM     10  C   UNL     1     105.584 124.897 147.359  0.00  0.00    +0.000 A 
ATOM     11  C   UNL     1     107.250 124.616 148.821  0.00  0.00    +0.000 A 
ATOM     12  C   UNL     1     107.793 125.042 147.507  0.00  0.00    +0.000 A 
ATOM     13  C   UNL     1     107.922 124.817 148.325  0.00  0.00    +0.000 A 
ATOM     14  C   UNL     1     107.365 124.399 149.608  0.00  0.00    +0.000 C 
ENDROOT
BRANCH   7  16
ATOM     15  O   UNL     1     105.641 126.173 142.946  0.00  0.00    +0.000 OA
ATOM     16  C   UNL     1     105.993 125.523 145.309  0.00  0.00    +0.000 A 
ATOM     17  C   UNL     1     105.931 126.320 145.105  0.00  0.00    +0.000 A 
ATOM     18  C   UNL     1     105.938 124.942 144.725  0.00  0.00    +0.000 A 
ATOM     19  C   UNL     1     105.813 126.536 144.317  0.00  0.00    +0.000 A 
ATOM     20  C   UNL     1     105.820 125.159 143.938  0.00  0.00    +0.000 A 
ATOM     21  C   UNL     1     105.758 125.957 143.734  0.00  0.00    +0.000 A 
BRANCH  19  22
ATOM     22  O   UNL     1     105.751 127.333 144.114  0.00  0.00    +0.000 OA
ATOM     23  C   UNL     1     106.324 127.870 144.367  0.00  0.00    +0.000 C 
ENDBRANCH  19  22
ENDBRANCH   7  16
BRANCH   9  24
ATOM     24  O   UNL     1     104.702 125.139 146.261  0.00  0.00    +0.000 OA
ATOM     25  C   UNL     1     104.062 124.885 146.717  0.00  0.00    +0.000 C 
ENDBRANCH   9  24
TORSDOF 3
ENDMDL
MODEL 8
REMARK VINA RESULT:      -8.0      9.942     12.189
REMARK  Name = 44259692
REMARK  3 active torsions:
REMARK  status: ('A' for Active; 'I' for Inactive)
REMARK    1  A    between atoms: O_2  and  C_12
REMARK    2  A    between atoms: O_6  and  C_21
REMARK    3  A    between atoms: C_10  and  C_15
REMARK                            x       y       z     vdW  Elec       q    Type
REMARK                         _______ _______ _______ _____ _____    ______ ____
ROOT
ATOM      1  O   UNL     1     113.540 126.331 138.452  0.00  0.00    +0.000 OA
ATOM      2  O   UNL     1     111.375 124.563 137.721  0.00  0.00    +0.000 OA
ATOM      3  O   UNL     1     113.876 124.498 136.214  0.00  0.00    +0.000 OA
ATOM      4  O   UNL     1     111.244 125.484 138.823  0.00  0.00    +0.000 OA
ATOM      5  C   UNL     1     112.469 125.456 138.090  0.00  0.00    +0.000 A 
ATOM      6  C   UNL     1     113.235 125.739 137.966  0.00  0.00    +0.000 A 
ATOM      7  C   UNL     1     113.079 126.642 139.062  0.00  0.00    +0.000 A 
ATOM      8  C   UNL     1     112.141 124.839 137.590  0.00  0.00    +0.000 A 
ATOM      9  C   UNL     1     112.314 126.359 139.186  0.00  0.00    +0.000 A 
ATOM     10  C   UNL     1     112.009 125.766 138.699  0.00  0.00    +0.000 A 
ATOM     11  C   UNL     1     112.616 124.512 136.953  0.00  0.00    +0.000 A 
ATOM     12  C   UNL     1     113.724 125.423 137.333  0.00  0.00    +0.000 A 
ATOM     13  C   UNL     1     113.412 124.806 136.824  0.00  0.00    +0.000 A 
ATOM     14  C   UNL     1     112.308 123.919 136.468  0.00  0.00    +0.000 C 
ENDROOT
BRANCH   7  16
ATOM     15  O   UNL     1     114.301 129.010 141.008  0.00  0.00    +0.000 OA
ATOM     16  C   UNL     1     113.384 127.234 139.548  0.00  0.00    +0.000 A 
ATOM     17  C   UNL     1     113.284 128.027 139.345  0.00  0.00    +0.000 A 
ATOM     18  C   UNL     1     113.790 127.033 140.238  0.00  0.00    +0.000 A 
ATOM     19  C   UNL     1     113.589 128.619 139.832  0.00  0.00    +0.000 A 
ATOM     20  C   UNL     1     114.096 127.625 140.724  0.00  0.00    +0.000 A 
ATOM     21  C   UNL     1     113.995 128.419 140.521  0.00  0.00    +0.000 A 
BRANCH  19  22
ATOM     22  O   UNL     1     113.489 129.413 139.629  0.00  0.00    +0.000 OA
ATOM     23  C   UNL     1     113.497 129.640 138.836  0.00  0.00    +0.000 C 
ENDBRANCH  19  22
ENDBRANCH   7  16
BRANCH   9  24
ATOM     24  O   UNL     1     111.854 126.669 139.796  0.00  0.00    +0.000 OA
ATOM     25  C   UNL     1     111.040 126.531 139.810  0.00  0.00    +0.000 C 
ENDBRANCH   9  24
TORSDOF 3
ENDMDL
MODEL 9
REMARK VINA RESULT:      -7.9     11.968     13.548
REMARK  Name = 44259692
REMARK  3 active torsions:
REMARK  status: ('A' for Active; 'I' for Inactive)
REMARK    1  A    between atoms: O_2  and  C_12
REMARK    2  A    between atoms: O_6  and  C_21
REMARK    3  A    between atoms: C_10  and  C_15
REMARK                            x       y       z     vdW  Elec       q    Type
REMARK                         _______ _______ _______ _____ _____    ______ ____
ROOT
ATOM      1  O   UNL     1     112.559 127.335 136.251  0.00  0.00    +0.000 OA
ATOM      2  O   UNL     1     110.025 127.153 134.874  0.00  0.00    +0.000 OA
ATOM      3  O   UNL     1     111.329 129.748 135.182  0.00  0.00    +0.000 OA
ATOM      4  O   UNL     1     110.664 125.979 135.416  0.00  0.00    +0.000 OA
ATOM      5  C   UNL     1     111.305 127.246 135.570  0.00  0.00    +0.000 A 
ATOM      6  C   UNL     1     111.937 127.698 135.848  0.00  0.00    +0.000 A 
ATOM      7  C   UNL     1     112.548 126.519 136.376  0.00  0.00    +0.000 A 
ATOM      8  C   UNL     1     110.652 127.613 135.148  0.00  0.00    +0.000 A 
ATOM      9  C   UNL     1     111.916 126.067 136.097  0.00  0.00    +0.000 A 
ATOM     10  C   UNL     1     111.295 126.431 135.694  0.00  0.00    +0.000 A 
ATOM     11  C   UNL     1     110.657 128.462 135.016  0.00  0.00    +0.000 A 
ATOM     12  C   UNL     1     111.959 128.548 135.724  0.00  0.00    +0.000 A 
ATOM     13  C   UNL     1     111.315 128.932 135.305  0.00  0.00    +0.000 A 
ATOM     14  C   UNL     1     110.035 128.823 134.612  0.00  0.00    +0.000 C 
ENDROOT
BRANCH   7  16
ATOM     15  O   UNL     1     115.036 125.066 137.985  0.00  0.00    +0.000 OA
ATOM     16  C   UNL     1     113.170 126.156 136.778  0.00  0.00    +0.000 A 
ATOM     17  C   UNL     1     113.213 126.205 137.601  0.00  0.00    +0.000 A 
ATOM     18  C   UNL     1     113.748 125.743 136.358  0.00  0.00    +0.000 A 
ATOM     19  C   UNL     1     113.836 125.841 138.003  0.00  0.00    +0.000 A 
ATOM     20  C   UNL     1     114.370 125.380 136.761  0.00  0.00    +0.000 A 
ATOM     21  C   UNL     1     114.413 125.429 137.583  0.00  0.00    +0.000 A 
BRANCH  19  22
ATOM     22  O   UNL     1     113.879 125.891 138.825  0.00  0.00    +0.000 OA
ATOM     23  C   UNL     1     113.547 126.535 139.219  0.00  0.00    +0.000 C 
ENDBRANCH  19  22
ENDBRANCH   7  16
BRANCH   9  24
ATOM     24  O   UNL     1     111.906 125.252 136.222  0.00  0.00    +0.000 OA
ATOM     25  C   UNL     1     111.191 124.841 136.202  0.00  0.00    +0.000 C 
ENDBRANCH   9  24
TORSDOF 3
ENDMDL
MODEL 10
REMARK VINA RESULT:      -7.9     12.247     13.116
REMARK  Name = 44259692
REMARK  3 active torsions:
REMARK  status: ('A' for Active; 'I' for Inactive)
REMARK    1  A    between atoms: O_2  and  C_12
REMARK    2  A    between atoms: O_6  and  C_21
REMARK    3  A    between atoms: C_10  and  C_15
REMARK                            x       y       z     vdW  Elec       q    Type
REMARK                         _______ _______ _______ _____ _____    ______ ____
ROOT
ATOM      1  O   UNL     1     112.020 126.945 136.134  0.00  0.00    +0.000 OA
ATOM      2  O   UNL     1     111.646 124.080 136.101  0.00  0.00    +0.000 OA
ATOM      3  O   UNL     1     114.020 125.222 137.363  0.00  0.00    +0.000 OA
ATOM      4  O   UNL     1     110.677 124.964 135.502  0.00  0.00    +0.000 OA
ATOM      5  C   UNL     1     111.836 125.528 136.118  0.00  0.00    +0.000 A 
ATOM      6  C   UNL     1     112.284 126.188 136.329  0.00  0.00    +0.000 A 
ATOM      7  C   UNL     1     111.307 127.041 135.728  0.00  0.00    +0.000 A 
ATOM      8  C   UNL     1     112.101 124.734 136.316  0.00  0.00    +0.000 A 
ATOM      9  C   UNL     1     110.860 126.381 135.517  0.00  0.00    +0.000 A 
ATOM     10  C   UNL     1     111.125 125.624 135.713  0.00  0.00    +0.000 A 
ATOM     11  C   UNL     1     112.841 124.627 136.738  0.00  0.00    +0.000 A 
ATOM     12  C   UNL     1     113.027 126.100 136.751  0.00  0.00    +0.000 A 
ATOM     13  C   UNL     1     113.307 125.315 136.957  0.00  0.00    +0.000 A 
ATOM     14  C   UNL     1     113.103 123.869 136.932  0.00  0.00    +0.000 C 
ENDROOT
BRANCH   7  16
ATOM     15  O   UNL     1     110.254 130.069 134.946  0.00  0.00    +0.000 OA
ATOM     16  C   UNL     1     111.044 127.798 135.533  0.00  0.00    +0.000 A 
ATOM     17  C   UNL     1     110.573 128.221 136.062  0.00  0.00    +0.000 A 
ATOM     18  C   UNL     1     111.251 128.133 134.807  0.00  0.00    +0.000 A 
ATOM     19  C   UNL     1     110.310 128.978 135.866  0.00  0.00    +0.000 A 
ATOM     20  C   UNL     1     110.988 128.889 134.612  0.00  0.00    +0.000 A 
ATOM     21  C   UNL     1     110.517 129.312 135.142  0.00  0.00    +0.000 A 
BRANCH  19  22
ATOM     22  O   UNL     1     109.840 129.401 136.396  0.00  0.00    +0.000 OA
ATOM     23  C   UNL     1     109.975 129.340 137.207  0.00  0.00    +0.000 C 
ENDBRANCH  19  22
ENDBRANCH   7  16
BRANCH   9  24
ATOM     24  O   UNL     1     110.148 126.478 135.112  0.00  0.00    +0.000 OA
ATOM     25  C   UNL     1     109.750 125.819 134.816  0.00  0.00    +0.000 C 
ENDBRANCH   9  24
TORSDOF 3
ENDMDL
