MODEL 1
REMARK VINA RESULT:      -9.8      0.000      0.000
REMARK  Name = 74978486
REMARK  5 active torsions:
REMARK  status: ('A' for Active; 'I' for Inactive)
REMARK    1  A    between atoms: O_2  and  C_19
REMARK    2  A    between atoms: O_2  and  C_21
REMARK    3  A    between atoms: O_12  and  C_30
REMARK    4  A    between atoms: C_18  and  C_20
REMARK    5  A    between atoms: C_24  and  C_27
REMARK                            x       y       z     vdW  Elec       q    Type
REMARK                         _______ _______ _______ _____ _____    ______ ____
ROOT
ATOM      1  O   UNL     1     105.966 124.522 143.251  0.00  0.00    +0.000 OA
ATOM      2  C   UNL     1     105.725 125.877 143.636  0.00  0.00    +0.000 A 
ATOM      3  C   UNL     1     105.879 125.093 143.840  0.00  0.00    +0.000 A 
ATOM      4  C   UNL     1     105.638 126.448 144.225  0.00  0.00    +0.000 A 
ATOM      5  C   UNL     1     105.859 125.450 145.224  0.00  0.00    +0.000 A 
ATOM      6  C   UNL     1     105.946 124.880 144.635  0.00  0.00    +0.000 A 
ATOM      7  C   UNL     1     105.705 126.235 145.019  0.00  0.00    +0.000 A 
ENDROOT
BRANCH   5  13
ATOM      8  O   UNL     1     106.698 125.216 146.397  0.00  0.00    +0.000 OA
ATOM      9  O   UNL     1     107.138 124.380 149.574  0.00  0.00    +0.000 OA
ATOM     10  O   UNL     1     108.220 124.694 148.873  0.00  0.00    +0.000 OA
ATOM     11  O   UNL     1     105.482 124.389 148.890  0.00  0.00    +0.000 OA
ATOM     12  O   UNL     1     104.639 124.616 147.742  0.00  0.00    +0.000 OA
ATOM     13  C   UNL     1     105.926 125.236 146.018  0.00  0.00    +0.000 A 
ATOM     14  C   UNL     1     106.085 124.797 147.660  0.00  0.00    +0.000 A 
ATOM     15  C   UNL     1     106.758 124.992 147.225  0.00  0.00    +0.000 A 
ATOM     16  C   UNL     1     105.226 125.033 146.473  0.00  0.00    +0.000 A 
ATOM     17  C   UNL     1     105.306 124.812 147.299  0.00  0.00    +0.000 A 
ATOM     18  C   UNL     1     106.155 124.584 148.454  0.00  0.00    +0.000 A 
ATOM     19  C   UNL     1     106.898 124.566 148.812  0.00  0.00    +0.000 A 
ATOM     20  C   UNL     1     107.571 124.761 148.377  0.00  0.00    +0.000 A 
ATOM     21  C   UNL     1     107.501 124.974 147.583  0.00  0.00    +0.000 A 
ATOM     22  C   UNL     1     107.953 124.459 149.612  0.00  0.00    +0.000 C 
BRANCH  16  23
ATOM     23  O   UNL     1     104.482 125.050 146.118  0.00  0.00    +0.000 OA
ATOM     24  C   UNL     1     103.802 124.983 146.579  0.00  0.00    +0.000 C 
ENDBRANCH  16  23
ENDBRANCH   5  13
BRANCH   2  25
ATOM     25  O   UNL     1     105.658 126.091 142.842  0.00  0.00    +0.000 OA
BRANCH  25  34
ATOM     26  O   UNL     1     106.896 126.786 142.683  0.00  0.00    +0.000 OA
ATOM     27  O   UNL     1     105.735 128.563 141.411  0.00  0.00    +0.000 OA
ATOM     28  O   UNL     1     107.359 128.665 141.676  0.00  0.00    +0.000 OA
ATOM     29  O   UNL     1     104.883 127.275 141.994  0.00  0.00    +0.000 OA
ATOM     30  C   UNL     1     106.122 127.971 141.835  0.00  0.00    +0.000 C 
ATOM     31  C   UNL     1     106.934 128.021 141.967  0.00  0.00    +0.000 C 
ATOM     32  C   UNL     1     105.696 127.326 142.127  0.00  0.00    +0.000 C 
ATOM     33  C   UNL     1     107.321 127.430 142.391  0.00  0.00    +0.000 C 
ATOM     34  C   UNL     1     106.083 126.734 142.550  0.00  0.00    +0.000 C 
BRANCH  33  37
ATOM     35  O   UNL     1     108.425 127.985 143.109  0.00  0.00    +0.000 OA
ATOM     36  O   UNL     1     108.655 127.028 142.072  0.00  0.00    +0.000 OA
ATOM     37  C   UNL     1     108.134 127.480 142.523  0.00  0.00    +0.000 C 
ENDBRANCH  33  37
ENDBRANCH  25  34
ENDBRANCH   2  25
TORSDOF 5
ENDMDL
MODEL 2
REMARK VINA RESULT:      -9.7      8.108      9.937
REMARK  Name = 74978486
REMARK  5 active torsions:
REMARK  status: ('A' for Active; 'I' for Inactive)
REMARK    1  A    between atoms: O_2  and  C_19
REMARK    2  A    between atoms: O_2  and  C_21
REMARK    3  A    between atoms: O_12  and  C_30
REMARK    4  A    between atoms: C_18  and  C_20
REMARK    5  A    between atoms: C_24  and  C_27
REMARK                            x       y       z     vdW  Elec       q    Type
REMARK                         _______ _______ _______ _____ _____    ______ ____
ROOT
ATOM      1  O   UNL     1     107.846 128.527 135.748  0.00  0.00    +0.000 OA
ATOM      2  C   UNL     1     109.112 129.187 135.815  0.00  0.00    +0.000 A 
ATOM      3  C   UNL     1     108.647 128.518 135.945  0.00  0.00    +0.000 A 
ATOM      4  C   UNL     1     109.913 129.177 136.012  0.00  0.00    +0.000 A 
ATOM      5  C   UNL     1     109.784 127.829 136.468  0.00  0.00    +0.000 A 
ATOM      6  C   UNL     1     108.983 127.839 136.271  0.00  0.00    +0.000 A 
ATOM      7  C   UNL     1     110.249 128.498 136.338  0.00  0.00    +0.000 A 
ENDROOT
BRANCH   5  13
ATOM      8  O   UNL     1     110.478 126.556 136.285  0.00  0.00    +0.000 OA
ATOM      9  O   UNL     1     111.869 123.777 137.438  0.00  0.00    +0.000 OA
ATOM     10  O   UNL     1     111.877 123.961 136.123  0.00  0.00    +0.000 OA
ATOM     11  O   UNL     1     111.152 124.944 138.592  0.00  0.00    +0.000 OA
ATOM     12  O   UNL     1     110.467 126.198 138.792  0.00  0.00    +0.000 OA
ATOM     13  C   UNL     1     110.120 127.150 136.794  0.00  0.00    +0.000 A 
ATOM     14  C   UNL     1     110.821 125.738 137.452  0.00  0.00    +0.000 A 
ATOM     15  C   UNL     1     110.826 125.852 136.634  0.00  0.00    +0.000 A 
ATOM     16  C   UNL     1     110.115 127.030 137.645  0.00  0.00    +0.000 A 
ATOM     17  C   UNL     1     110.468 126.320 137.976  0.00  0.00    +0.000 A 
ATOM     18  C   UNL     1     111.158 125.058 137.775  0.00  0.00    +0.000 A 
ATOM     19  C   UNL     1     111.500 124.492 137.282  0.00  0.00    +0.000 A 
ATOM     20  C   UNL     1     111.505 124.606 136.465  0.00  0.00    +0.000 A 
ATOM     21  C   UNL     1     111.168 125.286 136.141  0.00  0.00    +0.000 A 
ATOM     22  C   UNL     1     112.102 123.449 136.723  0.00  0.00    +0.000 C 
BRANCH  16  23
ATOM     23  O   UNL     1     109.774 127.594 138.142  0.00  0.00    +0.000 OA
ATOM     24  C   UNL     1     109.987 127.627 138.937  0.00  0.00    +0.000 C 
ENDBRANCH  16  23
ENDBRANCH   5  13
BRANCH   2  25
ATOM     25  O   UNL     1     108.775 129.866 135.489  0.00  0.00    +0.000 OA
BRANCH  25  34
ATOM     26  O   UNL     1     108.715 130.694 136.652  0.00  0.00    +0.000 OA
ATOM     27  O   UNL     1     109.583 132.603 135.337  0.00  0.00    +0.000 OA
ATOM     28  O   UNL     1     109.234 132.794 136.937  0.00  0.00    +0.000 OA
ATOM     29  O   UNL     1     109.354 131.138 134.612  0.00  0.00    +0.000 OA
ATOM     30  C   UNL     1     109.294 131.967 135.775  0.00  0.00    +0.000 C 
ATOM     31  C   UNL     1     109.119 132.062 136.575  0.00  0.00    +0.000 C 
ATOM     32  C   UNL     1     109.179 131.234 135.413  0.00  0.00    +0.000 C 
ATOM     33  C   UNL     1     108.830 131.426 137.013  0.00  0.00    +0.000 C 
ATOM     34  C   UNL     1     108.890 130.598 135.850  0.00  0.00    +0.000 C 
BRANCH  33  37
ATOM     35  O   UNL     1     109.243 131.403 138.381  0.00  0.00    +0.000 OA
ATOM     36  O   UNL     1     107.894 131.736 138.048  0.00  0.00    +0.000 OA
ATOM     37  C   UNL     1     108.655 131.522 137.814  0.00  0.00    +0.000 C 
ENDBRANCH  33  37
ENDBRANCH  25  34
ENDBRANCH   2  25
TORSDOF 5
ENDMDL
MODEL 3
REMARK VINA RESULT:      -9.6      7.658      9.995
REMARK  Name = 74978486
REMARK  5 active torsions:
REMARK  status: ('A' for Active; 'I' for Inactive)
REMARK    1  A    between atoms: O_2  and  C_19
REMARK    2  A    between atoms: O_2  and  C_21
REMARK    3  A    between atoms: O_12  and  C_30
REMARK    4  A    between atoms: C_18  and  C_20
REMARK    5  A    between atoms: C_24  and  C_27
REMARK                            x       y       z     vdW  Elec       q    Type
REMARK                         _______ _______ _______ _____ _____    ______ ____
ROOT
ATOM      1  O   UNL     1     114.660 127.294 141.166  0.00  0.00    +0.000 OA
ATOM      2  C   UNL     1     114.173 128.322 140.301  0.00  0.00    +0.000 A 
ATOM      3  C   UNL     1     114.197 127.529 140.525  0.00  0.00    +0.000 A 
ATOM      4  C   UNL     1     113.709 128.557 139.660  0.00  0.00    +0.000 A 
ATOM      5  C   UNL     1     113.293 127.203 139.467  0.00  0.00    +0.000 A 
ATOM      6  C   UNL     1     113.757 126.970 140.108  0.00  0.00    +0.000 A 
ATOM      7  C   UNL     1     113.269 127.998 139.243  0.00  0.00    +0.000 A 
ENDROOT
BRANCH   5  13
ATOM      8  O   UNL     1     113.231 126.157 138.449  0.00  0.00    +0.000 OA
ATOM      9  O   UNL     1     111.608 123.867 136.686  0.00  0.00    +0.000 OA
ATOM     10  O   UNL     1     112.902 124.022 136.435  0.00  0.00    +0.000 OA
ATOM     11  O   UNL     1     110.719 124.824 137.912  0.00  0.00    +0.000 OA
ATOM     12  O   UNL     1     110.762 125.854 138.920  0.00  0.00    +0.000 OA
ATOM     13  C   UNL     1     112.854 126.644 139.049  0.00  0.00    +0.000 A 
ATOM     14  C   UNL     1     111.961 125.481 138.175  0.00  0.00    +0.000 A 
ATOM     15  C   UNL     1     112.765 125.577 138.019  0.00  0.00    +0.000 A 
ATOM     16  C   UNL     1     112.016 126.543 139.211  0.00  0.00    +0.000 A 
ATOM     17  C   UNL     1     111.567 125.957 138.771  0.00  0.00    +0.000 A 
ATOM     18  C   UNL     1     111.524 124.920 137.756  0.00  0.00    +0.000 A 
ATOM     19  C   UNL     1     111.891 124.456 137.181  0.00  0.00    +0.000 A 
ATOM     20  C   UNL     1     112.695 124.552 137.026  0.00  0.00    +0.000 A 
ATOM     21  C   UNL     1     113.132 125.113 137.445  0.00  0.00    +0.000 A 
ATOM     22  C   UNL     1     112.232 123.599 136.226  0.00  0.00    +0.000 C 
BRANCH  16  23
ATOM     23  O   UNL     1     111.646 127.005 139.785  0.00  0.00    +0.000 OA
ATOM     24  C   UNL     1     110.944 126.748 140.133  0.00  0.00    +0.000 C 
ENDBRANCH  16  23
ENDBRANCH   5  13
BRANCH   2  25
ATOM     25  O   UNL     1     114.612 128.882 140.719  0.00  0.00    +0.000 OA
BRANCH  25  34
ATOM     26  O   UNL     1     113.509 129.490 141.393  0.00  0.00    +0.000 OA
ATOM     27  O   UNL     1     114.602 131.701 141.188  0.00  0.00    +0.000 OA
ATOM     28  O   UNL     1     113.135 131.572 141.930  0.00  0.00    +0.000 OA
ATOM     29  O   UNL     1     115.341 130.356 140.583  0.00  0.00    +0.000 OA
ATOM     30  C   UNL     1     114.238 130.964 141.257  0.00  0.00    +0.000 C 
ATOM     31  C   UNL     1     113.504 130.899 141.627  0.00  0.00    +0.000 C 
ATOM     32  C   UNL     1     114.607 130.291 140.953  0.00  0.00    +0.000 C 
ATOM     33  C   UNL     1     113.140 130.163 141.696  0.00  0.00    +0.000 C 
ATOM     34  C   UNL     1     114.243 129.555 141.022  0.00  0.00    +0.000 C 
BRANCH  33  37
ATOM     35  O   UNL     1     112.364 129.872 142.860  0.00  0.00    +0.000 OA
ATOM     36  O   UNL     1     111.715 130.259 141.646  0.00  0.00    +0.000 OA
ATOM     37  C   UNL     1     112.406 130.098 142.066  0.00  0.00    +0.000 C 
ENDBRANCH  33  37
ENDBRANCH  25  34
ENDBRANCH   2  25
TORSDOF 5
ENDMDL
MODEL 4
REMARK VINA RESULT:      -9.5      3.723      7.452
REMARK  Name = 74978486
REMARK  5 active torsions:
REMARK  status: ('A' for Active; 'I' for Inactive)
REMARK    1  A    between atoms: O_2  and  C_19
REMARK    2  A    between atoms: O_2  and  C_21
REMARK    3  A    between atoms: O_12  and  C_30
REMARK    4  A    between atoms: C_18  and  C_20
REMARK    5  A    between atoms: C_24  and  C_27
REMARK                            x       y       z     vdW  Elec       q    Type
REMARK                         _______ _______ _______ _____ _____    ______ ____
ROOT
ATOM      1  O   UNL     1     104.165 127.862 140.728  0.00  0.00    +0.000 OA
ATOM      2  C   UNL     1     104.560 128.159 142.069  0.00  0.00    +0.000 A 
ATOM      3  C   UNL     1     104.213 128.392 141.358  0.00  0.00    +0.000 A 
ATOM      4  C   UNL     1     104.608 128.689 142.699  0.00  0.00    +0.000 A 
ATOM      5  C   UNL     1     103.963 129.688 141.906  0.00  0.00    +0.000 A 
ATOM      6  C   UNL     1     103.915 129.157 141.277  0.00  0.00    +0.000 A 
ATOM      7  C   UNL     1     104.310 129.454 142.618  0.00  0.00    +0.000 A 
ENDROOT
BRANCH   5  13
ATOM      8  O   UNL     1     102.844 130.621 142.022  0.00  0.00    +0.000 OA
ATOM      9  O   UNL     1     101.493 133.636 141.751  0.00  0.00    +0.000 OA
ATOM     10  O   UNL     1     100.711 132.656 142.187  0.00  0.00    +0.000 OA
ATOM     11  O   UNL     1     103.214 133.402 141.310  0.00  0.00    +0.000 OA
ATOM     12  O   UNL     1     104.329 132.495 141.190  0.00  0.00    +0.000 OA
ATOM     13  C   UNL     1     103.664 130.453 141.825  0.00  0.00    +0.000 A 
ATOM     14  C   UNL     1     103.029 132.029 141.662  0.00  0.00    +0.000 A 
ATOM     15  C   UNL     1     102.542 131.421 141.934  0.00  0.00    +0.000 A 
ATOM     16  C   UNL     1     104.170 131.088 141.542  0.00  0.00    +0.000 A 
ATOM     17  C   UNL     1     103.850 131.881 141.460  0.00  0.00    +0.000 A 
ATOM     18  C   UNL     1     102.728 132.793 141.582  0.00  0.00    +0.000 A 
ATOM     19  C   UNL     1     101.940 132.948 141.773  0.00  0.00    +0.000 A 
ATOM     20  C   UNL     1     101.454 132.340 142.044  0.00  0.00    +0.000 A 
ATOM     21  C   UNL     1     101.755 131.576 142.125  0.00  0.00    +0.000 A 
ATOM     22  C   UNL     1     100.735 133.455 142.006  0.00  0.00    +0.000 C 
BRANCH  16  23
ATOM     23  O   UNL     1     104.958 130.936 141.350  0.00  0.00    +0.000 OA
ATOM     24  C   UNL     1     105.532 131.515 141.471  0.00  0.00    +0.000 C 
ENDBRANCH  16  23
ENDBRANCH   5  13
BRANCH   2  25
ATOM     25  O   UNL     1     104.858 127.394 142.150  0.00  0.00    +0.000 OA
BRANCH  25  34
ATOM     26  O   UNL     1     106.234 127.672 141.881  0.00  0.00    +0.000 OA
ATOM     27  O   UNL     1     106.901 126.147 143.712  0.00  0.00    +0.000 OA
ATOM     28  O   UNL     1     108.053 126.933 142.832  0.00  0.00    +0.000 OA
ATOM     29  O   UNL     1     105.303 126.377 143.371  0.00  0.00    +0.000 OA
ATOM     30  C   UNL     1     106.679 126.655 143.102  0.00  0.00    +0.000 C 
ATOM     31  C   UNL     1     107.255 127.049 142.661  0.00  0.00    +0.000 C 
ATOM     32  C   UNL     1     105.879 126.771 142.931  0.00  0.00    +0.000 C 
ATOM     33  C   UNL     1     107.033 127.557 142.052  0.00  0.00    +0.000 C 
ATOM     34  C   UNL     1     105.657 127.278 142.321  0.00  0.00    +0.000 C 
BRANCH  33  37
ATOM     35  O   UNL     1     107.873 127.629 140.898  0.00  0.00    +0.000 OA
ATOM     36  O   UNL     1     107.920 128.664 141.883  0.00  0.00    +0.000 OA
ATOM     37  C   UNL     1     107.608 127.950 141.612  0.00  0.00    +0.000 C 
ENDBRANCH  33  37
ENDBRANCH  25  34
ENDBRANCH   2  25
TORSDOF 5
ENDMDL
MODEL 5
REMARK VINA RESULT:      -9.5      9.662     11.431
REMARK  Name = 74978486
REMARK  5 active torsions:
REMARK  status: ('A' for Active; 'I' for Inactive)
REMARK    1  A    between atoms: O_2  and  C_19
REMARK    2  A    between atoms: O_2  and  C_21
REMARK    3  A    between atoms: O_12  and  C_30
REMARK    4  A    between atoms: C_18  and  C_20
REMARK    5  A    between atoms: C_24  and  C_27
REMARK                            x       y       z     vdW  Elec       q    Type
REMARK                         _______ _______ _______ _____ _____    ______ ____
ROOT
ATOM      1  O   UNL     1     112.301 127.841 138.304  0.00  0.00    +0.000 OA
ATOM      2  C   UNL     1     112.451 127.455 136.936  0.00  0.00    +0.000 A 
ATOM      3  C   UNL     1     112.042 127.868 137.520  0.00  0.00    +0.000 A 
ATOM      4  C   UNL     1     112.193 127.483 136.153  0.00  0.00    +0.000 A 
ATOM      5  C   UNL     1     111.115 128.338 136.540  0.00  0.00    +0.000 A 
ATOM      6  C   UNL     1     111.374 128.310 137.322  0.00  0.00    +0.000 A 
ATOM      7  C   UNL     1     111.525 127.924 135.955  0.00  0.00    +0.000 A 
ENDROOT
BRANCH   5  13
ATOM      8  O   UNL     1     110.523 129.608 136.125  0.00  0.00    +0.000 OA
ATOM      9  O   UNL     1     107.941 131.517 135.305  0.00  0.00    +0.000 OA
ATOM     10  O   UNL     1     109.142 132.081 135.292  0.00  0.00    +0.000 OA
ATOM     11  O   UNL     1     107.662 129.801 135.739  0.00  0.00    +0.000 OA
ATOM     12  O   UNL     1     108.228 128.539 136.148  0.00  0.00    +0.000 OA
ATOM     13  C   UNL     1     110.446 128.779 136.342  0.00  0.00    +0.000 A 
ATOM     14  C   UNL     1     109.075 129.708 135.929  0.00  0.00    +0.000 A 
ATOM     15  C   UNL     1     109.822 130.059 135.921  0.00  0.00    +0.000 A 
ATOM     16  C   UNL     1     109.669 128.415 136.350  0.00  0.00    +0.000 A 
ATOM     17  C   UNL     1     108.979 128.882 136.142  0.00  0.00    +0.000 A 
ATOM     18  C   UNL     1     108.408 130.152 135.730  0.00  0.00    +0.000 A 
ATOM     19  C   UNL     1     108.488 130.947 135.524  0.00  0.00    +0.000 A 
ATOM     20  C   UNL     1     109.235 131.298 135.515  0.00  0.00    +0.000 A 
ATOM     21  C   UNL     1     109.902 130.854 135.714  0.00  0.00    +0.000 A 
ATOM     22  C   UNL     1     108.344 132.216 135.162  0.00  0.00    +0.000 C 
BRANCH  16  23
ATOM     23  O   UNL     1     109.585 127.620 136.556  0.00  0.00    +0.000 OA
ATOM     24  C   UNL     1     108.968 127.174 136.240  0.00  0.00    +0.000 C 
ENDBRANCH  16  23
ENDBRANCH   5  13
BRANCH   2  25
ATOM     25  O   UNL     1     113.120 127.014 137.134  0.00  0.00    +0.000 OA
BRANCH  25  34
ATOM     26  O   UNL     1     112.488 125.733 137.105  0.00  0.00    +0.000 OA
ATOM     27  O   UNL     1     114.549 124.737 136.164  0.00  0.00    +0.000 OA
ATOM     28  O   UNL     1     113.230 123.789 136.449  0.00  0.00    +0.000 OA
ATOM     29  O   UNL     1     114.494 126.350 136.506  0.00  0.00    +0.000 OA
ATOM     30  C   UNL     1     113.862 125.069 136.478  0.00  0.00    +0.000 C 
ATOM     31  C   UNL     1     113.202 124.595 136.620  0.00  0.00    +0.000 C 
ATOM     32  C   UNL     1     113.834 125.876 136.649  0.00  0.00    +0.000 C 
ATOM     33  C   UNL     1     112.516 124.926 136.934  0.00  0.00    +0.000 C 
ATOM     34  C   UNL     1     113.148 126.208 136.962  0.00  0.00    +0.000 C 
BRANCH  33  37
ATOM     35  O   UNL     1     111.701 124.181 137.841  0.00  0.00    +0.000 OA
ATOM     36  O   UNL     1     111.352 124.249 136.456  0.00  0.00    +0.000 OA
ATOM     37  C   UNL     1     111.856 124.452 137.077  0.00  0.00    +0.000 C 
ENDBRANCH  33  37
ENDBRANCH  25  34
ENDBRANCH   2  25
TORSDOF 5
ENDMDL
MODEL 6
REMARK VINA RESULT:      -9.5      1.852      3.254
REMARK  Name = 74978486
REMARK  5 active torsions:
REMARK  status: ('A' for Active; 'I' for Inactive)
REMARK    1  A    between atoms: O_2  and  C_19
REMARK    2  A    between atoms: O_2  and  C_21
REMARK    3  A    between atoms: O_12  and  C_30
REMARK    4  A    between atoms: C_18  and  C_20
REMARK    5  A    between atoms: C_24  and  C_27
REMARK                            x       y       z     vdW  Elec       q    Type
REMARK                         _______ _______ _______ _____ _____    ______ ____
ROOT
ATOM      1  O   UNL     1     107.051 124.986 146.201  0.00  0.00    +0.000 OA
ATOM      2  C   UNL     1     106.120 125.918 145.647  0.00  0.00    +0.000 A 
ATOM      3  C   UNL     1     106.274 125.238 146.086  0.00  0.00    +0.000 A 
ATOM      4  C   UNL     1     105.343 126.170 145.532  0.00  0.00    +0.000 A 
ATOM      5  C   UNL     1     104.872 125.057 146.297  0.00  0.00    +0.000 A 
ATOM      6  C   UNL     1     105.650 124.807 146.411  0.00  0.00    +0.000 A 
ATOM      7  C   UNL     1     104.718 125.739 145.857  0.00  0.00    +0.000 A 
ENDROOT
BRANCH   5  13
ATOM      8  O   UNL     1     103.992 124.778 147.429  0.00  0.00    +0.000 OA
ATOM      9  O   UNL     1     101.504 123.138 148.881  0.00  0.00    +0.000 OA
ATOM     10  O   UNL     1     102.119 124.068 149.600  0.00  0.00    +0.000 OA
ATOM     11  O   UNL     1     101.952 122.739 147.193  0.00  0.00    +0.000 OA
ATOM     12  O   UNL     1     102.812 123.001 146.065  0.00  0.00    +0.000 OA
ATOM     13  C   UNL     1     104.248 124.627 146.622  0.00  0.00    +0.000 A 
ATOM     14  C   UNL     1     102.958 123.746 147.312  0.00  0.00    +0.000 A 
ATOM     15  C   UNL     1     103.341 124.324 147.759  0.00  0.00    +0.000 A 
ATOM     16  C   UNL     1     103.849 124.024 146.157  0.00  0.00    +0.000 A 
ATOM     17  C   UNL     1     103.200 123.581 146.505  0.00  0.00    +0.000 A 
ATOM     18  C   UNL     1     102.334 123.317 147.640  0.00  0.00    +0.000 A 
ATOM     19  C   UNL     1     102.093 123.467 148.414  0.00  0.00    +0.000 A 
ATOM     20  C   UNL     1     102.475 124.045 148.862  0.00  0.00    +0.000 A 
ATOM     21  C   UNL     1     103.099 124.474 148.534  0.00  0.00    +0.000 A 
ATOM     22  C   UNL     1     101.520 123.509 149.612  0.00  0.00    +0.000 C 
BRANCH  16  23
ATOM     23  O   UNL     1     104.088 123.873 145.382  0.00  0.00    +0.000 OA
ATOM     24  C   UNL     1     104.043 123.108 145.079  0.00  0.00    +0.000 C 
ENDBRANCH  16  23
ENDBRANCH   5  13
BRANCH   2  25
ATOM     25  O   UNL     1     106.744 126.349 145.322  0.00  0.00    +0.000 OA
BRANCH  25  34
ATOM     26  O   UNL     1     106.541 125.982 143.956  0.00  0.00    +0.000 OA
ATOM     27  O   UNL     1     107.092 128.290 143.254  0.00  0.00    +0.000 OA
ATOM     28  O   UNL     1     106.705 127.154 142.123  0.00  0.00    +0.000 OA
ATOM     29  O   UNL     1     107.112 127.888 144.854  0.00  0.00    +0.000 OA
ATOM     30  C   UNL     1     106.908 127.521 143.488  0.00  0.00    +0.000 C 
ATOM     31  C   UNL     1     106.714 126.952 142.922  0.00  0.00    +0.000 C 
ATOM     32  C   UNL     1     106.918 127.319 144.288  0.00  0.00    +0.000 C 
ATOM     33  C   UNL     1     106.531 126.184 143.156  0.00  0.00    +0.000 C 
ATOM     34  C   UNL     1     106.735 126.551 144.522  0.00  0.00    +0.000 C 
BRANCH  33  37
ATOM     35  O   UNL     1     106.907 125.075 142.337  0.00  0.00    +0.000 OA
ATOM     36  O   UNL     1     105.574 125.586 142.279  0.00  0.00    +0.000 OA
ATOM     37  C   UNL     1     106.337 125.615 142.591  0.00  0.00    +0.000 C 
ENDBRANCH  33  37
ENDBRANCH  25  34
ENDBRANCH   2  25
TORSDOF 5
ENDMDL
MODEL 7
REMARK VINA RESULT:      -9.4     10.139     10.745
REMARK  Name = 74978486
REMARK  5 active torsions:
REMARK  status: ('A' for Active; 'I' for Inactive)
REMARK    1  A    between atoms: O_2  and  C_19
REMARK    2  A    between atoms: O_2  and  C_21
REMARK    3  A    between atoms: O_12  and  C_30
REMARK    4  A    between atoms: C_18  and  C_20
REMARK    5  A    between atoms: C_24  and  C_27
REMARK                            x       y       z     vdW  Elec       q    Type
REMARK                         _______ _______ _______ _____ _____    ______ ____
ROOT
ATOM      1  O   UNL     1     110.128 129.893 134.616  0.00  0.00    +0.000 OA
ATOM      2  C   UNL     1     109.600 129.659 135.923  0.00  0.00    +0.000 A 
ATOM      3  C   UNL     1     110.077 129.424 135.293  0.00  0.00    +0.000 A 
ATOM      4  C   UNL     1     109.549 129.190 136.600  0.00  0.00    +0.000 A 
ATOM      5  C   UNL     1     110.453 128.250 136.016  0.00  0.00    +0.000 A 
ATOM      6  C   UNL     1     110.503 128.719 135.339  0.00  0.00    +0.000 A 
ATOM      7  C   UNL     1     109.975 128.486 136.647  0.00  0.00    +0.000 A 
ENDROOT
BRANCH   5  13
ATOM      8  O   UNL     1     111.698 127.551 136.328  0.00  0.00    +0.000 OA
ATOM      9  O   UNL     1     113.547 124.812 136.570  0.00  0.00    +0.000 OA
ATOM     10  O   UNL     1     114.118 125.962 136.907  0.00  0.00    +0.000 OA
ATOM     11  O   UNL     1     111.853 124.680 136.003  0.00  0.00    +0.000 OA
ATOM     12  O   UNL     1     110.617 125.353 135.689  0.00  0.00    +0.000 OA
ATOM     13  C   UNL     1     110.880 127.545 136.062  0.00  0.00    +0.000 A 
ATOM     14  C   UNL     1     111.779 126.098 136.164  0.00  0.00    +0.000 A 
ATOM     15  C   UNL     1     112.134 126.813 136.373  0.00  0.00    +0.000 A 
ATOM     16  C   UNL     1     110.511 126.801 135.845  0.00  0.00    +0.000 A 
ATOM     17  C   UNL     1     110.964 126.072 135.896  0.00  0.00    +0.000 A 
ATOM     18  C   UNL     1     112.208 125.395 136.212  0.00  0.00    +0.000 A 
ATOM     19  C   UNL     1     112.992 125.407 136.468  0.00  0.00    +0.000 A 
ATOM     20  C   UNL     1     113.347 126.121 136.677  0.00  0.00    +0.000 A 
ATOM     21  C   UNL     1     112.918 126.824 136.630  0.00  0.00    +0.000 A 
ATOM     22  C   UNL     1     114.242 125.154 136.841  0.00  0.00    +0.000 C 
BRANCH  16  23
ATOM     23  O   UNL     1     109.727 126.785 135.588  0.00  0.00    +0.000 OA
ATOM     24  C   UNL     1     109.462 126.171 135.105  0.00  0.00    +0.000 C 
ENDBRANCH  16  23
ENDBRANCH   5  13
BRANCH   2  25
ATOM     25  O   UNL     1     109.173 130.363 135.877  0.00  0.00    +0.000 OA
BRANCH  25  34
ATOM     26  O   UNL     1     109.989 131.198 136.700  0.00  0.00    +0.000 OA
ATOM     27  O   UNL     1     107.963 132.086 137.810  0.00  0.00    +0.000 OA
ATOM     28  O   UNL     1     109.454 132.624 138.263  0.00  0.00    +0.000 OA
ATOM     29  O   UNL     1     107.822 130.955 136.617  0.00  0.00    +0.000 OA
ATOM     30  C   UNL     1     108.638 131.790 137.440  0.00  0.00    +0.000 C 
ATOM     31  C   UNL     1     109.385 132.059 137.666  0.00  0.00    +0.000 C 
ATOM     32  C   UNL     1     108.568 131.224 136.843  0.00  0.00    +0.000 C 
ATOM     33  C   UNL     1     110.059 131.763 137.297  0.00  0.00    +0.000 C 
ATOM     34  C   UNL     1     109.243 130.929 136.473  0.00  0.00    +0.000 C 
BRANCH  33  37
ATOM     35  O   UNL     1     111.191 132.607 137.072  0.00  0.00    +0.000 OA
ATOM     36  O   UNL     1     111.167 131.728 138.200  0.00  0.00    +0.000 OA
ATOM     37  C   UNL     1     110.805 132.033 137.523  0.00  0.00    +0.000 C 
ENDBRANCH  33  37
ENDBRANCH  25  34
ENDBRANCH   2  25
TORSDOF 5
ENDMDL
MODEL 8
REMARK VINA RESULT:      -9.4      8.894     10.494
REMARK  Name = 74978486
REMARK  5 active torsions:
REMARK  status: ('A' for Active; 'I' for Inactive)
REMARK    1  A    between atoms: O_2  and  C_19
REMARK    2  A    between atoms: O_2  and  C_21
REMARK    3  A    between atoms: O_12  and  C_30
REMARK    4  A    between atoms: C_18  and  C_20
REMARK    5  A    between atoms: C_24  and  C_27
REMARK                            x       y       z     vdW  Elec       q    Type
REMARK                         _______ _______ _______ _____ _____    ______ ____
ROOT
ATOM      1  O   UNL     1     111.868 130.879 136.139  0.00  0.00    +0.000 OA
ATOM      2  C   UNL     1     110.731 130.022 136.022  0.00  0.00    +0.000 A 
ATOM      3  C   UNL     1     111.509 130.147 136.264  0.00  0.00    +0.000 A 
ATOM      4  C   UNL     1     110.372 129.289 136.146  0.00  0.00    +0.000 A 
ATOM      5  C   UNL     1     111.571 128.807 136.756  0.00  0.00    +0.000 A 
ATOM      6  C   UNL     1     111.929 129.539 136.631  0.00  0.00    +0.000 A 
ATOM      7  C   UNL     1     110.792 128.682 136.513  0.00  0.00    +0.000 A 
ENDROOT
BRANCH   5  13
ATOM      8  O   UNL     1     112.524 127.703 136.665  0.00  0.00    +0.000 OA
ATOM      9  O   UNL     1     114.283 125.224 137.987  0.00  0.00    +0.000 OA
ATOM     10  O   UNL     1     114.425 125.443 136.685  0.00  0.00    +0.000 OA
ATOM     11  O   UNL     1     113.203 126.193 139.038  0.00  0.00    +0.000 OA
ATOM     12  O   UNL     1     112.260 127.279 139.147  0.00  0.00    +0.000 OA
ATOM     13  C   UNL     1     111.992 128.199 137.123  0.00  0.00    +0.000 A 
ATOM     14  C   UNL     1     112.870 126.937 137.865  0.00  0.00    +0.000 A 
ATOM     15  C   UNL     1     112.958 127.073 137.056  0.00  0.00    +0.000 A 
ATOM     16  C   UNL     1     111.900 128.057 137.965  0.00  0.00    +0.000 A 
ATOM     17  C   UNL     1     112.342 127.422 138.338  0.00  0.00    +0.000 A 
ATOM     18  C   UNL     1     113.291 126.329 138.229  0.00  0.00    +0.000 A 
ATOM     19  C   UNL     1     113.801 125.856 137.785  0.00  0.00    +0.000 A 
ATOM     20  C   UNL     1     113.889 125.992 136.976  0.00  0.00    +0.000 A 
ATOM     21  C   UNL     1     113.468 126.600 136.611  0.00  0.00    +0.000 A 
ATOM     22  C   UNL     1     114.668 124.969 137.309  0.00  0.00    +0.000 C 
BRANCH  16  23
ATOM     23  O   UNL     1     111.391 128.528 138.413  0.00  0.00    +0.000 OA
ATOM     24  C   UNL     1     111.530 128.636 139.218  0.00  0.00    +0.000 C 
ENDBRANCH  16  23
ENDBRANCH   5  13
BRANCH   2  25
ATOM     25  O   UNL     1     110.310 130.630 135.655  0.00  0.00    +0.000 OA
BRANCH  25  34
ATOM     26  O   UNL     1     109.547 131.085 136.774  0.00  0.00    +0.000 OA
ATOM     27  O   UNL     1     107.543 131.268 135.332  0.00  0.00    +0.000 OA
ATOM     28  O   UNL     1     107.449 131.662 136.931  0.00  0.00    +0.000 OA
ATOM     29  O   UNL     1     108.974 130.752 134.694  0.00  0.00    +0.000 OA
ATOM     30  C   UNL     1     108.211 131.207 135.813  0.00  0.00    +0.000 C 
ATOM     31  C   UNL     1     108.164 131.404 136.612  0.00  0.00    +0.000 C 
ATOM     32  C   UNL     1     108.927 130.949 135.493  0.00  0.00    +0.000 C 
ATOM     33  C   UNL     1     108.831 131.343 137.092  0.00  0.00    +0.000 C 
ATOM     34  C   UNL     1     109.595 130.888 135.973  0.00  0.00    +0.000 C 
BRANCH  33  37
ATOM     35  O   UNL     1     108.569 130.967 138.446  0.00  0.00    +0.000 OA
ATOM     36  O   UNL     1     108.953 132.309 138.138  0.00  0.00    +0.000 OA
ATOM     37  C   UNL     1     108.784 131.540 137.892  0.00  0.00    +0.000 C 
ENDBRANCH  33  37
ENDBRANCH  25  34
ENDBRANCH   2  25
TORSDOF 5
ENDMDL
MODEL 9
REMARK VINA RESULT:      -9.3     10.163     10.799
REMARK  Name = 74978486
REMARK  5 active torsions:
REMARK  status: ('A' for Active; 'I' for Inactive)
REMARK    1  A    between atoms: O_2  and  C_19
REMARK    2  A    between atoms: O_2  and  C_21
REMARK    3  A    between atoms: O_12  and  C_30
REMARK    4  A    between atoms: C_18  and  C_20
REMARK    5  A    between atoms: C_24  and  C_27
REMARK                            x       y       z     vdW  Elec       q    Type
REMARK                         _______ _______ _______ _____ _____    ______ ____
ROOT
ATOM      1  O   UNL     1     111.934 130.311 135.548  0.00  0.00    +0.000 OA
ATOM      2  C   UNL     1     111.244 130.041 136.770  0.00  0.00    +0.000 A 
ATOM      3  C   UNL     1     111.711 129.783 136.143  0.00  0.00    +0.000 A 
ATOM      4  C   UNL     1     111.022 129.514 137.365  0.00  0.00    +0.000 A 
ATOM      5  C   UNL     1     111.736 128.468 136.701  0.00  0.00    +0.000 A 
ATOM      6  C   UNL     1     111.958 128.997 136.108  0.00  0.00    +0.000 A 
ATOM      7  C   UNL     1     111.268 128.727 137.330  0.00  0.00    +0.000 A 
ENDROOT
BRANCH   5  13
ATOM      8  O   UNL     1     112.743 127.451 136.995  0.00  0.00    +0.000 OA
ATOM      9  O   UNL     1     113.878 124.337 136.936  0.00  0.00    +0.000 OA
ATOM     10  O   UNL     1     114.653 125.256 137.498  0.00  0.00    +0.000 OA
ATOM     11  O   UNL     1     112.276 124.702 136.221  0.00  0.00    +0.000 OA
ATOM     12  O   UNL     1     111.271 125.693 135.923  0.00  0.00    +0.000 OA
ATOM     13  C   UNL     1     111.983 127.682 136.666  0.00  0.00    +0.000 A 
ATOM     14  C   UNL     1     112.509 126.059 136.604  0.00  0.00    +0.000 A 
ATOM     15  C   UNL     1     112.991 126.630 136.954  0.00  0.00    +0.000 A 
ATOM     16  C   UNL     1     111.481 127.086 136.302  0.00  0.00    +0.000 A 
ATOM     17  C   UNL     1     111.746 126.270 136.271  0.00  0.00    +0.000 A 
ATOM     18  C   UNL     1     112.758 125.273 136.571  0.00  0.00    +0.000 A 
ATOM     19  C   UNL     1     113.489 125.058 136.887  0.00  0.00    +0.000 A 
ATOM     20  C   UNL     1     113.971 125.629 137.237  0.00  0.00    +0.000 A 
ATOM     21  C   UNL     1     113.722 126.415 137.270  0.00  0.00    +0.000 A 
ATOM     22  C   UNL     1     114.596 124.460 137.313  0.00  0.00    +0.000 C 
BRANCH  16  23
ATOM     23  O   UNL     1     110.749 127.298 135.985  0.00  0.00    +0.000 OA
ATOM     24  C   UNL     1     110.374 126.801 135.446  0.00  0.00    +0.000 C 
ENDBRANCH  16  23
ENDBRANCH   5  13
BRANCH   2  25
ATOM     25  O   UNL     1     110.997 130.828 136.805  0.00  0.00    +0.000 OA
BRANCH  25  34
ATOM     26  O   UNL     1     109.648 130.653 136.368  0.00  0.00    +0.000 OA
ATOM     27  O   UNL     1     108.881 132.250 138.097  0.00  0.00    +0.000 OA
ATOM     28  O   UNL     1     107.789 131.542 137.084  0.00  0.00    +0.000 OA
ATOM     29  O   UNL     1     110.486 131.893 137.957  0.00  0.00    +0.000 OA
ATOM     30  C   UNL     1     109.137 131.717 137.521  0.00  0.00    +0.000 C 
ATOM     31  C   UNL     1     108.591 131.363 137.014  0.00  0.00    +0.000 C 
ATOM     32  C   UNL     1     109.940 131.539 137.451  0.00  0.00    +0.000 C 
ATOM     33  C   UNL     1     108.846 130.832 136.439  0.00  0.00    +0.000 C 
ATOM     34  C   UNL     1     110.195 131.007 136.875  0.00  0.00    +0.000 C 
BRANCH  33  37
ATOM     35  O   UNL     1     108.162 130.800 135.184  0.00  0.00    +0.000 OA
ATOM     36  O   UNL     1     107.891 129.803 136.172  0.00  0.00    +0.000 OA
ATOM     37  C   UNL     1     108.300 130.478 135.932  0.00  0.00    +0.000 C 
ENDBRANCH  33  37
ENDBRANCH  25  34
ENDBRANCH   2  25
TORSDOF 5
ENDMDL
MODEL 10
REMARK VINA RESULT:      -9.2      9.803     11.107
REMARK  Name = 74978486
REMARK  5 active torsions:
REMARK  status: ('A' for Active; 'I' for Inactive)
REMARK    1  A    between atoms: O_2  and  C_19
REMARK    2  A    between atoms: O_2  and  C_21
REMARK    3  A    between atoms: O_12  and  C_30
REMARK    4  A    between atoms: C_18  and  C_20
REMARK    5  A    between atoms: C_24  and  C_27
REMARK                            x       y       z     vdW  Elec       q    Type
REMARK                         _______ _______ _______ _____ _____    ______ ____
ROOT
ATOM      1  O   UNL     1     113.372 127.995 135.523  0.00  0.00    +0.000 OA
ATOM      2  C   UNL     1     113.198 127.390 136.806  0.00  0.00    +0.000 A 
ATOM      3  C   UNL     1     113.068 128.020 136.289  0.00  0.00    +0.000 A 
ATOM      4  C   UNL     1     112.895 127.415 137.573  0.00  0.00    +0.000 A 
ATOM      5  C   UNL     1     112.330 128.701 137.306  0.00  0.00    +0.000 A 
ATOM      6  C   UNL     1     112.634 128.675 136.539  0.00  0.00    +0.000 A 
ATOM      7  C   UNL     1     112.460 128.071 137.823  0.00  0.00    +0.000 A 
ENDROOT
BRANCH   5  13
ATOM      8  O   UNL     1     111.059 129.418 137.368  0.00  0.00    +0.000 OA
ATOM      9  O   UNL     1     109.175 131.983 138.297  0.00  0.00    +0.000 OA
ATOM     10  O   UNL     1     108.587 131.016 137.604  0.00  0.00    +0.000 OA
ATOM     11  O   UNL     1     110.910 131.960 138.744  0.00  0.00    +0.000 OA
ATOM     12  O   UNL     1     112.174 131.266 138.692  0.00  0.00    +0.000 OA
ATOM     13  C   UNL     1     111.896 129.357 137.555  0.00  0.00    +0.000 A 
ATOM     14  C   UNL     1     110.981 130.705 138.064  0.00  0.00    +0.000 A 
ATOM     15  C   UNL     1     110.615 130.105 137.633  0.00  0.00    +0.000 A 
ATOM     16  C   UNL     1     112.276 129.983 138.004  0.00  0.00    +0.000 A 
ATOM     17  C   UNL     1     111.816 130.661 138.260  0.00  0.00    +0.000 A 
ATOM     18  C   UNL     1     110.544 131.360 138.312  0.00  0.00    +0.000 A 
ATOM     19  C   UNL     1     109.741 131.413 138.130  0.00  0.00    +0.000 A 
ATOM     20  C   UNL     1     109.375 130.813 137.699  0.00  0.00    +0.000 A 
ATOM     21  C   UNL     1     109.812 130.158 137.450  0.00  0.00    +0.000 A 
ATOM     22  C   UNL     1     108.463 131.738 137.973  0.00  0.00    +0.000 C 
BRANCH  16  23
ATOM     23  O   UNL     1     113.079 129.932 138.189  0.00  0.00    +0.000 OA
ATOM     24  C   UNL     1     113.505 130.614 138.369  0.00  0.00    +0.000 C 
ENDBRANCH  16  23
ENDBRANCH   5  13
BRANCH   2  25
ATOM     25  O   UNL     1     113.633 126.735 136.556  0.00  0.00    +0.000 OA
BRANCH  25  34
ATOM     26  O   UNL     1     112.525 125.841 136.430  0.00  0.00    +0.000 OA
ATOM     27  O   UNL     1     113.938 123.976 137.237  0.00  0.00    +0.000 OA
ATOM     28  O   UNL     1     112.359 123.705 136.843  0.00  0.00    +0.000 OA
ATOM     29  O   UNL     1     114.575 125.491 137.094  0.00  0.00    +0.000 OA
ATOM     30  C   UNL     1     113.467 124.598 136.968  0.00  0.00    +0.000 C 
ATOM     31  C   UNL     1     112.677 124.462 136.771  0.00  0.00    +0.000 C 
ATOM     32  C   UNL     1     113.785 125.356 136.896  0.00  0.00    +0.000 C 
ATOM     33  C   UNL     1     112.207 125.083 136.502  0.00  0.00    +0.000 C 
ATOM     34  C   UNL     1     113.315 125.977 136.628  0.00  0.00    +0.000 C 
BRANCH  33  37
ATOM     35  O   UNL     1     110.835 124.982 136.889  0.00  0.00    +0.000 OA
ATOM     36  O   UNL     1     111.210 124.779 135.525  0.00  0.00    +0.000 OA
ATOM     37  C   UNL     1     111.417 124.948 136.305  0.00  0.00    +0.000 C 
ENDBRANCH  33  37
ENDBRANCH  25  34
ENDBRANCH   2  25
TORSDOF 5
ENDMDL
