MODEL 1
REMARK VINA RESULT:     -10.4      0.000      0.000
REMARK  Name = 75072286
REMARK  10 active torsions:
REMARK  status: ('A' for Active; 'I' for Inactive)
REMARK    1  A    between atoms: O_3  and  C_31
REMARK    2  A    between atoms: O_4  and  C_32
REMARK    3  A    between atoms: O_7  and  C_37
REMARK    4  A    between atoms: O_8  and  C_38
REMARK    5  A    between atoms: O_9  and  C_39
REMARK    6  A    between atoms: O_10  and  C_41
REMARK    7  A    between atoms: O_11  and  C_42
REMARK    8  A    between atoms: C_19  and  C_25
REMARK    9  A    between atoms: C_20  and  C_21
REMARK   10  A    between atoms: C_22  and  C_28
REMARK                            x       y       z     vdW  Elec       q    Type
REMARK                         _______ _______ _______ _____ _____    ______ ____
ROOT
ATOM      1  O   UNL     1     113.517 127.347 136.195  0.00  0.00    +0.000 OA
ATOM      2  O   UNL     1     114.581 128.150 135.213  0.00  0.00    +0.000 OA
ATOM      3  C   UNL     1     113.053 128.645 136.692  0.00  0.00    +0.000 A 
ATOM      4  C   UNL     1     112.491 128.256 137.212  0.00  0.00    +0.000 C 
ATOM      5  C   UNL     1     112.444 127.398 137.221  0.00  0.00    +0.000 C 
ATOM      6  C   UNL     1     112.960 126.940 136.709  0.00  0.00    +0.000 C 
ATOM      7  C   UNL     1     113.094 129.469 136.687  0.00  0.00    +0.000 A 
ATOM      8  C   UNL     1     113.549 128.205 136.200  0.00  0.00    +0.000 A 
ATOM      9  C   UNL     1     113.629 129.853 136.192  0.00  0.00    +0.000 A 
ATOM     10  C   UNL     1     114.085 128.589 135.704  0.00  0.00    +0.000 A 
ATOM     11  C   UNL     1     114.125 129.413 135.701  0.00  0.00    +0.000 A 
ENDROOT
BRANCH   7  17
ATOM     12  O   UNL     1     110.595 130.864 137.122  0.00  0.00    +0.000 OA
ATOM     13  O   UNL     1     111.111 131.227 138.653  0.00  0.00    +0.000 OA
ATOM     14  C   UNL     1     111.861 130.158 136.905  0.00  0.00    +0.000 A 
ATOM     15  C   UNL     1     111.621 129.954 136.105  0.00  0.00    +0.000 C 
ATOM     16  C   UNL     1     110.855 130.212 135.814  0.00  0.00    +0.000 C 
ATOM     17  C   UNL     1     112.598 129.908 137.179  0.00  0.00    +0.000 A 
ATOM     18  C   UNL     1     110.339 130.669 136.325  0.00  0.00    +0.000 C 
ATOM     19  C   UNL     1     111.365 130.598 137.396  0.00  0.00    +0.000 A 
ATOM     20  C   UNL     1     112.839 130.099 137.945  0.00  0.00    +0.000 A 
ATOM     21  C   UNL     1     111.606 130.788 138.162  0.00  0.00    +0.000 A 
ATOM     22  C   UNL     1     112.343 130.538 138.437  0.00  0.00    +0.000 A 
BRANCH  18  24
ATOM     23  O   UNL     1     107.524 130.250 136.064  0.00  0.00    +0.000 OA
ATOM     24  C   UNL     1     109.602 130.920 136.054  0.00  0.00    +0.000 A 
ATOM     25  C   UNL     1     109.533 131.631 135.641  0.00  0.00    +0.000 A 
ATOM     26  C   UNL     1     108.932 130.460 136.194  0.00  0.00    +0.000 A 
ATOM     27  C   UNL     1     108.796 131.882 135.370  0.00  0.00    +0.000 A 
ATOM     28  C   UNL     1     108.193 130.711 135.923  0.00  0.00    +0.000 A 
ATOM     29  C   UNL     1     108.126 131.422 135.510  0.00  0.00    +0.000 A 
BRANCH  27  30
ATOM     30  O   UNL     1     108.729 132.594 134.957  0.00  0.00    +0.000 OA
ATOM     31  C   UNL     1     109.407 133.006 134.732  0.00  0.00    +0.000 C 
ENDBRANCH  27  30
BRANCH  29  32
ATOM     32  O   UNL     1     107.389 131.672 135.239  0.00  0.00    +0.000 OA
ATOM     33  C   UNL     1     106.797 131.873 135.777  0.00  0.00    +0.000 C 
ENDBRANCH  29  32
ENDBRANCH  18  24
BRANCH  22  34
ATOM     34  O   UNL     1     112.584 130.728 139.202  0.00  0.00    +0.000 OA
ATOM     35  C   UNL     1     113.089 130.221 139.614  0.00  0.00    +0.000 C 
ENDBRANCH  22  34
ENDBRANCH   7  17
BRANCH   6  36
ATOM     36  C   UNL     1     112.923 126.115 136.711  0.00  0.00    +0.000 A 
ATOM     37  C   UNL     1     113.537 125.674 137.040  0.00  0.00    +0.000 A 
ATOM     38  C   UNL     1     112.270 125.732 136.383  0.00  0.00    +0.000 A 
ATOM     39  C   UNL     1     112.231 124.908 136.384  0.00  0.00    +0.000 A 
ATOM     40  C   UNL     1     113.500 124.851 137.041  0.00  0.00    +0.000 A 
ATOM     41  C   UNL     1     112.846 124.467 136.713  0.00  0.00    +0.000 A 
BRANCH  39  42
ATOM     42  O   UNL     1     111.578 124.525 136.056  0.00  0.00    +0.000 OA
ATOM     43  C   UNL     1     111.030 124.952 135.611  0.00  0.00    +0.000 C 
ENDBRANCH  39  42
BRANCH  40  44
ATOM     44  O   UNL     1     114.114 124.410 137.370  0.00  0.00    +0.000 OA
ATOM     45  C   UNL     1     114.849 124.761 137.502  0.00  0.00    +0.000 C 
ENDBRANCH  40  44
BRANCH  41  46
ATOM     46  O   UNL     1     112.808 123.644 136.714  0.00  0.00    +0.000 OA
ATOM     47  C   UNL     1     112.343 123.253 137.272  0.00  0.00    +0.000 C 
ENDBRANCH  41  46
ENDBRANCH   6  36
BRANCH  11  48
ATOM     48  O   UNL     1     114.661 129.797 135.205  0.00  0.00    +0.000 OA
ATOM     49  C   UNL     1     115.054 130.474 135.468  0.00  0.00    +0.000 C 
ENDBRANCH  11  48
TORSDOF 10
ENDMDL
MODEL 2
REMARK VINA RESULT:     -10.3      0.642      1.312
REMARK  Name = 75072286
REMARK  10 active torsions:
REMARK  status: ('A' for Active; 'I' for Inactive)
REMARK    1  A    between atoms: O_3  and  C_31
REMARK    2  A    between atoms: O_4  and  C_32
REMARK    3  A    between atoms: O_7  and  C_37
REMARK    4  A    between atoms: O_8  and  C_38
REMARK    5  A    between atoms: O_9  and  C_39
REMARK    6  A    between atoms: O_10  and  C_41
REMARK    7  A    between atoms: O_11  and  C_42
REMARK    8  A    between atoms: C_19  and  C_25
REMARK    9  A    between atoms: C_20  and  C_21
REMARK   10  A    between atoms: C_22  and  C_28
REMARK                            x       y       z     vdW  Elec       q    Type
REMARK                         _______ _______ _______ _____ _____    ______ ____
ROOT
ATOM      1  O   UNL     1     113.656 127.184 136.198  0.00  0.00    +0.000 OA
ATOM      2  O   UNL     1     114.619 127.968 135.102  0.00  0.00    +0.000 OA
ATOM      3  C   UNL     1     113.377 128.479 136.823  0.00  0.00    +0.000 A 
ATOM      4  C   UNL     1     112.872 128.101 137.405  0.00  0.00    +0.000 C 
ATOM      5  C   UNL     1     112.758 127.249 137.380  0.00  0.00    +0.000 C 
ATOM      6  C   UNL     1     113.153 126.788 136.772  0.00  0.00    +0.000 C 
ATOM      7  C   UNL     1     113.483 129.297 136.853  0.00  0.00    +0.000 A 
ATOM      8  C   UNL     1     113.756 128.036 136.240  0.00  0.00    +0.000 A 
ATOM      9  C   UNL     1     113.966 129.672 136.300  0.00  0.00    +0.000 A 
ATOM     10  C   UNL     1     114.240 128.411 135.686  0.00  0.00    +0.000 A 
ATOM     11  C   UNL     1     114.345 129.229 135.716  0.00  0.00    +0.000 A 
ENDROOT
BRANCH   7  17
ATOM     12  O   UNL     1     111.212 130.865 137.728  0.00  0.00    +0.000 OA
ATOM     13  O   UNL     1     111.967 131.070 139.187  0.00  0.00    +0.000 OA
ATOM     14  C   UNL     1     112.363 130.072 137.288  0.00  0.00    +0.000 A 
ATOM     15  C   UNL     1     111.996 129.948 136.520  0.00  0.00    +0.000 C 
ATOM     16  C   UNL     1     111.225 130.290 136.359  0.00  0.00    +0.000 C 
ATOM     17  C   UNL     1     113.104 129.741 137.436  0.00  0.00    +0.000 A 
ATOM     18  C   UNL     1     110.830 130.752 136.967  0.00  0.00    +0.000 C 
ATOM     19  C   UNL     1     111.984 130.515 137.871  0.00  0.00    +0.000 A 
ATOM     20  C   UNL     1     113.466 129.853 138.170  0.00  0.00    +0.000 A 
ATOM     21  C   UNL     1     112.346 130.627 138.604  0.00  0.00    +0.000 A 
ATOM     22  C   UNL     1     113.087 130.296 138.754  0.00  0.00    +0.000 A 
BRANCH  18  24
ATOM     23  O   UNL     1     107.981 130.618 137.140  0.00  0.00    +0.000 OA
ATOM     24  C   UNL     1     110.090 131.084 136.820  0.00  0.00    +0.000 A 
ATOM     25  C   UNL     1     110.032 131.814 136.441  0.00  0.00    +0.000 A 
ATOM     26  C   UNL     1     109.406 130.686 137.053  0.00  0.00    +0.000 A 
ATOM     27  C   UNL     1     109.291 132.146 136.294  0.00  0.00    +0.000 A 
ATOM     28  C   UNL     1     108.664 131.017 136.907  0.00  0.00    +0.000 A 
ATOM     29  C   UNL     1     108.607 131.748 136.527  0.00  0.00    +0.000 A 
BRANCH  27  30
ATOM     30  O   UNL     1     109.234 132.876 135.915  0.00  0.00    +0.000 OA
ATOM     31  C   UNL     1     109.910 133.335 135.799  0.00  0.00    +0.000 C 
ENDBRANCH  27  30
BRANCH  29  32
ATOM     32  O   UNL     1     107.867 132.079 136.381  0.00  0.00    +0.000 OA
ATOM     33  C   UNL     1     107.362 131.733 135.828  0.00  0.00    +0.000 C 
ENDBRANCH  29  32
ENDBRANCH  18  24
BRANCH  22  34
ATOM     34  O   UNL     1     113.448 130.408 139.486  0.00  0.00    +0.000 OA
ATOM     35  C   UNL     1     114.257 130.567 139.527  0.00  0.00    +0.000 C 
ENDBRANCH  22  34
ENDBRANCH   7  17
BRANCH   6  36
ATOM     36  C   UNL     1     113.051 125.969 136.739  0.00  0.00    +0.000 A 
ATOM     37  C   UNL     1     112.364 125.652 136.409  0.00  0.00    +0.000 A 
ATOM     38  C   UNL     1     113.635 125.469 137.036  0.00  0.00    +0.000 A 
ATOM     39  C   UNL     1     113.534 124.651 137.003  0.00  0.00    +0.000 A 
ATOM     40  C   UNL     1     112.262 124.835 136.376  0.00  0.00    +0.000 A 
ATOM     41  C   UNL     1     112.847 124.333 136.674  0.00  0.00    +0.000 A 
BRANCH  39  42
ATOM     42  O   UNL     1     114.119 124.150 137.301  0.00  0.00    +0.000 OA
ATOM     43  C   UNL     1     114.873 124.445 137.459  0.00  0.00    +0.000 C 
ENDBRANCH  39  42
BRANCH  40  44
ATOM     44  O   UNL     1     111.576 124.517 136.047  0.00  0.00    +0.000 OA
ATOM     45  C   UNL     1     111.044 125.007 135.650  0.00  0.00    +0.000 C 
ENDBRANCH  40  44
BRANCH  41  46
ATOM     46  O   UNL     1     112.745 123.516 136.641  0.00  0.00    +0.000 OA
ATOM     47  C   UNL     1     112.290 123.134 137.212  0.00  0.00    +0.000 C 
ENDBRANCH  41  46
ENDBRANCH   6  36
BRANCH  11  48
ATOM     48  O   UNL     1     114.828 129.603 135.162  0.00  0.00    +0.000 OA
ATOM     49  C   UNL     1     115.276 130.260 135.384  0.00  0.00    +0.000 C 
ENDBRANCH  11  48
TORSDOF 10
ENDMDL
MODEL 3
REMARK VINA RESULT:      -9.9      8.770     11.471
REMARK  Name = 75072286
REMARK  10 active torsions:
REMARK  status: ('A' for Active; 'I' for Inactive)
REMARK    1  A    between atoms: O_3  and  C_31
REMARK    2  A    between atoms: O_4  and  C_32
REMARK    3  A    between atoms: O_7  and  C_37
REMARK    4  A    between atoms: O_8  and  C_38
REMARK    5  A    between atoms: O_9  and  C_39
REMARK    6  A    between atoms: O_10  and  C_41
REMARK    7  A    between atoms: O_11  and  C_42
REMARK    8  A    between atoms: C_19  and  C_25
REMARK    9  A    between atoms: C_20  and  C_21
REMARK   10  A    between atoms: C_22  and  C_28
REMARK                            x       y       z     vdW  Elec       q    Type
REMARK                         _______ _______ _______ _____ _____    ______ ____
ROOT
ATOM      1  O   UNL     1     105.261 129.372 142.210  0.00  0.00    +0.000 OA
ATOM      2  O   UNL     1     106.809 129.956 142.282  0.00  0.00    +0.000 OA
ATOM      3  C   UNL     1     105.792 128.035 142.485  0.00  0.00    +0.000 A 
ATOM      4  C   UNL     1     105.001 127.703 142.454  0.00  0.00    +0.000 C 
ATOM      5  C   UNL     1     104.330 128.218 142.297  0.00  0.00    +0.000 C 
ATOM      6  C   UNL     1     104.461 129.058 142.175  0.00  0.00    +0.000 C 
ATOM      7  C   UNL     1     106.432 127.536 142.635  0.00  0.00    +0.000 A 
ATOM      8  C   UNL     1     105.918 128.841 142.367  0.00  0.00    +0.000 A 
ATOM      9  C   UNL     1     107.196 127.843 142.668  0.00  0.00    +0.000 A 
ATOM     10  C   UNL     1     106.684 129.149 142.400  0.00  0.00    +0.000 A 
ATOM     11  C   UNL     1     107.322 128.649 142.550  0.00  0.00    +0.000 A 
ENDROOT
BRANCH   7  17
ATOM     12  O   UNL     1     106.120 125.286 144.430  0.00  0.00    +0.000 OA
ATOM     13  O   UNL     1     105.929 124.308 143.107  0.00  0.00    +0.000 OA
ATOM     14  C   UNL     1     106.278 126.423 143.519  0.00  0.00    +0.000 A 
ATOM     15  C   UNL     1     106.380 126.955 144.186  0.00  0.00    +0.000 C 
ATOM     16  C   UNL     1     106.352 126.643 144.986  0.00  0.00    +0.000 C 
ATOM     17  C   UNL     1     106.306 126.729 142.753  0.00  0.00    +0.000 A 
ATOM     18  C   UNL     1     106.221 125.803 145.108  0.00  0.00    +0.000 C 
ATOM     19  C   UNL     1     106.152 125.616 143.637  0.00  0.00    +0.000 A 
ATOM     20  C   UNL     1     106.209 126.227 142.105  0.00  0.00    +0.000 A 
ATOM     21  C   UNL     1     106.055 125.115 142.989  0.00  0.00    +0.000 A 
ATOM     22  C   UNL     1     106.083 125.420 142.223  0.00  0.00    +0.000 A 
BRANCH  18  24
ATOM     23  O   UNL     1     107.551 125.033 147.518  0.00  0.00    +0.000 OA
ATOM     24  C   UNL     1     106.192 125.495 145.873  0.00  0.00    +0.000 A 
ATOM     25  C   UNL     1     105.470 125.263 146.198  0.00  0.00    +0.000 A 
ATOM     26  C   UNL     1     106.885 125.418 146.313  0.00  0.00    +0.000 A 
ATOM     27  C   UNL     1     105.441 124.955 146.963  0.00  0.00    +0.000 A 
ATOM     28  C   UNL     1     106.857 125.110 147.078  0.00  0.00    +0.000 A 
ATOM     29  C   UNL     1     106.135 124.878 147.403  0.00  0.00    +0.000 A 
BRANCH  27  30
ATOM     30  O   UNL     1     104.719 124.724 147.287  0.00  0.00    +0.000 OA
ATOM     31  C   UNL     1     104.081 124.553 146.793  0.00  0.00    +0.000 C 
ENDBRANCH  27  30
BRANCH  29  32
ATOM     32  O   UNL     1     106.106 124.571 148.167  0.00  0.00    +0.000 OA
ATOM     33  C   UNL     1     106.293 125.050 148.812  0.00  0.00    +0.000 C 
ENDBRANCH  29  32
ENDBRANCH  18  24
BRANCH  22  34
ATOM     34  O   UNL     1     105.986 124.919 141.575  0.00  0.00    +0.000 OA
ATOM     35  C   UNL     1     106.575 124.869 141.000  0.00  0.00    +0.000 C 
ENDBRANCH  22  34
ENDBRANCH   7  17
BRANCH   6  36
ATOM     36  C   UNL     1     103.824 129.561 142.024  0.00  0.00    +0.000 A 
ATOM     37  C   UNL     1     103.459 129.555 141.284  0.00  0.00    +0.000 A 
ATOM     38  C   UNL     1     103.552 130.069 142.614  0.00  0.00    +0.000 A 
ATOM     39  C   UNL     1     102.915 130.572 142.464  0.00  0.00    +0.000 A 
ATOM     40  C   UNL     1     102.823 130.057 141.134  0.00  0.00    +0.000 A 
ATOM     41  C   UNL     1     102.551 130.566 141.725  0.00  0.00    +0.000 A 
BRANCH  39  42
ATOM     42  O   UNL     1     102.643 131.080 143.055  0.00  0.00    +0.000 OA
ATOM     43  C   UNL     1     102.944 131.021 143.821  0.00  0.00    +0.000 C 
ENDBRANCH  39  42
BRANCH  40  44
ATOM     44  O   UNL     1     102.459 130.051 140.394  0.00  0.00    +0.000 OA
ATOM     45  C   UNL     1     102.406 129.348 139.965  0.00  0.00    +0.000 C 
ENDBRANCH  40  44
BRANCH  41  46
ATOM     46  O   UNL     1     101.915 131.068 141.574  0.00  0.00    +0.000 OA
ATOM     47  C   UNL     1     102.050 131.847 141.341  0.00  0.00    +0.000 C 
ENDBRANCH  41  46
ENDBRANCH   6  36
BRANCH  11  48
ATOM     48  O   UNL     1     108.087 128.957 142.582  0.00  0.00    +0.000 OA
ATOM     49  C   UNL     1     108.679 128.642 142.101  0.00  0.00    +0.000 C 
ENDBRANCH  11  48
TORSDOF 10
ENDMDL
MODEL 4
REMARK VINA RESULT:      -9.8      3.260      5.960
REMARK  Name = 75072286
REMARK  10 active torsions:
REMARK  status: ('A' for Active; 'I' for Inactive)
REMARK    1  A    between atoms: O_3  and  C_31
REMARK    2  A    between atoms: O_4  and  C_32
REMARK    3  A    between atoms: O_7  and  C_37
REMARK    4  A    between atoms: O_8  and  C_38
REMARK    5  A    between atoms: O_9  and  C_39
REMARK    6  A    between atoms: O_10  and  C_41
REMARK    7  A    between atoms: O_11  and  C_42
REMARK    8  A    between atoms: C_19  and  C_25
REMARK    9  A    between atoms: C_20  and  C_21
REMARK   10  A    between atoms: C_22  and  C_28
REMARK                            x       y       z     vdW  Elec       q    Type
REMARK                         _______ _______ _______ _____ _____    ______ ____
ROOT
ATOM      1  O   UNL     1     112.702 128.304 138.349  0.00  0.00    +0.000 OA
ATOM      2  O   UNL     1     113.262 126.884 138.992  0.00  0.00    +0.000 OA
ATOM      3  C   UNL     1     113.171 128.991 139.555  0.00  0.00    +0.000 A 
ATOM      4  C   UNL     1     112.890 129.743 139.248  0.00  0.00    +0.000 C 
ATOM      5  C   UNL     1     112.509 129.771 138.478  0.00  0.00    +0.000 C 
ATOM      6  C   UNL     1     112.414 129.047 138.025  0.00  0.00    +0.000 C 
ATOM      7  C   UNL     1     113.535 128.970 140.295  0.00  0.00    +0.000 A 
ATOM      8  C   UNL     1     113.080 128.296 139.120  0.00  0.00    +0.000 A 
ATOM      9  C   UNL     1     113.809 128.255 140.600  0.00  0.00    +0.000 A 
ATOM     10  C   UNL     1     113.353 127.579 139.426  0.00  0.00    +0.000 A 
ATOM     11  C   UNL     1     113.718 127.559 140.166  0.00  0.00    +0.000 A 
ENDROOT
BRANCH   7  17
ATOM     12  O   UNL     1     112.672 130.716 142.436  0.00  0.00    +0.000 OA
ATOM     13  O   UNL     1     113.899 131.752 142.033  0.00  0.00    +0.000 OA
ATOM     14  C   UNL     1     113.111 129.834 141.351  0.00  0.00    +0.000 A 
ATOM     15  C   UNL     1     112.484 129.277 141.537  0.00  0.00    +0.000 C 
ATOM     16  C   UNL     1     111.944 129.447 142.183  0.00  0.00    +0.000 C 
ATOM     17  C   UNL     1     113.626 129.666 140.729  0.00  0.00    +0.000 A 
ATOM     18  C   UNL     1     112.039 130.171 142.636  0.00  0.00    +0.000 C 
ATOM     19  C   UNL     1     113.202 130.530 141.786  0.00  0.00    +0.000 A 
ATOM     20  C   UNL     1     114.233 130.193 140.542  0.00  0.00    +0.000 A 
ATOM     21  C   UNL     1     113.808 131.056 141.598  0.00  0.00    +0.000 A 
ATOM     22  C   UNL     1     114.324 130.889 140.976  0.00  0.00    +0.000 A 
BRANCH  18  24
ATOM     23  O   UNL     1     109.721 131.513 143.634  0.00  0.00    +0.000 OA
ATOM     24  C   UNL     1     111.525 130.342 143.258  0.00  0.00    +0.000 A 
ATOM     25  C   UNL     1     111.655 130.013 144.003  0.00  0.00    +0.000 A 
ATOM     26  C   UNL     1     110.880 130.842 143.135  0.00  0.00    +0.000 A 
ATOM     27  C   UNL     1     111.141 130.184 144.626  0.00  0.00    +0.000 A 
ATOM     28  C   UNL     1     110.365 131.013 143.758  0.00  0.00    +0.000 A 
ATOM     29  C   UNL     1     110.496 130.684 144.503  0.00  0.00    +0.000 A 
BRANCH  27  30
ATOM     30  O   UNL     1     111.272 129.855 145.371  0.00  0.00    +0.000 OA
ATOM     31  C   UNL     1     111.886 129.315 145.481  0.00  0.00    +0.000 C 
ENDBRANCH  27  30
BRANCH  29  32
ATOM     32  O   UNL     1     109.983 130.855 145.124  0.00  0.00    +0.000 OA
ATOM     33  C   UNL     1     109.933 131.624 145.419  0.00  0.00    +0.000 C 
ENDBRANCH  29  32
ENDBRANCH  18  24
BRANCH  22  34
ATOM     34  O   UNL     1     114.930 131.415 140.789  0.00  0.00    +0.000 OA
ATOM     35  C   UNL     1     115.710 131.150 140.746  0.00  0.00    +0.000 C 
ENDBRANCH  22  34
ENDBRANCH   7  17
BRANCH   6  36
ATOM     36  C   UNL     1     112.050 129.064 137.285  0.00  0.00    +0.000 A 
ATOM     37  C   UNL     1     112.496 129.218 136.608  0.00  0.00    +0.000 A 
ATOM     38  C   UNL     1     111.239 128.926 137.222  0.00  0.00    +0.000 A 
ATOM     39  C   UNL     1     110.874 128.942 136.482  0.00  0.00    +0.000 A 
ATOM     40  C   UNL     1     112.132 129.235 135.869  0.00  0.00    +0.000 A 
ATOM     41  C   UNL     1     111.320 129.097 135.805  0.00  0.00    +0.000 A 
BRANCH  39  42
ATOM     42  O   UNL     1     110.063 128.804 136.419  0.00  0.00    +0.000 OA
ATOM     43  C   UNL     1     109.677 128.349 136.988  0.00  0.00    +0.000 C 
ENDBRANCH  39  42
BRANCH  40  44
ATOM     44  O   UNL     1     112.578 129.389 135.193  0.00  0.00    +0.000 OA
ATOM     45  C   UNL     1     113.383 129.208 135.179  0.00  0.00    +0.000 C 
ENDBRANCH  40  44
BRANCH  41  46
ATOM     46  O   UNL     1     110.956 129.113 135.066  0.00  0.00    +0.000 OA
ATOM     47  C   UNL     1     110.558 129.791 134.818  0.00  0.00    +0.000 C 
ENDBRANCH  41  46
ENDBRANCH   6  36
BRANCH  11  48
ATOM     48  O   UNL     1     113.991 126.843 140.470  0.00  0.00    +0.000 OA
ATOM     49  C   UNL     1     114.698 126.820 140.897  0.00  0.00    +0.000 C 
ENDBRANCH  11  48
TORSDOF 10
ENDMDL
MODEL 5
REMARK VINA RESULT:      -9.7      9.143     10.329
REMARK  Name = 75072286
REMARK  10 active torsions:
REMARK  status: ('A' for Active; 'I' for Inactive)
REMARK    1  A    between atoms: O_3  and  C_31
REMARK    2  A    between atoms: O_4  and  C_32
REMARK    3  A    between atoms: O_7  and  C_37
REMARK    4  A    between atoms: O_8  and  C_38
REMARK    5  A    between atoms: O_9  and  C_39
REMARK    6  A    between atoms: O_10  and  C_41
REMARK    7  A    between atoms: O_11  and  C_42
REMARK    8  A    between atoms: C_19  and  C_25
REMARK    9  A    between atoms: C_20  and  C_21
REMARK   10  A    between atoms: C_22  and  C_28
REMARK                            x       y       z     vdW  Elec       q    Type
REMARK                         _______ _______ _______ _____ _____    ______ ____
ROOT
ATOM      1  O   UNL     1     106.153 125.321 144.944  0.00  0.00    +0.000 OA
ATOM      2  O   UNL     1     105.982 124.411 143.571  0.00  0.00    +0.000 OA
ATOM      3  C   UNL     1     106.357 126.497 144.096  0.00  0.00    +0.000 A 
ATOM      4  C   UNL     1     106.450 126.995 144.789  0.00  0.00    +0.000 C 
ATOM      5  C   UNL     1     106.393 126.645 145.573  0.00  0.00    +0.000 C 
ATOM      6  C   UNL     1     106.243 125.803 145.651  0.00  0.00    +0.000 C 
ATOM      7  C   UNL     1     106.413 126.838 143.346  0.00  0.00    +0.000 A 
ATOM      8  C   UNL     1     106.214 125.689 144.170  0.00  0.00    +0.000 A 
ATOM      9  C   UNL     1     106.325 126.371 142.672  0.00  0.00    +0.000 A 
ATOM     10  C   UNL     1     106.126 125.220 143.496  0.00  0.00    +0.000 A 
ATOM     11  C   UNL     1     106.182 125.562 142.747  0.00  0.00    +0.000 A 
ENDROOT
BRANCH   7  17
ATOM     12  O   UNL     1     105.459 129.506 142.754  0.00  0.00    +0.000 OA
ATOM     13  O   UNL     1     106.986 130.074 143.047  0.00  0.00    +0.000 OA
ATOM     14  C   UNL     1     105.945 128.157 143.054  0.00  0.00    +0.000 A 
ATOM     15  C   UNL     1     105.162 127.832 142.909  0.00  0.00    +0.000 C 
ATOM     16  C   UNL     1     104.521 128.358 142.683  0.00  0.00    +0.000 C 
ATOM     17  C   UNL     1     106.556 127.647 143.271  0.00  0.00    +0.000 A 
ATOM     18  C   UNL     1     104.670 129.200 142.605  0.00  0.00    +0.000 C 
ATOM     19  C   UNL     1     106.088 128.966 142.980  0.00  0.00    +0.000 A 
ATOM     20  C   UNL     1     107.312 127.948 143.413  0.00  0.00    +0.000 A 
ATOM     21  C   UNL     1     106.843 129.265 143.121  0.00  0.00    +0.000 A 
ATOM     22  C   UNL     1     107.455 128.757 143.338  0.00  0.00    +0.000 A 
BRANCH  18  24
ATOM     23  O   UNL     1     103.080 130.436 140.577  0.00  0.00    +0.000 OA
ATOM     24  C   UNL     1     104.060 129.711 142.388  0.00  0.00    +0.000 A 
ATOM     25  C   UNL     1     103.635 130.116 142.968  0.00  0.00    +0.000 A 
ATOM     26  C   UNL     1     103.875 129.818 141.592  0.00  0.00    +0.000 A 
ATOM     27  C   UNL     1     103.025 130.627 142.751  0.00  0.00    +0.000 A 
ATOM     28  C   UNL     1     103.265 130.329 141.374  0.00  0.00    +0.000 A 
ATOM     29  C   UNL     1     102.840 130.734 141.954  0.00  0.00    +0.000 A 
BRANCH  27  30
ATOM     30  O   UNL     1     102.600 131.031 143.331  0.00  0.00    +0.000 OA
ATOM     31  C   UNL     1     102.972 131.260 144.031  0.00  0.00    +0.000 C 
ENDBRANCH  27  30
BRANCH  29  32
ATOM     32  O   UNL     1     102.230 131.245 141.737  0.00  0.00    +0.000 OA
ATOM     33  C   UNL     1     101.540 130.944 141.400  0.00  0.00    +0.000 C 
ENDBRANCH  29  32
ENDBRANCH  18  24
BRANCH  22  34
ATOM     34  O   UNL     1     108.210 129.056 143.480  0.00  0.00    +0.000 OA
ATOM     35  C   UNL     1     108.834 128.859 142.978  0.00  0.00    +0.000 C 
ENDBRANCH  22  34
ENDBRANCH   7  17
BRANCH   6  36
ATOM     36  C   UNL     1     106.187 125.458 146.399  0.00  0.00    +0.000 A 
ATOM     37  C   UNL     1     106.861 125.372 146.866  0.00  0.00    +0.000 A 
ATOM     38  C   UNL     1     105.455 125.199 146.679  0.00  0.00    +0.000 A 
ATOM     39  C   UNL     1     105.398 124.854 147.426  0.00  0.00    +0.000 A 
ATOM     40  C   UNL     1     106.805 125.027 147.612  0.00  0.00    +0.000 A 
ATOM     41  C   UNL     1     106.072 124.768 147.893  0.00  0.00    +0.000 A 
BRANCH  39  42
ATOM     42  O   UNL     1     104.666 124.596 147.706  0.00  0.00    +0.000 OA
ATOM     43  C   UNL     1     104.065 124.404 147.174  0.00  0.00    +0.000 C 
ENDBRANCH  39  42
BRANCH  40  44
ATOM     44  O   UNL     1     107.479 124.941 148.080  0.00  0.00    +0.000 OA
ATOM     45  C   UNL     1     108.225 125.080 147.757  0.00  0.00    +0.000 C 
ENDBRANCH  40  44
BRANCH  41  46
ATOM     46  O   UNL     1     106.016 124.424 148.640  0.00  0.00    +0.000 OA
ATOM     47  C   UNL     1     105.868 124.894 149.301  0.00  0.00    +0.000 C 
ENDBRANCH  41  46
ENDBRANCH   6  36
BRANCH  11  48
ATOM     48  O   UNL     1     106.094 125.094 142.074  0.00  0.00    +0.000 OA
ATOM     49  C   UNL     1     106.702 125.057 141.516  0.00  0.00    +0.000 C 
ENDBRANCH  11  48
TORSDOF 10
ENDMDL
MODEL 6
REMARK VINA RESULT:      -9.6      3.660      6.911
REMARK  Name = 75072286
REMARK  10 active torsions:
REMARK  status: ('A' for Active; 'I' for Inactive)
REMARK    1  A    between atoms: O_3  and  C_31
REMARK    2  A    between atoms: O_4  and  C_32
REMARK    3  A    between atoms: O_7  and  C_37
REMARK    4  A    between atoms: O_8  and  C_38
REMARK    5  A    between atoms: O_9  and  C_39
REMARK    6  A    between atoms: O_10  and  C_41
REMARK    7  A    between atoms: O_11  and  C_42
REMARK    8  A    between atoms: C_19  and  C_25
REMARK    9  A    between atoms: C_20  and  C_21
REMARK   10  A    between atoms: C_22  and  C_28
REMARK                            x       y       z     vdW  Elec       q    Type
REMARK                         _______ _______ _______ _____ _____    ______ ____
ROOT
ATOM      1  O   UNL     1     112.690 130.663 138.828  0.00  0.00    +0.000 OA
ATOM      2  O   UNL     1     114.277 131.056 139.095  0.00  0.00    +0.000 OA
ATOM      3  C   UNL     1     112.651 130.069 140.167  0.00  0.00    +0.000 A 
ATOM      4  C   UNL     1     111.827 129.853 140.058  0.00  0.00    +0.000 C 
ATOM      5  C   UNL     1     111.432 130.046 139.319  0.00  0.00    +0.000 C 
ATOM      6  C   UNL     1     111.866 130.454 138.701  0.00  0.00    +0.000 C 
ATOM      7  C   UNL     1     113.025 129.881 140.878  0.00  0.00    +0.000 A 
ATOM      8  C   UNL     1     113.068 130.461 139.573  0.00  0.00    +0.000 A 
ATOM      9  C   UNL     1     113.816 130.084 140.995  0.00  0.00    +0.000 A 
ATOM     10  C   UNL     1     113.860 130.664 139.689  0.00  0.00    +0.000 A 
ATOM     11  C   UNL     1     114.233 130.476 140.400  0.00  0.00    +0.000 A 
ENDROOT
BRANCH   7  17
ATOM     12  O   UNL     1     111.617 129.943 143.406  0.00  0.00    +0.000 OA
ATOM     13  O   UNL     1     111.356 128.315 143.255  0.00  0.00    +0.000 OA
ATOM     14  C   UNL     1     112.329 129.908 142.126  0.00  0.00    +0.000 A 
ATOM     15  C   UNL     1     112.480 130.753 142.176  0.00  0.00    +0.000 C 
ATOM     16  C   UNL     1     112.192 131.195 142.854  0.00  0.00    +0.000 C 
ATOM     17  C   UNL     1     112.608 129.490 141.472  0.00  0.00    +0.000 A 
ATOM     18  C   UNL     1     111.758 130.788 143.473  0.00  0.00    +0.000 C 
ATOM     19  C   UNL     1     111.912 129.517 142.720  0.00  0.00    +0.000 A 
ATOM     20  C   UNL     1     112.469 128.678 141.413  0.00  0.00    +0.000 A 
ATOM     21  C   UNL     1     111.773 128.706 142.661  0.00  0.00    +0.000 A 
ATOM     22  C   UNL     1     112.052 128.286 142.007  0.00  0.00    +0.000 A 
BRANCH  18  24
ATOM     23  O   UNL     1     109.699 132.310 144.742  0.00  0.00    +0.000 OA
ATOM     24  C   UNL     1     111.478 131.205 144.127  0.00  0.00    +0.000 A 
ATOM     25  C   UNL     1     111.947 131.278 144.802  0.00  0.00    +0.000 A 
ATOM     26  C   UNL     1     110.729 131.549 144.108  0.00  0.00    +0.000 A 
ATOM     27  C   UNL     1     111.668 131.695 145.456  0.00  0.00    +0.000 A 
ATOM     28  C   UNL     1     110.448 131.967 144.762  0.00  0.00    +0.000 A 
ATOM     29  C   UNL     1     110.918 132.039 145.437  0.00  0.00    +0.000 A 
BRANCH  27  30
ATOM     30  O   UNL     1     112.137 131.768 146.131  0.00  0.00    +0.000 OA
ATOM     31  C   UNL     1     112.687 131.181 146.316  0.00  0.00    +0.000 C 
ENDBRANCH  27  30
BRANCH  29  32
ATOM     32  O   UNL     1     110.638 132.456 146.090  0.00  0.00    +0.000 OA
ATOM     33  C   UNL     1     110.531 133.273 146.044  0.00  0.00    +0.000 C 
ENDBRANCH  29  32
ENDBRANCH  18  24
BRANCH  22  34
ATOM     34  O   UNL     1     111.913 127.476 141.948  0.00  0.00    +0.000 OA
ATOM     35  C   UNL     1     112.490 126.980 141.629  0.00  0.00    +0.000 C 
ENDBRANCH  22  34
ENDBRANCH   7  17
BRANCH   6  36
ATOM     36  C   UNL     1     111.495 130.644 137.988  0.00  0.00    +0.000 A 
ATOM     37  C   UNL     1     111.044 131.332 137.928  0.00  0.00    +0.000 A 
ATOM     38  C   UNL     1     111.576 130.145 137.336  0.00  0.00    +0.000 A 
ATOM     39  C   UNL     1     111.206 130.335 136.623  0.00  0.00    +0.000 A 
ATOM     40  C   UNL     1     110.674 131.521 137.216  0.00  0.00    +0.000 A 
ATOM     41  C   UNL     1     110.755 131.023 136.563  0.00  0.00    +0.000 A 
BRANCH  39  42
ATOM     42  O   UNL     1     111.287 129.836 135.971  0.00  0.00    +0.000 OA
ATOM     43  C   UNL     1     111.976 129.392 135.874  0.00  0.00    +0.000 C 
ENDBRANCH  39  42
BRANCH  40  44
ATOM     44  O   UNL     1     110.222 132.209 137.156  0.00  0.00    +0.000 OA
ATOM     45  C   UNL     1     110.364 132.842 137.666  0.00  0.00    +0.000 C 
ENDBRANCH  40  44
BRANCH  41  46
ATOM     46  O   UNL     1     110.385 131.212 135.851  0.00  0.00    +0.000 OA
ATOM     47  C   UNL     1     109.622 130.939 135.697  0.00  0.00    +0.000 C 
ENDBRANCH  41  46
ENDBRANCH   6  36
BRANCH  11  48
ATOM     48  O   UNL     1     115.024 130.679 140.516  0.00  0.00    +0.000 OA
ATOM     49  C   UNL     1     115.591 130.087 140.618  0.00  0.00    +0.000 C 
ENDBRANCH  11  48
TORSDOF 10
ENDMDL
MODEL 7
REMARK VINA RESULT:      -9.6      3.421      6.221
REMARK  Name = 75072286
REMARK  10 active torsions:
REMARK  status: ('A' for Active; 'I' for Inactive)
REMARK    1  A    between atoms: O_3  and  C_31
REMARK    2  A    between atoms: O_4  and  C_32
REMARK    3  A    between atoms: O_7  and  C_37
REMARK    4  A    between atoms: O_8  and  C_38
REMARK    5  A    between atoms: O_9  and  C_39
REMARK    6  A    between atoms: O_10  and  C_41
REMARK    7  A    between atoms: O_11  and  C_42
REMARK    8  A    between atoms: C_19  and  C_25
REMARK    9  A    between atoms: C_20  and  C_21
REMARK   10  A    between atoms: C_22  and  C_28
REMARK                            x       y       z     vdW  Elec       q    Type
REMARK                         _______ _______ _______ _____ _____    ______ ____
ROOT
ATOM      1  O   UNL     1     112.364 130.275 142.550  0.00  0.00    +0.000 OA
ATOM      2  O   UNL     1     113.434 131.496 142.221  0.00  0.00    +0.000 OA
ATOM      3  C   UNL     1     112.916 129.535 141.412  0.00  0.00    +0.000 A 
ATOM      4  C   UNL     1     112.373 128.886 141.558  0.00  0.00    +0.000 C 
ATOM      5  C   UNL     1     111.818 128.936 142.212  0.00  0.00    +0.000 C 
ATOM      6  C   UNL     1     111.813 129.635 142.711  0.00  0.00    +0.000 C 
ATOM      7  C   UNL     1     113.447 129.482 140.783  0.00  0.00    +0.000 A 
ATOM      8  C   UNL     1     112.912 130.207 141.891  0.00  0.00    +0.000 A 
ATOM      9  C   UNL     1     113.973 130.099 140.633  0.00  0.00    +0.000 A 
ATOM     10  C   UNL     1     113.438 130.825 141.741  0.00  0.00    +0.000 A 
ATOM     11  C   UNL     1     113.969 130.770 141.112  0.00  0.00    +0.000 A 
ENDROOT
BRANCH   7  17
ATOM     12  O   UNL     1     112.769 128.183 138.287  0.00  0.00    +0.000 OA
ATOM     13  O   UNL     1     113.465 126.796 138.865  0.00  0.00    +0.000 OA
ATOM     14  C   UNL     1     113.114 128.838 139.551  0.00  0.00    +0.000 A 
ATOM     15  C   UNL     1     112.760 129.572 139.278  0.00  0.00    +0.000 C 
ATOM     16  C   UNL     1     112.407 129.607 138.496  0.00  0.00    +0.000 C 
ATOM     17  C   UNL     1     113.452 128.810 140.303  0.00  0.00    +0.000 A 
ATOM     18  C   UNL     1     112.411 128.908 137.997  0.00  0.00    +0.000 C 
ATOM     19  C   UNL     1     113.119 128.166 139.072  0.00  0.00    +0.000 A 
ATOM     20  C   UNL     1     113.795 128.111 140.576  0.00  0.00    +0.000 A 
ATOM     21  C   UNL     1     113.461 127.468 139.345  0.00  0.00    +0.000 A 
ATOM     22  C   UNL     1     113.799 127.439 140.097  0.00  0.00    +0.000 A 
BRANCH  18  24
ATOM     23  O   UNL     1     110.134 128.615 136.295  0.00  0.00    +0.000 OA
ATOM     24  C   UNL     1     112.074 128.933 137.245  0.00  0.00    +0.000 A 
ATOM     25  C   UNL     1     112.537 129.129 136.591  0.00  0.00    +0.000 A 
ATOM     26  C   UNL     1     111.273 128.761 137.146  0.00  0.00    +0.000 A 
ATOM     27  C   UNL     1     112.199 129.154 135.838  0.00  0.00    +0.000 A 
ATOM     28  C   UNL     1     110.935 128.786 136.393  0.00  0.00    +0.000 A 
ATOM     29  C   UNL     1     111.398 128.982 135.740  0.00  0.00    +0.000 A 
BRANCH  27  30
ATOM     30  O   UNL     1     112.663 129.350 135.185  0.00  0.00    +0.000 OA
ATOM     31  C   UNL     1     113.480 129.239 135.210  0.00  0.00    +0.000 C 
ENDBRANCH  27  30
BRANCH  29  32
ATOM     32  O   UNL     1     111.061 129.007 134.988  0.00  0.00    +0.000 OA
ATOM     33  C   UNL     1     110.484 129.571 134.813  0.00  0.00    +0.000 C 
ENDBRANCH  29  32
ENDBRANCH  18  24
BRANCH  22  34
ATOM     34  O   UNL     1     114.141 126.740 140.370  0.00  0.00    +0.000 OA
ATOM     35  C   UNL     1     114.850 126.765 140.792  0.00  0.00    +0.000 C 
ENDBRANCH  22  34
ENDBRANCH   7  17
BRANCH   6  36
ATOM     36  C   UNL     1     111.283 129.692 143.342  0.00  0.00    +0.000 A 
ATOM     37  C   UNL     1     111.486 129.387 144.081  0.00  0.00    +0.000 A 
ATOM     38  C   UNL     1     110.551 130.055 143.232  0.00  0.00    +0.000 A 
ATOM     39  C   UNL     1     110.021 130.113 143.862  0.00  0.00    +0.000 A 
ATOM     40  C   UNL     1     110.957 129.444 144.710  0.00  0.00    +0.000 A 
ATOM     41  C   UNL     1     110.224 129.808 144.601  0.00  0.00    +0.000 A 
BRANCH  39  42
ATOM     42  O   UNL     1     109.288 130.476 143.753  0.00  0.00    +0.000 OA
ATOM     43  C   UNL     1     109.138 130.902 143.062  0.00  0.00    +0.000 C 
ENDBRANCH  39  42
BRANCH  40  44
ATOM     44  O   UNL     1     111.160 129.139 145.449  0.00  0.00    +0.000 OA
ATOM     45  C   UNL     1     111.950 128.979 145.627  0.00  0.00    +0.000 C 
ENDBRANCH  40  44
BRANCH  41  46
ATOM     46  O   UNL     1     109.695 129.865 145.230  0.00  0.00    +0.000 OA
ATOM     47  C   UNL     1     109.109 129.294 145.331  0.00  0.00    +0.000 C 
ENDBRANCH  41  46
ENDBRANCH   6  36
BRANCH  11  48
ATOM     48  O   UNL     1     114.494 131.388 140.963  0.00  0.00    +0.000 OA
ATOM     49  C   UNL     1     115.306 131.240 140.931  0.00  0.00    +0.000 C 
ENDBRANCH  11  48
TORSDOF 10
ENDMDL
MODEL 8
REMARK VINA RESULT:      -9.6      2.489      4.694
REMARK  Name = 75072286
REMARK  10 active torsions:
REMARK  status: ('A' for Active; 'I' for Inactive)
REMARK    1  A    between atoms: O_3  and  C_31
REMARK    2  A    between atoms: O_4  and  C_32
REMARK    3  A    between atoms: O_7  and  C_37
REMARK    4  A    between atoms: O_8  and  C_38
REMARK    5  A    between atoms: O_9  and  C_39
REMARK    6  A    between atoms: O_10  and  C_41
REMARK    7  A    between atoms: O_11  and  C_42
REMARK    8  A    between atoms: C_19  and  C_25
REMARK    9  A    between atoms: C_20  and  C_21
REMARK   10  A    between atoms: C_22  and  C_28
REMARK                            x       y       z     vdW  Elec       q    Type
REMARK                         _______ _______ _______ _____ _____    ______ ____
ROOT
ATOM      1  O   UNL     1     112.659 127.678 137.314  0.00  0.00    +0.000 OA
ATOM      2  O   UNL     1     113.710 128.900 136.929  0.00  0.00    +0.000 OA
ATOM      3  C   UNL     1     111.887 128.641 138.103  0.00  0.00    +0.000 A 
ATOM      4  C   UNL     1     111.325 128.028 138.319  0.00  0.00    +0.000 C 
ATOM      5  C   UNL     1     111.436 127.228 138.026  0.00  0.00    +0.000 C 
ATOM      6  C   UNL     1     112.107 127.052 137.520  0.00  0.00    +0.000 C 
ATOM      7  C   UNL     1     111.775 129.407 138.387  0.00  0.00    +0.000 A 
ATOM      8  C   UNL     1     112.532 128.472 137.617  0.00  0.00    +0.000 A 
ATOM      9  C   UNL     1     112.308 130.004 138.186  0.00  0.00    +0.000 A 
ATOM     10  C   UNL     1     113.065 129.069 137.415  0.00  0.00    +0.000 A 
ATOM     11  C   UNL     1     112.952 129.835 137.700  0.00  0.00    +0.000 A 
ENDROOT
BRANCH   7  17
ATOM     12  O   UNL     1     110.685 129.876 141.027  0.00  0.00    +0.000 OA
ATOM     13  O   UNL     1     109.196 130.084 140.332  0.00  0.00    +0.000 OA
ATOM     14  C   UNL     1     111.234 129.639 139.689  0.00  0.00    +0.000 A 
ATOM     15  C   UNL     1     112.019 129.525 140.021  0.00  0.00    +0.000 C 
ATOM     16  C   UNL     1     112.133 129.589 140.870  0.00  0.00    +0.000 C 
ATOM     17  C   UNL     1     111.131 129.577 138.873  0.00  0.00    +0.000 A 
ATOM     18  C   UNL     1     111.462 129.765 141.376  0.00  0.00    +0.000 C 
ATOM     19  C   UNL     1     110.589 129.808 140.175  0.00  0.00    +0.000 A 
ATOM     20  C   UNL     1     110.381 129.684 138.543  0.00  0.00    +0.000 A 
ATOM     21  C   UNL     1     109.841 129.915 139.846  0.00  0.00    +0.000 A 
ATOM     22  C   UNL     1     109.737 129.853 139.029  0.00  0.00    +0.000 A 
BRANCH  18  24
ATOM     23  O   UNL     1     111.579 128.541 143.957  0.00  0.00    +0.000 OA
ATOM     24  C   UNL     1     111.563 129.828 142.193  0.00  0.00    +0.000 A 
ATOM     25  C   UNL     1     111.706 130.564 142.536  0.00  0.00    +0.000 A 
ATOM     26  C   UNL     1     111.520 129.154 142.667  0.00  0.00    +0.000 A 
ATOM     27  C   UNL     1     111.807 130.627 143.352  0.00  0.00    +0.000 A 
ATOM     28  C   UNL     1     111.621 129.216 143.484  0.00  0.00    +0.000 A 
ATOM     29  C   UNL     1     111.764 129.953 143.826  0.00  0.00    +0.000 A 
BRANCH  27  30
ATOM     30  O   UNL     1     111.950 131.364 143.695  0.00  0.00    +0.000 OA
ATOM     31  C   UNL     1     112.236 131.985 143.233  0.00  0.00    +0.000 C 
ENDBRANCH  27  30
BRANCH  29  32
ATOM     32  O   UNL     1     111.865 130.015 144.642  0.00  0.00    +0.000 OA
ATOM     33  C   UNL     1     111.253 129.799 145.151  0.00  0.00    +0.000 C 
ENDBRANCH  29  32
ENDBRANCH  18  24
BRANCH  22  34
ATOM     34  O   UNL     1     108.989 129.960 138.699  0.00  0.00    +0.000 OA
ATOM     35  C   UNL     1     108.876 130.520 138.104  0.00  0.00    +0.000 C 
ENDBRANCH  22  34
ENDBRANCH   7  17
BRANCH   6  36
ATOM     36  C   UNL     1     112.223 126.286 137.233  0.00  0.00    +0.000 A 
ATOM     37  C   UNL     1     112.882 125.851 137.470  0.00  0.00    +0.000 A 
ATOM     38  C   UNL     1     111.678 125.957 136.708  0.00  0.00    +0.000 A 
ATOM     39  C   UNL     1     111.792 125.192 136.421  0.00  0.00    +0.000 A 
ATOM     40  C   UNL     1     112.996 125.087 137.184  0.00  0.00    +0.000 A 
ATOM     41  C   UNL     1     112.451 124.756 136.659  0.00  0.00    +0.000 A 
BRANCH  39  42
ATOM     42  O   UNL     1     111.247 124.862 135.897  0.00  0.00    +0.000 OA
ATOM     43  C   UNL     1     110.792 125.352 135.412  0.00  0.00    +0.000 C 
ENDBRANCH  39  42
BRANCH  40  44
ATOM     44  O   UNL     1     113.656 124.651 137.421  0.00  0.00    +0.000 OA
ATOM     45  C   UNL     1     114.379 125.030 137.541  0.00  0.00    +0.000 C 
ENDBRANCH  40  44
BRANCH  41  46
ATOM     46  O   UNL     1     112.566 123.992 136.372  0.00  0.00    +0.000 OA
ATOM     47  C   UNL     1     112.263 123.347 136.786  0.00  0.00    +0.000 C 
ENDBRANCH  41  46
ENDBRANCH   6  36
BRANCH  11  48
ATOM     48  O   UNL     1     113.485 130.431 137.498  0.00  0.00    +0.000 OA
ATOM     49  C   UNL     1     113.222 131.098 137.088  0.00  0.00    +0.000 C 
ENDBRANCH  11  48
TORSDOF 10
ENDMDL
MODEL 9
REMARK VINA RESULT:      -9.5      7.996     10.356
REMARK  Name = 75072286
REMARK  10 active torsions:
REMARK  status: ('A' for Active; 'I' for Inactive)
REMARK    1  A    between atoms: O_3  and  C_31
REMARK    2  A    between atoms: O_4  and  C_32
REMARK    3  A    between atoms: O_7  and  C_37
REMARK    4  A    between atoms: O_8  and  C_38
REMARK    5  A    between atoms: O_9  and  C_39
REMARK    6  A    between atoms: O_10  and  C_41
REMARK    7  A    between atoms: O_11  and  C_42
REMARK    8  A    between atoms: C_19  and  C_25
REMARK    9  A    between atoms: C_20  and  C_21
REMARK   10  A    between atoms: C_22  and  C_28
REMARK                            x       y       z     vdW  Elec       q    Type
REMARK                         _______ _______ _______ _____ _____    ______ ____
ROOT
ATOM      1  O   UNL     1     106.862 129.539 141.845  0.00  0.00    +0.000 OA
ATOM      2  O   UNL     1     105.296 130.073 141.921  0.00  0.00    +0.000 OA
ATOM      3  C   UNL     1     106.369 128.176 142.060  0.00  0.00    +0.000 A 
ATOM      4  C   UNL     1     107.170 127.869 142.026  0.00  0.00    +0.000 C 
ATOM      5  C   UNL     1     107.826 128.410 141.898  0.00  0.00    +0.000 C 
ATOM      6  C   UNL     1     107.671 129.250 141.807  0.00  0.00    +0.000 C 
ATOM      7  C   UNL     1     105.743 127.653 142.183  0.00  0.00    +0.000 A 
ATOM      8  C   UNL     1     106.220 128.983 141.973  0.00  0.00    +0.000 A 
ATOM      9  C   UNL     1     104.969 127.935 142.218  0.00  0.00    +0.000 A 
ATOM     10  C   UNL     1     105.445 129.266 142.008  0.00  0.00    +0.000 A 
ATOM     11  C   UNL     1     104.820 128.742 142.131  0.00  0.00    +0.000 A 
ENDROOT
BRANCH   7  17
ATOM     12  O   UNL     1     106.080 125.339 143.889  0.00  0.00    +0.000 OA
ATOM     13  O   UNL     1     106.338 124.426 142.533  0.00  0.00    +0.000 OA
ATOM     14  C   UNL     1     105.910 126.509 143.023  0.00  0.00    +0.000 A 
ATOM     15  C   UNL     1     105.772 127.009 143.709  0.00  0.00    +0.000 C 
ATOM     16  C   UNL     1     105.790 126.664 144.495  0.00  0.00    +0.000 C 
ATOM     17  C   UNL     1     105.891 126.846 142.270  0.00  0.00    +0.000 A 
ATOM     18  C   UNL     1     105.945 125.824 144.586  0.00  0.00    +0.000 C 
ATOM     19  C   UNL     1     106.059 125.702 143.110  0.00  0.00    +0.000 A 
ATOM     20  C   UNL     1     106.022 126.376 141.604  0.00  0.00    +0.000 A 
ATOM     21  C   UNL     1     106.189 125.233 142.445  0.00  0.00    +0.000 A 
ATOM     22  C   UNL     1     106.171 125.569 141.692  0.00  0.00    +0.000 A 
BRANCH  18  24
ATOM     23  O   UNL     1     107.370 125.199 146.984  0.00  0.00    +0.000 OA
ATOM     24  C   UNL     1     105.964 125.484 145.338  0.00  0.00    +0.000 A 
ATOM     25  C   UNL     1     105.291 125.118 145.642  0.00  0.00    +0.000 A 
ATOM     26  C   UNL     1     106.657 125.511 145.785  0.00  0.00    +0.000 A 
ATOM     27  C   UNL     1     105.310 124.778 146.394  0.00  0.00    +0.000 A 
ATOM     28  C   UNL     1     106.677 125.172 146.537  0.00  0.00    +0.000 A 
ATOM     29  C   UNL     1     106.003 124.805 146.841  0.00  0.00    +0.000 A 
BRANCH  27  30
ATOM     30  O   UNL     1     104.637 124.412 146.698  0.00  0.00    +0.000 OA
ATOM     31  C   UNL     1     104.064 124.111 146.187  0.00  0.00    +0.000 C 
ENDBRANCH  27  30
BRANCH  29  32
ATOM     32  O   UNL     1     106.022 124.466 147.592  0.00  0.00    +0.000 OA
ATOM     33  C   UNL     1     106.149 124.940 148.256  0.00  0.00    +0.000 C 
ENDBRANCH  29  32
ENDBRANCH  18  24
BRANCH  22  34
ATOM     34  O   UNL     1     106.301 125.100 141.027  0.00  0.00    +0.000 OA
ATOM     35  C   UNL     1     105.711 125.021 140.455  0.00  0.00    +0.000 C 
ENDBRANCH  22  34
ENDBRANCH   7  17
BRANCH   6  36
ATOM     36  C   UNL     1     108.295 129.777 141.685  0.00  0.00    +0.000 A 
ATOM     37  C   UNL     1     108.682 130.116 142.329  0.00  0.00    +0.000 A 
ATOM     38  C   UNL     1     108.530 129.965 140.916  0.00  0.00    +0.000 A 
ATOM     39  C   UNL     1     109.153 130.492 140.793  0.00  0.00    +0.000 A 
ATOM     40  C   UNL     1     109.305 130.642 142.206  0.00  0.00    +0.000 A 
ATOM     41  C   UNL     1     109.540 130.830 141.438  0.00  0.00    +0.000 A 
BRANCH  39  42
ATOM     42  O   UNL     1     109.388 130.680 140.025  0.00  0.00    +0.000 OA
ATOM     43  C   UNL     1     108.835 130.680 139.412  0.00  0.00    +0.000 C 
ENDBRANCH  39  42
BRANCH  40  44
ATOM     44  O   UNL     1     109.692 130.981 142.851  0.00  0.00    +0.000 OA
ATOM     45  C   UNL     1     109.345 130.959 143.599  0.00  0.00    +0.000 C 
ENDBRANCH  40  44
BRANCH  41  46
ATOM     46  O   UNL     1     110.163 131.357 141.315  0.00  0.00    +0.000 OA
ATOM     47  C   UNL     1     110.937 131.077 141.268  0.00  0.00    +0.000 C 
ENDBRANCH  41  46
ENDBRANCH   6  36
BRANCH  11  48
ATOM     48  O   UNL     1     104.046 129.026 142.166  0.00  0.00    +0.000 OA
ATOM     49  C   UNL     1     103.547 128.942 141.513  0.00  0.00    +0.000 C 
ENDBRANCH  11  48
TORSDOF 10
ENDMDL
MODEL 10
REMARK VINA RESULT:      -9.3      2.657      3.677
REMARK  Name = 75072286
REMARK  10 active torsions:
REMARK  status: ('A' for Active; 'I' for Inactive)
REMARK    1  A    between atoms: O_3  and  C_31
REMARK    2  A    between atoms: O_4  and  C_32
REMARK    3  A    between atoms: O_7  and  C_37
REMARK    4  A    between atoms: O_8  and  C_38
REMARK    5  A    between atoms: O_9  and  C_39
REMARK    6  A    between atoms: O_10  and  C_41
REMARK    7  A    between atoms: O_11  and  C_42
REMARK    8  A    between atoms: C_19  and  C_25
REMARK    9  A    between atoms: C_20  and  C_21
REMARK   10  A    between atoms: C_22  and  C_28
REMARK                            x       y       z     vdW  Elec       q    Type
REMARK                         _______ _______ _______ _____ _____    ______ ____
ROOT
ATOM      1  O   UNL     1     112.521 127.534 137.147  0.00  0.00    +0.000 OA
ATOM      2  O   UNL     1     112.492 128.868 136.167  0.00  0.00    +0.000 OA
ATOM      3  C   UNL     1     112.450 128.428 138.305  0.00  0.00    +0.000 A 
ATOM      4  C   UNL     1     112.463 127.756 138.839  0.00  0.00    +0.000 C 
ATOM      5  C   UNL     1     112.506 126.960 138.517  0.00  0.00    +0.000 C 
ATOM      6  C   UNL     1     112.535 126.848 137.666  0.00  0.00    +0.000 C 
ATOM      7  C   UNL     1     112.408 129.190 138.619  0.00  0.00    +0.000 A 
ATOM      8  C   UNL     1     112.477 128.321 137.487  0.00  0.00    +0.000 A 
ATOM      9  C   UNL     1     112.395 129.844 138.117  0.00  0.00    +0.000 A 
ATOM     10  C   UNL     1     112.464 128.976 136.984  0.00  0.00    +0.000 A 
ATOM     11  C   UNL     1     112.422 129.737 137.300  0.00  0.00    +0.000 A 
ENDROOT
BRANCH   7  17
ATOM     12  O   UNL     1     110.878 129.634 141.036  0.00  0.00    +0.000 OA
ATOM     13  O   UNL     1     112.297 129.620 141.889  0.00  0.00    +0.000 OA
ATOM     14  C   UNL     1     111.656 129.409 139.814  0.00  0.00    +0.000 A 
ATOM     15  C   UNL     1     110.936 129.412 139.344  0.00  0.00    +0.000 C 
ATOM     16  C   UNL     1     110.178 129.528 139.731  0.00  0.00    +0.000 C 
ATOM     17  C   UNL     1     112.380 129.298 139.437  0.00  0.00    +0.000 A 
ATOM     18  C   UNL     1     110.149 129.640 140.583  0.00  0.00    +0.000 C 
ATOM     19  C   UNL     1     111.628 129.517 140.632  0.00  0.00    +0.000 A 
ATOM     20  C   UNL     1     113.078 129.293 139.878  0.00  0.00    +0.000 A 
ATOM     21  C   UNL     1     112.325 129.512 141.072  0.00  0.00    +0.000 A 
ATOM     22  C   UNL     1     113.051 129.401 140.695  0.00  0.00    +0.000 A 
BRANCH  18  24
ATOM     23  O   UNL     1     108.136 131.392 141.605  0.00  0.00    +0.000 OA
ATOM     24  C   UNL     1     109.425 129.751 140.962  0.00  0.00    +0.000 A 
ATOM     25  C   UNL     1     108.983 129.101 141.210  0.00  0.00    +0.000 A 
ATOM     26  C   UNL     1     109.142 130.515 141.094  0.00  0.00    +0.000 A 
ATOM     27  C   UNL     1     108.259 129.213 141.589  0.00  0.00    +0.000 A 
ATOM     28  C   UNL     1     108.418 130.628 141.474  0.00  0.00    +0.000 A 
ATOM     29  C   UNL     1     107.977 129.976 141.721  0.00  0.00    +0.000 A 
BRANCH  27  30
ATOM     30  O   UNL     1     107.818 128.561 141.837  0.00  0.00    +0.000 OA
ATOM     31  C   UNL     1     108.200 127.859 142.044  0.00  0.00    +0.000 C 
ENDBRANCH  27  30
BRANCH  29  32
ATOM     32  O   UNL     1     107.254 130.089 142.100  0.00  0.00    +0.000 OA
ATOM     33  C   UNL     1     106.642 130.486 141.714  0.00  0.00    +0.000 C 
ENDBRANCH  29  32
ENDBRANCH  18  24
BRANCH  22  34
ATOM     34  O   UNL     1     113.748 129.396 141.135  0.00  0.00    +0.000 OA
ATOM     35  C   UNL     1     114.404 129.824 140.875  0.00  0.00    +0.000 C 
ENDBRANCH  22  34
ENDBRANCH   7  17
BRANCH   6  36
ATOM     36  C   UNL     1     112.576 126.087 137.347  0.00  0.00    +0.000 A 
ATOM     37  C   UNL     1     113.269 125.645 137.422  0.00  0.00    +0.000 A 
ATOM     38  C   UNL     1     111.925 125.770 136.953  0.00  0.00    +0.000 A 
ATOM     39  C   UNL     1     111.965 125.010 136.635  0.00  0.00    +0.000 A 
ATOM     40  C   UNL     1     113.310 124.886 137.104  0.00  0.00    +0.000 A 
ATOM     41  C   UNL     1     112.658 124.568 136.710  0.00  0.00    +0.000 A 
BRANCH  39  42
ATOM     42  O   UNL     1     111.313 124.692 136.241  0.00  0.00    +0.000 OA
ATOM     43  C   UNL     1     110.834 125.178 135.778  0.00  0.00    +0.000 C 
ENDBRANCH  39  42
BRANCH  40  44
ATOM     44  O   UNL     1     114.002 124.444 137.179  0.00  0.00    +0.000 OA
ATOM     45  C   UNL     1     114.730 124.826 137.254  0.00  0.00    +0.000 C 
ENDBRANCH  40  44
BRANCH  41  46
ATOM     46  O   UNL     1     112.699 123.809 136.391  0.00  0.00    +0.000 OA
ATOM     47  C   UNL     1     112.406 123.166 136.818  0.00  0.00    +0.000 C 
ENDBRANCH  41  46
ENDBRANCH   6  36
BRANCH  11  48
ATOM     48  O   UNL     1     112.409 130.390 136.797  0.00  0.00    +0.000 OA
ATOM     49  C   UNL     1     112.952 131.003 136.902  0.00  0.00    +0.000 C 
ENDBRANCH  11  48
TORSDOF 10
ENDMDL
