MODEL 1
REMARK VINA RESULT:     -10.7      0.000      0.000
REMARK  Name = 44259448
REMARK  7 active torsions:
REMARK  status: ('A' for Active; 'I' for Inactive)
REMARK    1  A    between atoms: O_3  and  C_27
REMARK    2  A    between atoms: O_3  and  C_33
REMARK    3  A    between atoms: O_4  and  C_29
REMARK    4  A    between atoms: O_4  and  C_34
REMARK    5  A    between atoms: C_28  and  C_31
REMARK    6  A    between atoms: C_30  and  C_32
REMARK    7  A    between atoms: C_36  and  C_42
REMARK                            x       y       z     vdW  Elec       q    Type
REMARK                         _______ _______ _______ _____ _____    ______ ____
ROOT
ATOM      1  O   UNL     1     113.128 128.514 138.141  0.00  0.00    +0.000 OA
ATOM      2  O   UNL     1     112.472 126.233 138.846  0.00  0.00    +0.000 OA
ATOM      3  O   UNL     1     113.089 126.423 140.136  0.00  0.00    +0.000 OA
ATOM      4  C   UNL     1     112.491 127.267 137.859  0.00  0.00    +0.000 A 
ATOM      5  C   UNL     1     113.975 128.479 140.209  0.00  0.00    +0.000 A 
ATOM      6  C   UNL     1     113.109 127.481 139.128  0.00  0.00    +0.000 A 
ATOM      7  C   UNL     1     112.710 128.027 137.623  0.00  0.00    +0.000 A 
ATOM      8  C   UNL     1     112.691 126.994 138.610  0.00  0.00    +0.000 A 
ATOM      9  C   UNL     1     113.328 128.241 138.894  0.00  0.00    +0.000 A 
ATOM     10  C   UNL     1     113.764 128.757 139.425  0.00  0.00    +0.000 A 
ATOM     11  C   UNL     1     113.748 127.687 140.454  0.00  0.00    +0.000 A 
ATOM     12  C   UNL     1     113.312 127.184 139.909  0.00  0.00    +0.000 A 
ENDROOT
BRANCH   7  16
ATOM     13  O   UNL     1     110.747 128.977 135.776  0.00  0.00    +0.000 OA
ATOM     14  O   UNL     1     113.473 128.716 134.958  0.00  0.00    +0.000 OA
ATOM     15  O   UNL     1     111.910 129.120 134.615  0.00  0.00    +0.000 OA
ATOM     16  C   UNL     1     112.510 128.300 136.872  0.00  0.00    +0.000 A 
ATOM     17  C   UNL     1     113.091 128.372 136.290  0.00  0.00    +0.000 A 
ATOM     18  C   UNL     1     111.729 128.502 136.700  0.00  0.00    +0.000 A 
ATOM     19  C   UNL     1     111.529 128.775 135.947  0.00  0.00    +0.000 A 
ATOM     20  C   UNL     1     112.892 128.645 135.538  0.00  0.00    +0.000 A 
ATOM     21  C   UNL     1     112.111 128.846 135.367  0.00  0.00    +0.000 A 
ENDBRANCH   7  16
BRANCH   4  22
ATOM     22  O   UNL     1     112.073 126.780 137.341  0.00  0.00    +0.000 OA
BRANCH  22  30
ATOM     23  O   UNL     1     113.206 125.959 137.051  0.00  0.00    +0.000 OA
ATOM     24  O   UNL     1     111.702 124.059 136.547  0.00  0.00    +0.000 OA
ATOM     25  O   UNL     1     111.070 125.513 137.005  0.00  0.00    +0.000 OA
ATOM     26  O   UNL     1     113.337 123.872 136.425  0.00  0.00    +0.000 OA
ATOM     27  C   UNL     1     112.203 124.693 136.715  0.00  0.00    +0.000 C 
ATOM     28  C   UNL     1     111.887 125.419 136.944  0.00  0.00    +0.000 C 
ATOM     29  C   UNL     1     113.020 124.599 136.654  0.00  0.00    +0.000 C 
ATOM     30  C   UNL     1     112.388 126.053 137.112  0.00  0.00    +0.000 C 
ATOM     31  C   UNL     1     113.521 125.232 136.822  0.00  0.00    +0.000 C 
BRANCH  31  34
ATOM     32  O   UNL     1     114.759 124.777 137.372  0.00  0.00    +0.000 OA
ATOM     33  O   UNL     1     114.737 125.406 136.089  0.00  0.00    +0.000 OA
ATOM     34  C   UNL     1     114.340 125.138 136.761  0.00  0.00    +0.000 C 
ENDBRANCH  31  34
ENDBRANCH  22  30
ENDBRANCH   4  22
BRANCH   5  35
ATOM     35  O   UNL     1     114.394 128.968 140.725  0.00  0.00    +0.000 OA
BRANCH  35  43
ATOM     36  O   UNL     1     113.268 129.515 141.415  0.00  0.00    +0.000 OA
ATOM     37  O   UNL     1     114.386 131.722 141.492  0.00  0.00    +0.000 OA
ATOM     38  O   UNL     1     115.139 130.439 140.776  0.00  0.00    +0.000 OA
ATOM     39  O   UNL     1     112.888 131.533 142.156  0.00  0.00    +0.000 OA
ATOM     40  C   UNL     1     114.014 130.986 141.466  0.00  0.00    +0.000 C 
ATOM     41  C   UNL     1     114.390 130.345 141.108  0.00  0.00    +0.000 C 
ATOM     42  C   UNL     1     113.264 130.891 141.798  0.00  0.00    +0.000 C 
ATOM     43  C   UNL     1     114.018 129.610 141.083  0.00  0.00    +0.000 C 
ATOM     44  C   UNL     1     112.892 130.156 141.773  0.00  0.00    +0.000 C 
BRANCH  44  47
ATOM     45  O   UNL     1     112.065 129.777 142.875  0.00  0.00    +0.000 OA
ATOM     46  O   UNL     1     111.471 130.254 141.666  0.00  0.00    +0.000 OA
ATOM     47  C   UNL     1     112.143 130.062 142.105  0.00  0.00    +0.000 C 
ENDBRANCH  44  47
ENDBRANCH  35  43
ENDBRANCH   5  35
TORSDOF 7
ENDMDL
MODEL 2
REMARK VINA RESULT:     -10.7      1.422      5.844
REMARK  Name = 44259448
REMARK  7 active torsions:
REMARK  status: ('A' for Active; 'I' for Inactive)
REMARK    1  A    between atoms: O_3  and  C_27
REMARK    2  A    between atoms: O_3  and  C_33
REMARK    3  A    between atoms: O_4  and  C_29
REMARK    4  A    between atoms: O_4  and  C_34
REMARK    5  A    between atoms: C_28  and  C_31
REMARK    6  A    between atoms: C_30  and  C_32
REMARK    7  A    between atoms: C_36  and  C_42
REMARK                            x       y       z     vdW  Elec       q    Type
REMARK                         _______ _______ _______ _____ _____    ______ ____
ROOT
ATOM      1  O   UNL     1     112.612 128.604 138.314  0.00  0.00    +0.000 OA
ATOM      2  O   UNL     1     114.165 128.697 140.240  0.00  0.00    +0.000 OA
ATOM      3  O   UNL     1     113.987 127.287 140.489  0.00  0.00    +0.000 OA
ATOM      4  C   UNL     1     113.486 129.349 139.165  0.00  0.00    +0.000 A 
ATOM      5  C   UNL     1     112.561 126.468 138.968  0.00  0.00    +0.000 A 
ATOM      6  C   UNL     1     113.291 127.952 139.389  0.00  0.00    +0.000 A 
ATOM      7  C   UNL     1     112.968 129.319 138.523  0.00  0.00    +0.000 A 
ATOM      8  C   UNL     1     113.647 128.667 139.598  0.00  0.00    +0.000 A 
ATOM      9  C   UNL     1     112.774 127.920 138.748  0.00  0.00    +0.000 A 
ATOM     10  C   UNL     1     112.397 127.182 138.521  0.00  0.00    +0.000 A 
ATOM     11  C   UNL     1     113.100 126.499 139.637  0.00  0.00    +0.000 A 
ATOM     12  C   UNL     1     113.468 127.247 139.849  0.00  0.00    +0.000 A 
ENDROOT
BRANCH   7  16
ATOM     13  O   UNL     1     113.767 131.278 136.601  0.00  0.00    +0.000 OA
ATOM     14  O   UNL     1     111.200 131.458 137.844  0.00  0.00    +0.000 OA
ATOM     15  O   UNL     1     112.322 132.050 136.789  0.00  0.00    +0.000 OA
ATOM     16  C   UNL     1     112.806 130.001 138.090  0.00  0.00    +0.000 A 
ATOM     17  C   UNL     1     112.084 130.389 138.183  0.00  0.00    +0.000 A 
ATOM     18  C   UNL     1     113.367 130.298 137.563  0.00  0.00    +0.000 A 
ATOM     19  C   UNL     1     113.206 130.981 137.129  0.00  0.00    +0.000 A 
ATOM     20  C   UNL     1     111.922 131.071 137.750  0.00  0.00    +0.000 A 
ATOM     21  C   UNL     1     112.483 131.367 137.223  0.00  0.00    +0.000 A 
ENDBRANCH   7  16
BRANCH   4  22
ATOM     22  O   UNL     1     113.841 130.064 139.373  0.00  0.00    +0.000 OA
BRANCH  22  30
ATOM     23  O   UNL     1     112.993 130.299 140.498  0.00  0.00    +0.000 OA
ATOM     24  O   UNL     1     114.841 131.480 141.646  0.00  0.00    +0.000 OA
ATOM     25  O   UNL     1     115.074 130.851 140.138  0.00  0.00    +0.000 OA
ATOM     26  O   UNL     1     113.376 131.322 142.388  0.00  0.00    +0.000 OA
ATOM     27  C   UNL     1     114.225 131.086 141.263  0.00  0.00    +0.000 C 
ATOM     28  C   UNL     1     114.342 130.772 140.509  0.00  0.00    +0.000 C 
ATOM     29  C   UNL     1     113.493 131.007 141.634  0.00  0.00    +0.000 C 
ATOM     30  C   UNL     1     113.726 130.378 140.127  0.00  0.00    +0.000 C 
ATOM     31  C   UNL     1     112.877 130.614 141.252  0.00  0.00    +0.000 C 
BRANCH  31  34
ATOM     32  O   UNL     1     111.536 131.067 141.453  0.00  0.00    +0.000 OA
ATOM     33  O   UNL     1     112.019 129.924 142.164  0.00  0.00    +0.000 OA
ATOM     34  C   UNL     1     112.144 130.535 141.624  0.00  0.00    +0.000 C 
ENDBRANCH  31  34
ENDBRANCH  22  30
ENDBRANCH   4  22
BRANCH   5  35
ATOM     35  O   UNL     1     112.204 125.755 138.757  0.00  0.00    +0.000 OA
BRANCH  35  43
ATOM     36  O   UNL     1     113.291 125.313 137.942  0.00  0.00    +0.000 OA
ATOM     37  O   UNL     1     111.707 124.081 136.493  0.00  0.00    +0.000 OA
ATOM     38  O   UNL     1     111.147 124.934 137.791  0.00  0.00    +0.000 OA
ATOM     39  O   UNL     1     113.322 124.050 136.162  0.00  0.00    +0.000 OA
ATOM     40  C   UNL     1     112.235 124.492 136.976  0.00  0.00    +0.000 C 
ATOM     41  C   UNL     1     111.955 124.918 137.625  0.00  0.00    +0.000 C 
ATOM     42  C   UNL     1     113.043 124.476 136.811  0.00  0.00    +0.000 C 
ATOM     43  C   UNL     1     112.483 125.328 138.108  0.00  0.00    +0.000 C 
ATOM     44  C   UNL     1     113.571 124.887 137.294  0.00  0.00    +0.000 C 
BRANCH  44  47
ATOM     45  O   UNL     1     114.697 125.394 136.575  0.00  0.00    +0.000 OA
ATOM     46  O   UNL     1     114.868 124.331 137.514  0.00  0.00    +0.000 OA
ATOM     47  C   UNL     1     114.379 124.871 137.127  0.00  0.00    +0.000 C 
ENDBRANCH  44  47
ENDBRANCH  35  43
ENDBRANCH   5  35
TORSDOF 7
ENDMDL
MODEL 3
REMARK VINA RESULT:     -10.7      2.036      4.765
REMARK  Name = 44259448
REMARK  7 active torsions:
REMARK  status: ('A' for Active; 'I' for Inactive)
REMARK    1  A    between atoms: O_3  and  C_27
REMARK    2  A    between atoms: O_3  and  C_33
REMARK    3  A    between atoms: O_4  and  C_29
REMARK    4  A    between atoms: O_4  and  C_34
REMARK    5  A    between atoms: C_28  and  C_31
REMARK    6  A    between atoms: C_30  and  C_32
REMARK    7  A    between atoms: C_36  and  C_42
REMARK                            x       y       z     vdW  Elec       q    Type
REMARK                         _______ _______ _______ _____ _____    ______ ____
ROOT
ATOM      1  O   UNL     1     111.957 128.233 138.480  0.00  0.00    +0.000 OA
ATOM      2  O   UNL     1     113.525 127.264 136.828  0.00  0.00    +0.000 OA
ATOM      3  O   UNL     1     113.118 128.227 135.834  0.00  0.00    +0.000 OA
ATOM      4  C   UNL     1     112.951 127.266 138.137  0.00  0.00    +0.000 A 
ATOM      5  C   UNL     1     111.559 129.563 136.729  0.00  0.00    +0.000 A 
ATOM      6  C   UNL     1     112.531 128.231 137.171  0.00  0.00    +0.000 A 
ATOM      7  C   UNL     1     112.429 127.589 138.688  0.00  0.00    +0.000 A 
ATOM      8  C   UNL     1     113.002 127.587 137.379  0.00  0.00    +0.000 A 
ATOM      9  C   UNL     1     112.008 128.554 137.721  0.00  0.00    +0.000 A 
ATOM     10  C   UNL     1     111.511 129.225 137.516  0.00  0.00    +0.000 A 
ATOM     11  C   UNL     1     112.104 129.227 136.155  0.00  0.00    +0.000 A 
ATOM     12  C   UNL     1     112.593 128.556 136.378  0.00  0.00    +0.000 A 
ENDROOT
BRANCH   7  16
ATOM     13  O   UNL     1     111.019 126.033 140.627  0.00  0.00    +0.000 OA
ATOM     14  O   UNL     1     113.531 127.220 141.298  0.00  0.00    +0.000 OA
ATOM     15  O   UNL     1     112.224 126.306 141.721  0.00  0.00    +0.000 OA
ATOM     16  C   UNL     1     112.378 127.269 139.446  0.00  0.00    +0.000 A 
ATOM     17  C   UNL     1     112.980 127.405 139.994  0.00  0.00    +0.000 A 
ATOM     18  C   UNL     1     111.724 126.811 139.657  0.00  0.00    +0.000 A 
ATOM     19  C   UNL     1     111.673 126.490 140.416  0.00  0.00    +0.000 A 
ATOM     20  C   UNL     1     112.929 127.084 140.751  0.00  0.00    +0.000 A 
ATOM     21  C   UNL     1     112.275 126.627 140.963  0.00  0.00    +0.000 A 
ENDBRANCH   7  16
BRANCH   4  22
ATOM     22  O   UNL     1     113.423 126.622 138.345  0.00  0.00    +0.000 OA
BRANCH  22  30
ATOM     23  O   UNL     1     112.639 125.670 137.623  0.00  0.00    +0.000 OA
ATOM     24  O   UNL     1     114.659 124.290 137.249  0.00  0.00    +0.000 OA
ATOM     25  O   UNL     1     114.770 125.702 138.095  0.00  0.00    +0.000 OA
ATOM     26  O   UNL     1     113.201 123.798 136.652  0.00  0.00    +0.000 OA
ATOM     27  C   UNL     1     113.985 124.750 137.374  0.00  0.00    +0.000 C 
ATOM     28  C   UNL     1     114.042 125.456 137.797  0.00  0.00    +0.000 C 
ATOM     29  C   UNL     1     113.257 124.504 137.076  0.00  0.00    +0.000 C 
ATOM     30  C   UNL     1     113.368 125.916 137.922  0.00  0.00    +0.000 C 
ATOM     31  C   UNL     1     112.584 124.964 137.200  0.00  0.00    +0.000 C 
BRANCH  31  34
ATOM     32  O   UNL     1     111.321 124.323 137.392  0.00  0.00    +0.000 OA
ATOM     33  O   UNL     1     111.659 124.868 136.114  0.00  0.00    +0.000 OA
ATOM     34  C   UNL     1     111.855 124.719 136.902  0.00  0.00    +0.000 C 
ENDBRANCH  31  34
ENDBRANCH  22  30
ENDBRANCH   4  22
BRANCH   5  35
ATOM     35  O   UNL     1     111.086 130.207 136.524  0.00  0.00    +0.000 OA
BRANCH  35  43
ATOM     36  O   UNL     1     109.982 129.399 136.111  0.00  0.00    +0.000 OA
ATOM     37  O   UNL     1     108.420 131.217 136.726  0.00  0.00    +0.000 OA
ATOM     38  O   UNL     1     110.045 131.419 136.934  0.00  0.00    +0.000 OA
ATOM     39  O   UNL     1     107.837 129.803 136.108  0.00  0.00    +0.000 OA
ATOM     40  C   UNL     1     108.941 130.611 136.521  0.00  0.00    +0.000 C 
ATOM     41  C   UNL     1     109.753 130.713 136.625  0.00  0.00    +0.000 C 
ATOM     42  C   UNL     1     108.649 129.904 136.212  0.00  0.00    +0.000 C 
ATOM     43  C   UNL     1     110.274 130.106 136.420  0.00  0.00    +0.000 C 
ATOM     44  C   UNL     1     109.170 129.298 136.007  0.00  0.00    +0.000 C 
BRANCH  44  47
ATOM     45  O   UNL     1     108.568 128.017 136.202  0.00  0.00    +0.000 OA
ATOM     46  O   UNL     1     108.896 128.459 134.884  0.00  0.00    +0.000 OA
ATOM     47  C   UNL     1     108.878 128.591 135.698  0.00  0.00    +0.000 C 
ENDBRANCH  44  47
ENDBRANCH  35  43
ENDBRANCH   5  35
TORSDOF 7
ENDMDL
MODEL 4
REMARK VINA RESULT:     -10.7      2.344      5.952
REMARK  Name = 44259448
REMARK  7 active torsions:
REMARK  status: ('A' for Active; 'I' for Inactive)
REMARK    1  A    between atoms: O_3  and  C_27
REMARK    2  A    between atoms: O_3  and  C_33
REMARK    3  A    between atoms: O_4  and  C_29
REMARK    4  A    between atoms: O_4  and  C_34
REMARK    5  A    between atoms: C_28  and  C_31
REMARK    6  A    between atoms: C_30  and  C_32
REMARK    7  A    between atoms: C_36  and  C_42
REMARK                            x       y       z     vdW  Elec       q    Type
REMARK                         _______ _______ _______ _____ _____    ______ ____
ROOT
ATOM      1  O   UNL     1     111.346 129.312 138.425  0.00  0.00    +0.000 OA
ATOM      2  O   UNL     1     111.503 130.398 136.207  0.00  0.00    +0.000 OA
ATOM      3  O   UNL     1     112.465 129.418 135.763  0.00  0.00    +0.000 OA
ATOM      4  C   UNL     1     110.949 130.347 137.523  0.00  0.00    +0.000 A 
ATOM      5  C   UNL     1     112.834 127.973 137.433  0.00  0.00    +0.000 A 
ATOM      6  C   UNL     1     111.900 129.364 137.109  0.00  0.00    +0.000 A 
ATOM      7  C   UNL     1     110.897 129.985 138.263  0.00  0.00    +0.000 A 
ATOM      8  C   UNL     1     111.450 130.037 136.946  0.00  0.00    +0.000 A 
ATOM      9  C   UNL     1     111.848 129.002 137.848  0.00  0.00    +0.000 A 
ATOM     10  C   UNL     1     112.311 128.301 138.029  0.00  0.00    +0.000 A 
ATOM     11  C   UNL     1     112.889 128.350 136.663  0.00  0.00    +0.000 A 
ATOM     12  C   UNL     1     112.418 129.050 136.500  0.00  0.00    +0.000 A 
ENDROOT
BRANCH   7  16
ATOM     13  O   UNL     1     110.335 131.960 140.251  0.00  0.00    +0.000 OA
ATOM     14  O   UNL     1     108.452 129.873 139.737  0.00  0.00    +0.000 OA
ATOM     15  O   UNL     1     108.892 131.227 140.570  0.00  0.00    +0.000 OA
ATOM     16  C   UNL     1     110.396 130.295 138.839  0.00  0.00    +0.000 A 
ATOM     17  C   UNL     1     109.674 129.929 139.000  0.00  0.00    +0.000 A 
ATOM     18  C   UNL     1     110.616 130.972 139.256  0.00  0.00    +0.000 A 
ATOM     19  C   UNL     1     110.114 131.283 139.834  0.00  0.00    +0.000 A 
ATOM     20  C   UNL     1     109.173 130.239 139.576  0.00  0.00    +0.000 A 
ATOM     21  C   UNL     1     109.393 130.916 139.993  0.00  0.00    +0.000 A 
ENDBRANCH   7  16
BRANCH   4  22
ATOM     22  O   UNL     1     110.500 131.019 137.360  0.00  0.00    +0.000 OA
BRANCH  22  30
ATOM     23  O   UNL     1     109.542 130.328 136.557  0.00  0.00    +0.000 OA
ATOM     24  O   UNL     1     109.191 132.376 135.213  0.00  0.00    +0.000 OA
ATOM     25  O   UNL     1     110.266 132.385 136.464  0.00  0.00    +0.000 OA
ATOM     26  O   UNL     1     108.349 131.002 134.857  0.00  0.00    +0.000 OA
ATOM     27  C   UNL     1     109.308 131.693 135.661  0.00  0.00    +0.000 C 
ATOM     28  C   UNL     1     109.846 131.698 136.287  0.00  0.00    +0.000 C 
ATOM     29  C   UNL     1     108.887 131.007 135.483  0.00  0.00    +0.000 C 
ATOM     30  C   UNL     1     109.963 131.015 136.735  0.00  0.00    +0.000 C 
ATOM     31  C   UNL     1     109.004 130.324 135.931  0.00  0.00    +0.000 C 
BRANCH  31  34
ATOM     32  O   UNL     1     107.862 129.487 136.125  0.00  0.00    +0.000 OA
ATOM     33  O   UNL     1     108.884 129.099 135.205  0.00  0.00    +0.000 OA
ATOM     34  C   UNL     1     108.583 129.636 135.754  0.00  0.00    +0.000 C 
ENDBRANCH  31  34
ENDBRANCH  22  30
ENDBRANCH   4  22
BRANCH   5  35
ATOM     35  O   UNL     1     113.283 127.300 137.599  0.00  0.00    +0.000 OA
BRANCH  35  43
ATOM     36  O   UNL     1     112.247 126.316 137.639  0.00  0.00    +0.000 OA
ATOM     37  O   UNL     1     113.645 124.787 136.286  0.00  0.00    +0.000 OA
ATOM     38  O   UNL     1     114.215 126.281 136.697  0.00  0.00    +0.000 OA
ATOM     39  O   UNL     1     112.143 124.313 136.778  0.00  0.00    +0.000 OA
ATOM     40  C   UNL     1     113.179 125.297 136.737  0.00  0.00    +0.000 C 
ATOM     41  C   UNL     1     113.464 126.043 136.942  0.00  0.00    +0.000 C 
ATOM     42  C   UNL     1     112.428 125.060 136.983  0.00  0.00    +0.000 C 
ATOM     43  C   UNL     1     112.998 126.553 137.393  0.00  0.00    +0.000 C 
ATOM     44  C   UNL     1     111.962 125.570 137.434  0.00  0.00    +0.000 C 
BRANCH  44  47
ATOM     45  O   UNL     1     110.561 125.440 137.184  0.00  0.00    +0.000 OA
ATOM     46  O   UNL     1     111.111 124.987 138.422  0.00  0.00    +0.000 OA
ATOM     47  C   UNL     1     111.211 125.333 137.680  0.00  0.00    +0.000 C 
ENDBRANCH  44  47
ENDBRANCH  35  43
ENDBRANCH   5  35
TORSDOF 7
ENDMDL
MODEL 5
REMARK VINA RESULT:     -10.5      1.944      6.003
REMARK  Name = 44259448
REMARK  7 active torsions:
REMARK  status: ('A' for Active; 'I' for Inactive)
REMARK    1  A    between atoms: O_3  and  C_27
REMARK    2  A    between atoms: O_3  and  C_33
REMARK    3  A    between atoms: O_4  and  C_29
REMARK    4  A    between atoms: O_4  and  C_34
REMARK    5  A    between atoms: C_28  and  C_31
REMARK    6  A    between atoms: C_30  and  C_32
REMARK    7  A    between atoms: C_36  and  C_42
REMARK                            x       y       z     vdW  Elec       q    Type
REMARK                         _______ _______ _______ _____ _____    ______ ____
ROOT
ATOM      1  O   UNL     1     113.109 128.550 138.464  0.00  0.00    +0.000 OA
ATOM      2  O   UNL     1     111.783 129.969 136.929  0.00  0.00    +0.000 OA
ATOM      3  O   UNL     1     112.017 129.056 135.836  0.00  0.00    +0.000 OA
ATOM      4  C   UNL     1     112.323 129.720 138.228  0.00  0.00    +0.000 A 
ATOM      5  C   UNL     1     113.276 127.359 136.580  0.00  0.00    +0.000 A 
ATOM      6  C   UNL     1     112.569 128.799 137.164  0.00  0.00    +0.000 A 
ATOM      7  C   UNL     1     112.765 129.247 138.740  0.00  0.00    +0.000 A 
ATOM      8  C   UNL     1     112.225 129.496 137.441  0.00  0.00    +0.000 A 
ATOM      9  C   UNL     1     113.011 128.326 137.675  0.00  0.00    +0.000 A 
ATOM     10  C   UNL     1     113.374 127.598 137.399  0.00  0.00    +0.000 A 
ATOM     11  C   UNL     1     112.816 127.852 136.047  0.00  0.00    +0.000 A 
ATOM     12  C   UNL     1     112.460 128.577 136.341  0.00  0.00    +0.000 A 
ENDROOT
BRANCH   7  16
ATOM     13  O   UNL     1     114.005 130.912 140.705  0.00  0.00    +0.000 OA
ATOM     14  O   UNL     1     112.113 128.925 141.503  0.00  0.00    +0.000 OA
ATOM     15  O   UNL     1     113.157 130.142 141.892  0.00  0.00    +0.000 OA
ATOM     16  C   UNL     1     112.862 129.470 139.528  0.00  0.00    +0.000 A 
ATOM     17  C   UNL     1     112.439 129.086 140.122  0.00  0.00    +0.000 A 
ATOM     18  C   UNL     1     113.384 130.079 139.722  0.00  0.00    +0.000 A 
ATOM     19  C   UNL     1     113.483 130.303 140.511  0.00  0.00    +0.000 A 
ATOM     20  C   UNL     1     112.536 129.309 140.910  0.00  0.00    +0.000 A 
ATOM     21  C   UNL     1     113.058 129.918 141.104  0.00  0.00    +0.000 A 
ENDBRANCH   7  16
BRANCH   4  22
ATOM     22  O   UNL     1     111.979 130.417 138.505  0.00  0.00    +0.000 OA
BRANCH  22  30
ATOM     23  O   UNL     1     110.660 129.871 138.580  0.00  0.00    +0.000 OA
ATOM     24  O   UNL     1     109.709 132.109 138.119  0.00  0.00    +0.000 OA
ATOM     25  O   UNL     1     111.345 131.909 138.198  0.00  0.00    +0.000 OA
ATOM     26  O   UNL     1     108.707 130.818 138.349  0.00  0.00    +0.000 OA
ATOM     27  C   UNL     1     110.026 131.363 138.273  0.00  0.00    +0.000 C 
ATOM     28  C   UNL     1     110.844 131.264 138.312  0.00  0.00    +0.000 C 
ATOM     29  C   UNL     1     109.525 130.718 138.387  0.00  0.00    +0.000 C 
ATOM     30  C   UNL     1     111.161 130.518 138.466  0.00  0.00    +0.000 C 
ATOM     31  C   UNL     1     109.843 129.972 138.541  0.00  0.00    +0.000 C 
BRANCH  31  34
ATOM     32  O   UNL     1     109.110 129.115 139.419  0.00  0.00    +0.000 OA
ATOM     33  O   UNL     1     109.073 128.892 138.008  0.00  0.00    +0.000 OA
ATOM     34  C   UNL     1     109.342 129.326 138.656  0.00  0.00    +0.000 C 
ENDBRANCH  31  34
ENDBRANCH  22  30
ENDBRANCH   4  22
BRANCH   5  35
ATOM     35  O   UNL     1     113.621 126.662 136.307  0.00  0.00    +0.000 OA
BRANCH  35  43
ATOM     36  O   UNL     1     112.446 125.850 136.355  0.00  0.00    +0.000 OA
ATOM     37  O   UNL     1     113.804 123.926 137.116  0.00  0.00    +0.000 OA
ATOM     38  O   UNL     1     114.526 125.379 136.814  0.00  0.00    +0.000 OA
ATOM     39  O   UNL     1     112.176 123.756 136.911  0.00  0.00    +0.000 OA
ATOM     40  C   UNL     1     113.351 124.567 136.863  0.00  0.00    +0.000 C 
ATOM     41  C   UNL     1     113.713 125.293 136.712  0.00  0.00    +0.000 C 
ATOM     42  C   UNL     1     112.537 124.483 136.760  0.00  0.00    +0.000 C 
ATOM     43  C   UNL     1     113.260 125.935 136.458  0.00  0.00    +0.000 C 
ATOM     44  C   UNL     1     112.084 125.124 136.506  0.00  0.00    +0.000 C 
BRANCH  44  47
ATOM     45  O   UNL     1     110.758 125.168 137.037  0.00  0.00    +0.000 OA
ATOM     46  O   UNL     1     110.969 124.823 135.666  0.00  0.00    +0.000 OA
ATOM     47  C   UNL     1     111.270 125.038 136.403  0.00  0.00    +0.000 C 
ENDBRANCH  44  47
ENDBRANCH  35  43
ENDBRANCH   5  35
TORSDOF 7
ENDMDL
MODEL 6
REMARK VINA RESULT:     -10.4      2.203      5.637
REMARK  Name = 44259448
REMARK  7 active torsions:
REMARK  status: ('A' for Active; 'I' for Inactive)
REMARK    1  A    between atoms: O_3  and  C_27
REMARK    2  A    between atoms: O_3  and  C_33
REMARK    3  A    between atoms: O_4  and  C_29
REMARK    4  A    between atoms: O_4  and  C_34
REMARK    5  A    between atoms: C_28  and  C_31
REMARK    6  A    between atoms: C_30  and  C_32
REMARK    7  A    between atoms: C_36  and  C_42
REMARK                            x       y       z     vdW  Elec       q    Type
REMARK                         _______ _______ _______ _____ _____    ______ ____
ROOT
ATOM      1  O   UNL     1     111.258 128.773 136.215  0.00  0.00    +0.000 OA
ATOM      2  O   UNL     1     112.199 129.801 138.261  0.00  0.00    +0.000 OA
ATOM      3  O   UNL     1     113.293 128.860 138.264  0.00  0.00    +0.000 OA
ATOM      4  C   UNL     1     111.192 129.759 137.248  0.00  0.00    +0.000 A 
ATOM      5  C   UNL     1     113.059 127.485 136.511  0.00  0.00    +0.000 A 
ATOM      6  C   UNL     1     112.265 128.815 137.228  0.00  0.00    +0.000 A 
ATOM      7  C   UNL     1     110.878 129.416 136.566  0.00  0.00    +0.000 A 
ATOM      8  C   UNL     1     111.885 129.458 137.579  0.00  0.00    +0.000 A 
ATOM      9  C   UNL     1     111.952 128.473 136.546  0.00  0.00    +0.000 A 
ATOM     10  C   UNL     1     112.338 127.803 136.172  0.00  0.00    +0.000 A 
ATOM     11  C   UNL     1     113.387 127.842 137.222  0.00  0.00    +0.000 A 
ATOM     12  C   UNL     1     112.986 128.512 137.583  0.00  0.00    +0.000 A 
ENDROOT
BRANCH   7  16
ATOM     13  O   UNL     1     109.517 131.461 135.105  0.00  0.00    +0.000 OA
ATOM     14  O   UNL     1     108.080 129.175 136.039  0.00  0.00    +0.000 OA
ATOM     15  O   UNL     1     108.106 130.619 135.241  0.00  0.00    +0.000 OA
ATOM     16  C   UNL     1     110.185 129.717 136.235  0.00  0.00    +0.000 A 
ATOM     17  C   UNL     1     109.479 129.296 136.302  0.00  0.00    +0.000 A 
ATOM     18  C   UNL     1     110.198 130.438 135.836  0.00  0.00    +0.000 A 
ATOM     19  C   UNL     1     109.504 130.739 135.504  0.00  0.00    +0.000 A 
ATOM     20  C   UNL     1     108.786 129.596 135.971  0.00  0.00    +0.000 A 
ATOM     21  C   UNL     1     108.799 130.318 135.572  0.00  0.00    +0.000 A 
ENDBRANCH   7  16
BRANCH   4  22
ATOM     22  O   UNL     1     110.813 130.402 137.598  0.00  0.00    +0.000 OA
BRANCH  22  30
ATOM     23  O   UNL     1     110.244 129.653 138.674  0.00  0.00    +0.000 OA
ATOM     24  O   UNL     1     110.454 131.623 140.157  0.00  0.00    +0.000 OA
ATOM     25  O   UNL     1     110.953 131.715 138.587  0.00  0.00    +0.000 OA
ATOM     26  O   UNL     1     109.815 130.217 140.739  0.00  0.00    +0.000 OA
ATOM     27  C   UNL     1     110.384 130.966 139.663  0.00  0.00    +0.000 C 
ATOM     28  C   UNL     1     110.634 131.013 138.878  0.00  0.00    +0.000 C 
ATOM     29  C   UNL     1     110.065 130.264 139.953  0.00  0.00    +0.000 C 
ATOM     30  C   UNL     1     110.563 130.356 138.383  0.00  0.00    +0.000 C 
ATOM     31  C   UNL     1     109.994 129.607 139.459  0.00  0.00    +0.000 C 
BRANCH  31  34
ATOM     32  O   UNL     1     110.154 128.371 140.158  0.00  0.00    +0.000 OA
ATOM     33  O   UNL     1     108.876 128.734 139.632  0.00  0.00    +0.000 OA
ATOM     34  C   UNL     1     109.675 128.904 139.750  0.00  0.00    +0.000 C 
ENDBRANCH  31  34
ENDBRANCH  22  30
ENDBRANCH   4  22
BRANCH   5  35
ATOM     35  O   UNL     1     113.437 126.842 136.158  0.00  0.00    +0.000 OA
BRANCH  35  43
ATOM     36  O   UNL     1     112.515 125.805 136.502  0.00  0.00    +0.000 OA
ATOM     37  O   UNL     1     114.404 124.325 137.107  0.00  0.00    +0.000 OA
ATOM     38  O   UNL     1     114.696 125.855 136.562  0.00  0.00    +0.000 OA
ATOM     39  O   UNL     1     112.853 123.782 137.248  0.00  0.00    +0.000 OA
ATOM     40  C   UNL     1     113.774 124.819 136.905  0.00  0.00    +0.000 C 
ATOM     41  C   UNL     1     113.921 125.583 136.633  0.00  0.00    +0.000 C 
ATOM     42  C   UNL     1     112.998 124.547 136.976  0.00  0.00    +0.000 C 
ATOM     43  C   UNL     1     113.291 126.077 136.431  0.00  0.00    +0.000 C 
ATOM     44  C   UNL     1     112.369 125.041 136.774  0.00  0.00    +0.000 C 
BRANCH  44  47
ATOM     45  O   UNL     1     111.207 124.807 137.572  0.00  0.00    +0.000 OA
ATOM     46  O   UNL     1     111.205 124.458 136.187  0.00  0.00    +0.000 OA
ATOM     47  C   UNL     1     111.594 124.769 136.845  0.00  0.00    +0.000 C 
ENDBRANCH  44  47
ENDBRANCH  35  43
ENDBRANCH   5  35
TORSDOF 7
ENDMDL
MODEL 7
REMARK VINA RESULT:     -10.3      2.337      4.233
REMARK  Name = 44259448
REMARK  7 active torsions:
REMARK  status: ('A' for Active; 'I' for Inactive)
REMARK    1  A    between atoms: O_3  and  C_27
REMARK    2  A    between atoms: O_3  and  C_33
REMARK    3  A    between atoms: O_4  and  C_29
REMARK    4  A    between atoms: O_4  and  C_34
REMARK    5  A    between atoms: C_28  and  C_31
REMARK    6  A    between atoms: C_30  and  C_32
REMARK    7  A    between atoms: C_36  and  C_42
REMARK                            x       y       z     vdW  Elec       q    Type
REMARK                         _______ _______ _______ _____ _____    ______ ____
ROOT
ATOM      1  O   UNL     1     111.676 128.235 138.326  0.00  0.00    +0.000 OA
ATOM      2  O   UNL     1     111.559 126.741 136.355  0.00  0.00    +0.000 OA
ATOM      3  O   UNL     1     111.677 127.866 135.459  0.00  0.00    +0.000 OA
ATOM      4  C   UNL     1     111.559 126.923 137.773  0.00  0.00    +0.000 A 
ATOM      5  C   UNL     1     111.839 129.737 136.679  0.00  0.00    +0.000 A 
ATOM      6  C   UNL     1     111.677 128.054 136.908  0.00  0.00    +0.000 A 
ATOM      7  C   UNL     1     111.597 127.421 138.430  0.00  0.00    +0.000 A 
ATOM      8  C   UNL     1     111.598 127.239 137.013  0.00  0.00    +0.000 A 
ATOM      9  C   UNL     1     111.716 128.552 137.564  0.00  0.00    +0.000 A 
ATOM     10  C   UNL     1     111.797 129.402 137.468  0.00  0.00    +0.000 A 
ATOM     11  C   UNL     1     111.799 129.219 135.995  0.00  0.00    +0.000 A 
ATOM     12  C   UNL     1     111.717 128.371 136.110  0.00  0.00    +0.000 A 
ENDROOT
BRANCH   7  16
ATOM     13  O   UNL     1     110.072 126.270 140.556  0.00  0.00    +0.000 OA
ATOM     14  O   UNL     1     112.884 126.673 140.869  0.00  0.00    +0.000 OA
ATOM     15  O   UNL     1     111.438 126.156 141.473  0.00  0.00    +0.000 OA
ATOM     16  C   UNL     1     111.558 127.105 139.190  0.00  0.00    +0.000 A 
ATOM     17  C   UNL     1     112.241 127.047 139.650  0.00  0.00    +0.000 A 
ATOM     18  C   UNL     1     110.835 126.846 139.492  0.00  0.00    +0.000 A 
ATOM     19  C   UNL     1     110.795 126.529 140.254  0.00  0.00    +0.000 A 
ATOM     20  C   UNL     1     112.201 126.731 140.410  0.00  0.00    +0.000 A 
ATOM     21  C   UNL     1     111.478 126.472 140.712  0.00  0.00    +0.000 A 
ENDBRANCH   7  16
BRANCH   4  22
ATOM     22  O   UNL     1     111.480 126.108 137.877  0.00  0.00    +0.000 OA
BRANCH  22  30
ATOM     23  O   UNL     1     112.842 125.802 137.573  0.00  0.00    +0.000 OA
ATOM     24  O   UNL     1     112.137 123.645 136.586  0.00  0.00    +0.000 OA
ATOM     25  O   UNL     1     111.010 124.670 137.219  0.00  0.00    +0.000 OA
ATOM     26  O   UNL     1     113.734 124.057 136.611  0.00  0.00    +0.000 OA
ATOM     27  C   UNL     1     112.372 124.364 136.915  0.00  0.00    +0.000 C 
ATOM     28  C   UNL     1     111.808 124.876 137.231  0.00  0.00    +0.000 C 
ATOM     29  C   UNL     1     113.170 124.570 136.927  0.00  0.00    +0.000 C 
ATOM     30  C   UNL     1     112.043 125.595 137.561  0.00  0.00    +0.000 C 
ATOM     31  C   UNL     1     113.405 125.289 137.257  0.00  0.00    +0.000 C 
BRANCH  31  34
ATOM     32  O   UNL     1     114.655 125.357 137.947  0.00  0.00    +0.000 OA
ATOM     33  O   UNL     1     114.553 125.840 136.605  0.00  0.00    +0.000 OA
ATOM     34  C   UNL     1     114.205 125.495 137.269  0.00  0.00    +0.000 C 
ENDBRANCH  31  34
ENDBRANCH  22  30
ENDBRANCH   4  22
BRANCH   5  35
ATOM     35  O   UNL     1     111.917 130.552 136.578  0.00  0.00    +0.000 OA
BRANCH  35  43
ATOM     36  O   UNL     1     110.548 130.859 136.309  0.00  0.00    +0.000 OA
ATOM     37  O   UNL     1     110.730 132.899 137.699  0.00  0.00    +0.000 OA
ATOM     38  O   UNL     1     112.039 131.912 137.504  0.00  0.00    +0.000 OA
ATOM     39  O   UNL     1     109.300 132.525 136.968  0.00  0.00    +0.000 OA
ATOM     40  C   UNL     1     110.670 132.219 137.236  0.00  0.00    +0.000 C 
ATOM     41  C   UNL     1     111.324 131.726 137.139  0.00  0.00    +0.000 C 
ATOM     42  C   UNL     1     109.954 132.032 136.870  0.00  0.00    +0.000 C 
ATOM     43  C   UNL     1     111.263 131.046 136.676  0.00  0.00    +0.000 C 
ATOM     44  C   UNL     1     109.893 131.352 136.407  0.00  0.00    +0.000 C 
BRANCH  44  47
ATOM     45  O   UNL     1     108.605 130.734 136.449  0.00  0.00    +0.000 OA
ATOM     46  O   UNL     1     109.035 131.411 135.267  0.00  0.00    +0.000 OA
ATOM     47  C   UNL     1     109.178 131.166 136.041  0.00  0.00    +0.000 C 
ENDBRANCH  44  47
ENDBRANCH  35  43
ENDBRANCH   5  35
TORSDOF 7
ENDMDL
MODEL 8
REMARK VINA RESULT:     -10.1      2.012      4.898
REMARK  Name = 44259448
REMARK  7 active torsions:
REMARK  status: ('A' for Active; 'I' for Inactive)
REMARK    1  A    between atoms: O_3  and  C_27
REMARK    2  A    between atoms: O_3  and  C_33
REMARK    3  A    between atoms: O_4  and  C_29
REMARK    4  A    between atoms: O_4  and  C_34
REMARK    5  A    between atoms: C_28  and  C_31
REMARK    6  A    between atoms: C_30  and  C_32
REMARK    7  A    between atoms: C_36  and  C_42
REMARK                            x       y       z     vdW  Elec       q    Type
REMARK                         _______ _______ _______ _____ _____    ______ ____
ROOT
ATOM      1  O   UNL     1     112.330 127.562 136.819  0.00  0.00    +0.000 OA
ATOM      2  O   UNL     1     113.296 128.544 138.876  0.00  0.00    +0.000 OA
ATOM      3  O   UNL     1     112.825 129.856 138.506  0.00  0.00    +0.000 OA
ATOM      4  C   UNL     1     113.052 127.409 138.043  0.00  0.00    +0.000 A 
ATOM      5  C   UNL     1     111.749 129.703 136.548  0.00  0.00    +0.000 A 
ATOM      6  C   UNL     1     112.574 128.697 137.653  0.00  0.00    +0.000 A 
ATOM      7  C   UNL     1     112.730 127.081 137.357  0.00  0.00    +0.000 A 
ATOM      8  C   UNL     1     112.974 128.216 138.191  0.00  0.00    +0.000 A 
ATOM      9  C   UNL     1     112.252 128.371 136.967  0.00  0.00    +0.000 A 
ATOM     10  C   UNL     1     111.833 128.861 136.400  0.00  0.00    +0.000 A 
ATOM     11  C   UNL     1     112.084 130.044 137.262  0.00  0.00    +0.000 A 
ATOM     12  C   UNL     1     112.500 129.537 137.818  0.00  0.00    +0.000 A 
ENDROOT
BRANCH   7  16
ATOM     13  O   UNL     1     111.600 124.457 137.295  0.00  0.00    +0.000 OA
ATOM     14  O   UNL     1     114.325 124.858 136.533  0.00  0.00    +0.000 OA
ATOM     15  O   UNL     1     113.040 123.850 136.766  0.00  0.00    +0.000 OA
ATOM     16  C   UNL     1     112.808 126.274 137.209  0.00  0.00    +0.000 A 
ATOM     17  C   UNL     1     113.528 125.969 136.945  0.00  0.00    +0.000 A 
ATOM     18  C   UNL     1     112.165 125.770 137.326  0.00  0.00    +0.000 A 
ATOM     19  C   UNL     1     112.243 124.961 137.178  0.00  0.00    +0.000 A 
ATOM     20  C   UNL     1     113.605 125.162 136.797  0.00  0.00    +0.000 A 
ATOM     21  C   UNL     1     112.963 124.658 136.914  0.00  0.00    +0.000 A 
ENDBRANCH   7  16
BRANCH   4  22
ATOM     22  O   UNL     1     113.452 126.928 138.581  0.00  0.00    +0.000 OA
BRANCH  22  30
ATOM     23  O   UNL     1     112.392 126.861 139.537  0.00  0.00    +0.000 OA
ATOM     24  O   UNL     1     114.051 126.809 141.372  0.00  0.00    +0.000 OA
ATOM     25  O   UNL     1     114.558 126.893 139.804  0.00  0.00    +0.000 OA
ATOM     26  O   UNL     1     112.438 126.760 141.717  0.00  0.00    +0.000 OA
ATOM     27  C   UNL     1     113.498 126.827 140.761  0.00  0.00    +0.000 C 
ATOM     28  C   UNL     1     113.752 126.869 139.977  0.00  0.00    +0.000 C 
ATOM     29  C   UNL     1     112.692 126.802 140.933  0.00  0.00    +0.000 C 
ATOM     30  C   UNL     1     113.199 126.886 139.365  0.00  0.00    +0.000 C 
ATOM     31  C   UNL     1     112.139 126.819 140.321  0.00  0.00    +0.000 C 
BRANCH  31  34
ATOM     32  O   UNL     1     110.929 126.075 140.473  0.00  0.00    +0.000 OA
ATOM     33  O   UNL     1     110.930 127.489 140.684  0.00  0.00    +0.000 OA
ATOM     34  C   UNL     1     111.332 126.795 140.493  0.00  0.00    +0.000 C 
ENDBRANCH  31  34
ENDBRANCH  22  30
ENDBRANCH   4  22
BRANCH   5  35
ATOM     35  O   UNL     1     111.349 130.181 136.008  0.00  0.00    +0.000 OA
BRANCH  35  43
ATOM     36  O   UNL     1     110.132 130.350 136.738  0.00  0.00    +0.000 OA
ATOM     37  O   UNL     1     108.838 130.087 134.644  0.00  0.00    +0.000 OA
ATOM     38  O   UNL     1     110.486 130.006 134.612  0.00  0.00    +0.000 OA
ATOM     39  O   UNL     1     108.052 130.343 136.072  0.00  0.00    +0.000 OA
ATOM     40  C   UNL     1     109.269 130.174 135.342  0.00  0.00    +0.000 C 
ATOM     41  C   UNL     1     110.093 130.134 135.326  0.00  0.00    +0.000 C 
ATOM     42  C   UNL     1     108.877 130.302 136.056  0.00  0.00    +0.000 C 
ATOM     43  C   UNL     1     110.524 130.222 136.023  0.00  0.00    +0.000 C 
ATOM     44  C   UNL     1     109.308 130.390 136.754  0.00  0.00    +0.000 C 
BRANCH  44  47
ATOM     45  O   UNL     1     108.772 131.288 137.729  0.00  0.00    +0.000 OA
ATOM     46  O   UNL     1     108.664 129.876 137.921  0.00  0.00    +0.000 OA
ATOM     47  C   UNL     1     108.915 130.518 137.468  0.00  0.00    +0.000 C 
ENDBRANCH  44  47
ENDBRANCH  35  43
ENDBRANCH   5  35
TORSDOF 7
ENDMDL
