MODEL 1
REMARK VINA RESULT:     -11.6      0.000      0.000
REMARK  Name = 131752193
REMARK  12 active torsions:
REMARK  status: ('A' for Active; 'I' for Inactive)
REMARK    1  A    between atoms: O_1  and  C_19
REMARK    2  A    between atoms: O_1  and  C_24
REMARK    3  A    between atoms: O_10  and  C_31
REMARK    4  A    between atoms: O_10  and  C_40
REMARK    5  A    between atoms: O_11  and  C_33
REMARK    6  A    between atoms: O_17  and  C_53
REMARK    7  A    between atoms: C_21  and  C_29
REMARK    8  A    between atoms: C_23  and  C_30
REMARK    9  A    between atoms: C_28  and  C_31
REMARK   10  A    between atoms: C_39  and  C_42
REMARK   11  A    between atoms: C_40  and  C_43
REMARK   12  A    between atoms: C_46  and  C_50
REMARK                            x       y       z     vdW  Elec       q    Type
REMARK                         _______ _______ _______ _____ _____    ______ ____
ROOT
ATOM      1  O   UNL     1     105.196 128.025 143.313  0.00  0.00    +0.000 OA
ATOM      2  O   UNL     1     106.709 127.956 141.356  0.00  0.00    +0.000 OA
ATOM      3  O   UNL     1     105.212 128.636 141.218  0.00  0.00    +0.000 OA
ATOM      4  C   UNL     1     106.448 127.662 142.730  0.00  0.00    +0.000 C 
ATOM      5  C   UNL     1     106.205 127.979 142.008  0.00  0.00    +0.000 C 
ATOM      6  C   UNL     1     105.944 127.685 143.382  0.00  0.00    +0.000 C 
ATOM      7  C   UNL     1     105.456 128.319 141.939  0.00  0.00    +0.000 C 
ATOM      8  C   UNL     1     104.951 128.342 142.592  0.00  0.00    +0.000 C 
ENDROOT
BRANCH   6  12
ATOM      9  O   UNL     1     105.449 126.177 143.831  0.00  0.00    +0.000 OA
ATOM     10  O   UNL     1     106.936 126.418 146.302  0.00  0.00    +0.000 OA
ATOM     11  O   UNL     1     105.428 125.080 144.770  0.00  0.00    +0.000 OA
ATOM     12  C   UNL     1     106.188 127.368 144.104  0.00  0.00    +0.000 A 
ATOM     13  C   UNL     1     105.941 126.615 144.329  0.00  0.00    +0.000 A 
ATOM     14  C   UNL     1     106.679 127.806 144.601  0.00  0.00    +0.000 A 
ATOM     15  C   UNL     1     106.184 126.298 145.051  0.00  0.00    +0.000 A 
ATOM     16  C   UNL     1     106.924 127.491 145.323  0.00  0.00    +0.000 A 
ATOM     17  C   UNL     1     106.676 126.736 145.548  0.00  0.00    +0.000 A 
ATOM     18  C   UNL     1     105.920 125.512 145.273  0.00  0.00    +0.000 A 
ATOM     19  C   UNL     1     106.170 125.177 146.024  0.00  0.00    +0.000 A 
ATOM     20  C   UNL     1     106.682 125.633 146.542  0.00  0.00    +0.000 A 
BRANCH  20  22
ATOM     21  O   UNL     1     107.667 124.382 149.432  0.00  0.00    +0.000 OA
ATOM     22  C   UNL     1     106.928 125.320 147.265  0.00  0.00    +0.000 A 
ATOM     23  C   UNL     1     106.369 125.083 147.824  0.00  0.00    +0.000 A 
ATOM     24  C   UNL     1     107.733 125.244 147.429  0.00  0.00    +0.000 A 
ATOM     25  C   UNL     1     106.615 124.770 148.546  0.00  0.00    +0.000 A 
ATOM     26  C   UNL     1     107.979 124.931 148.150  0.00  0.00    +0.000 A 
ATOM     27  C   UNL     1     107.420 124.694 148.709  0.00  0.00    +0.000 A 
ENDBRANCH  20  22
BRANCH  14  28
ATOM     28  O   UNL     1     106.927 128.561 144.376  0.00  0.00    +0.000 OA
ATOM     29  C   UNL     1     107.255 129.072 144.935  0.00  0.00    +0.000 C 
ENDBRANCH  14  28
ENDBRANCH   6  12
BRANCH   8  31
ATOM     30  O   UNL     1     103.970 129.276 143.046  0.00  0.00    +0.000 OA
ATOM     31  C   UNL     1     104.203 128.682 142.522  0.00  0.00    +0.000 C 
ENDBRANCH   8  31
BRANCH   4  32
ATOM     32  O   UNL     1     107.197 127.322 142.799  0.00  0.00    +0.000 OA
BRANCH  32  37
ATOM     33  O   UNL     1     106.959 126.152 142.014  0.00  0.00    +0.000 OA
ATOM     34  O   UNL     1     108.699 127.465 142.132  0.00  0.00    +0.000 OA
ATOM     35  O   UNL     1     109.213 126.366 141.014  0.00  0.00    +0.000 OA
ATOM     36  O   UNL     1     108.224 125.124 140.562  0.00  0.00    +0.000 OA
ATOM     37  C   UNL     1     107.454 126.772 142.239  0.00  0.00    +0.000 C 
ATOM     38  C   UNL     1     108.205 126.844 141.906  0.00  0.00    +0.000 C 
ATOM     39  C   UNL     1     108.462 126.294 141.347  0.00  0.00    +0.000 C 
ATOM     40  C   UNL     1     107.968 125.673 141.121  0.00  0.00    +0.000 C 
ATOM     41  C   UNL     1     107.217 125.602 141.455  0.00  0.00    +0.000 C 
BRANCH  41  42
ATOM     42  C   UNL     1     106.722 124.982 141.229  0.00  0.00    +0.000 C 
BRANCH  42  43
ATOM     43  O   UNL     1     106.057 125.133 140.763  0.00  0.00    +0.000 OA
BRANCH  43  45
ATOM     44  O   UNL     1     105.269 124.082 141.325  0.00  0.00    +0.000 OA
ATOM     45  C   UNL     1     105.471 124.558 140.683  0.00  0.00    +0.000 C 
BRANCH  45  46
ATOM     46  C   UNL     1     105.088 124.459 139.958  0.00  0.00    +0.000 C 
ATOM     47  C   UNL     1     104.604 123.802 139.835  0.00  0.00    +0.000 C 
BRANCH  47  49
ATOM     48  O   UNL     1     103.073 123.406 136.939  0.00  0.00    +0.000 OA
ATOM     49  C   UNL     1     104.221 123.703 139.110  0.00  0.00    +0.000 A 
ATOM     50  C   UNL     1     103.398 123.739 139.071  0.00  0.00    +0.000 A 
ATOM     51  C   UNL     1     104.662 123.568 138.426  0.00  0.00    +0.000 A 
ATOM     52  C   UNL     1     103.015 123.640 138.347  0.00  0.00    +0.000 A 
ATOM     53  C   UNL     1     104.278 123.469 137.703  0.00  0.00    +0.000 A 
ATOM     54  C   UNL     1     103.455 123.505 137.663  0.00  0.00    +0.000 A 
BRANCH  52  55
ATOM     55  O   UNL     1     102.192 123.676 138.308  0.00  0.00    +0.000 OA
ATOM     56  C   UNL     1     101.734 123.210 138.811  0.00  0.00    +0.000 C 
ENDBRANCH  52  55
ENDBRANCH  47  49
ENDBRANCH  45  46
ENDBRANCH  43  45
ENDBRANCH  42  43
ENDBRANCH  41  42
ENDBRANCH  32  37
ENDBRANCH   4  32
TORSDOF 12
ENDMDL
MODEL 2
REMARK VINA RESULT:     -11.4      6.038      8.816
REMARK  Name = 131752193
REMARK  12 active torsions:
REMARK  status: ('A' for Active; 'I' for Inactive)
REMARK    1  A    between atoms: O_1  and  C_19
REMARK    2  A    between atoms: O_1  and  C_24
REMARK    3  A    between atoms: O_10  and  C_31
REMARK    4  A    between atoms: O_10  and  C_40
REMARK    5  A    between atoms: O_11  and  C_33
REMARK    6  A    between atoms: O_17  and  C_53
REMARK    7  A    between atoms: C_21  and  C_29
REMARK    8  A    between atoms: C_23  and  C_30
REMARK    9  A    between atoms: C_28  and  C_31
REMARK   10  A    between atoms: C_39  and  C_42
REMARK   11  A    between atoms: C_40  and  C_43
REMARK   12  A    between atoms: C_46  and  C_50
REMARK                            x       y       z     vdW  Elec       q    Type
REMARK                         _______ _______ _______ _____ _____    ______ ____
ROOT
ATOM      1  O   UNL     1     113.990 129.550 140.239  0.00  0.00    +0.000 OA
ATOM      2  O   UNL     1     112.554 130.050 142.192  0.00  0.00    +0.000 OA
ATOM      3  O   UNL     1     113.731 131.114 141.739  0.00  0.00    +0.000 OA
ATOM      4  C   UNL     1     112.923 129.185 141.116  0.00  0.00    +0.000 C 
ATOM      5  C   UNL     1     113.032 129.883 141.541  0.00  0.00    +0.000 C 
ATOM      6  C   UNL     1     113.401 129.018 140.466  0.00  0.00    +0.000 C 
ATOM      7  C   UNL     1     113.621 130.416 141.315  0.00  0.00    +0.000 C 
ATOM      8  C   UNL     1     114.100 130.249 140.663  0.00  0.00    +0.000 C 
ENDROOT
BRANCH   6  12
ATOM      9  O   UNL     1     112.539 129.033 139.059  0.00  0.00    +0.000 OA
ATOM     10  O   UNL     1     112.969 126.187 138.758  0.00  0.00    +0.000 OA
ATOM     11  O   UNL     1     111.983 128.360 137.910  0.00  0.00    +0.000 OA
ATOM     12  C   UNL     1     113.292 128.319 140.041  0.00  0.00    +0.000 A 
ATOM     13  C   UNL     1     112.862 128.327 139.338  0.00  0.00    +0.000 A 
ATOM     14  C   UNL     1     113.615 127.613 140.319  0.00  0.00    +0.000 A 
ATOM     15  C   UNL     1     112.752 127.628 138.912  0.00  0.00    +0.000 A 
ATOM     16  C   UNL     1     113.506 126.914 139.895  0.00  0.00    +0.000 A 
ATOM     17  C   UNL     1     113.075 126.921 139.191  0.00  0.00    +0.000 A 
ATOM     18  C   UNL     1     112.302 127.649 138.182  0.00  0.00    +0.000 A 
ATOM     19  C   UNL     1     112.185 126.924 137.734  0.00  0.00    +0.000 A 
ATOM     20  C   UNL     1     112.520 126.188 138.025  0.00  0.00    +0.000 A 
BRANCH  20  22
ATOM     21  O   UNL     1     112.091 123.385 136.338  0.00  0.00    +0.000 OA
ATOM     22  C   UNL     1     112.414 125.487 137.602  0.00  0.00    +0.000 A 
ATOM     23  C   UNL     1     113.012 125.208 137.108  0.00  0.00    +0.000 A 
ATOM     24  C   UNL     1     111.708 125.066 137.675  0.00  0.00    +0.000 A 
ATOM     25  C   UNL     1     112.905 124.507 136.686  0.00  0.00    +0.000 A 
ATOM     26  C   UNL     1     111.601 124.366 137.254  0.00  0.00    +0.000 A 
ATOM     27  C   UNL     1     112.199 124.086 136.759  0.00  0.00    +0.000 A 
ENDBRANCH  20  22
BRANCH  14  28
ATOM     28  O   UNL     1     114.046 127.605 141.023  0.00  0.00    +0.000 OA
ATOM     29  C   UNL     1     114.557 126.978 141.188  0.00  0.00    +0.000 C 
ENDBRANCH  14  28
ENDBRANCH   6  12
BRANCH   8  31
ATOM     30  O   UNL     1     115.454 130.511 140.291  0.00  0.00    +0.000 OA
ATOM     31  C   UNL     1     114.688 130.781 140.437  0.00  0.00    +0.000 C 
ENDBRANCH   8  31
BRANCH   4  32
ATOM     32  O   UNL     1     112.335 128.652 141.343  0.00  0.00    +0.000 OA
BRANCH  32  37
ATOM     33  O   UNL     1     111.248 129.530 141.043  0.00  0.00    +0.000 OA
ATOM     34  O   UNL     1     111.455 127.981 142.566  0.00  0.00    +0.000 OA
ATOM     35  O   UNL     1     109.928 128.522 142.878  0.00  0.00    +0.000 OA
ATOM     36  O   UNL     1     109.281 129.736 141.967  0.00  0.00    +0.000 OA
ATOM     37  C   UNL     1     111.571 128.923 141.499  0.00  0.00    +0.000 C 
ATOM     38  C   UNL     1     111.131 128.587 142.111  0.00  0.00    +0.000 C 
ATOM     39  C   UNL     1     110.368 128.858 142.266  0.00  0.00    +0.000 C 
ATOM     40  C   UNL     1     110.044 129.465 141.811  0.00  0.00    +0.000 C 
ATOM     41  C   UNL     1     110.484 129.801 141.199  0.00  0.00    +0.000 C 
BRANCH  41  42
ATOM     42  C   UNL     1     110.161 130.407 140.743  0.00  0.00    +0.000 C 
BRANCH  42  43
ATOM     43  O   UNL     1     110.105 130.322 139.923  0.00  0.00    +0.000 OA
BRANCH  43  45
ATOM     44  O   UNL     1     110.423 131.676 139.595  0.00  0.00    +0.000 OA
ATOM     45  C   UNL     1     109.995 130.986 139.447  0.00  0.00    +0.000 C 
BRANCH  45  46
ATOM     46  C   UNL     1     109.457 130.960 138.821  0.00  0.00    +0.000 C 
ATOM     47  C   UNL     1     109.712 131.109 138.052  0.00  0.00    +0.000 C 
BRANCH  47  49
ATOM     48  O   UNL     1     107.560 131.006 135.552  0.00  0.00    +0.000 OA
ATOM     49  C   UNL     1     109.174 131.083 137.426  0.00  0.00    +0.000 A 
ATOM     50  C   UNL     1     109.077 130.387 136.994  0.00  0.00    +0.000 A 
ATOM     51  C   UNL     1     108.733 131.753 137.234  0.00  0.00    +0.000 A 
ATOM     52  C   UNL     1     108.539 130.361 136.370  0.00  0.00    +0.000 A 
ATOM     53  C   UNL     1     108.196 131.727 136.609  0.00  0.00    +0.000 A 
ATOM     54  C   UNL     1     108.099 131.031 136.177  0.00  0.00    +0.000 A 
BRANCH  52  55
ATOM     55  O   UNL     1     108.442 129.665 135.937  0.00  0.00    +0.000 OA
ATOM     56  C   UNL     1     109.095 129.190 135.769  0.00  0.00    +0.000 C 
ENDBRANCH  52  55
ENDBRANCH  47  49
ENDBRANCH  45  46
ENDBRANCH  43  45
ENDBRANCH  42  43
ENDBRANCH  41  42
ENDBRANCH  32  37
ENDBRANCH   4  32
TORSDOF 12
ENDMDL
MODEL 3
REMARK VINA RESULT:     -10.9      5.118      7.394
REMARK  Name = 131752193
REMARK  12 active torsions:
REMARK  status: ('A' for Active; 'I' for Inactive)
REMARK    1  A    between atoms: O_1  and  C_19
REMARK    2  A    between atoms: O_1  and  C_24
REMARK    3  A    between atoms: O_10  and  C_31
REMARK    4  A    between atoms: O_10  and  C_40
REMARK    5  A    between atoms: O_11  and  C_33
REMARK    6  A    between atoms: O_17  and  C_53
REMARK    7  A    between atoms: C_21  and  C_29
REMARK    8  A    between atoms: C_23  and  C_30
REMARK    9  A    between atoms: C_28  and  C_31
REMARK   10  A    between atoms: C_39  and  C_42
REMARK   11  A    between atoms: C_40  and  C_43
REMARK   12  A    between atoms: C_46  and  C_50
REMARK                            x       y       z     vdW  Elec       q    Type
REMARK                         _______ _______ _______ _____ _____    ______ ____
ROOT
ATOM      1  O   UNL     1     110.319 130.871 141.935  0.00  0.00    +0.000 OA
ATOM      2  O   UNL     1     112.101 130.702 140.227  0.00  0.00    +0.000 OA
ATOM      3  O   UNL     1     110.518 130.553 139.786  0.00  0.00    +0.000 OA
ATOM      4  C   UNL     1     111.704 130.889 141.587  0.00  0.00    +0.000 C 
ATOM      5  C   UNL     1     111.507 130.758 140.796  0.00  0.00    +0.000 C 
ATOM      6  C   UNL     1     111.111 130.946 142.156  0.00  0.00    +0.000 C 
ATOM      7  C   UNL     1     110.716 130.684 140.576  0.00  0.00    +0.000 C 
ATOM      8  C   UNL     1     110.121 130.741 141.146  0.00  0.00    +0.000 C 
ENDROOT
BRANCH   6  12
ATOM      9  O   UNL     1     111.543 132.456 142.661  0.00  0.00    +0.000 OA
ATOM     10  O   UNL     1     111.903 131.459 145.354  0.00  0.00    +0.000 OA
ATOM     11  O   UNL     1     111.961 133.372 143.695  0.00  0.00    +0.000 OA
ATOM     12  C   UNL     1     111.307 131.076 142.947  0.00  0.00    +0.000 A 
ATOM     13  C   UNL     1     111.523 131.831 143.199  0.00  0.00    +0.000 A 
ATOM     14  C   UNL     1     111.288 130.452 143.485  0.00  0.00    +0.000 A 
ATOM     15  C   UNL     1     111.720 131.962 143.990  0.00  0.00    +0.000 A 
ATOM     16  C   UNL     1     111.484 130.581 144.276  0.00  0.00    +0.000 A 
ATOM     17  C   UNL     1     111.700 131.337 144.528  0.00  0.00    +0.000 A 
ATOM     18  C   UNL     1     111.943 132.752 144.240  0.00  0.00    +0.000 A 
ATOM     19  C   UNL     1     112.149 132.895 145.063  0.00  0.00    +0.000 A 
ATOM     20  C   UNL     1     112.129 132.244 145.623  0.00  0.00    +0.000 A 
BRANCH  20  22
ATOM     21  O   UNL     1     112.911 132.751 148.788  0.00  0.00    +0.000 OA
ATOM     22  C   UNL     1     112.325 132.370 146.415  0.00  0.00    +0.000 A 
ATOM     23  C   UNL     1     113.042 132.090 146.712  0.00  0.00    +0.000 A 
ATOM     24  C   UNL     1     111.804 132.777 146.908  0.00  0.00    +0.000 A 
ATOM     25  C   UNL     1     113.237 132.217 147.504  0.00  0.00    +0.000 A 
ATOM     26  C   UNL     1     111.999 132.904 147.699  0.00  0.00    +0.000 A 
ATOM     27  C   UNL     1     112.716 132.624 147.997  0.00  0.00    +0.000 A 
ENDBRANCH  20  22
BRANCH  14  28
ATOM     28  O   UNL     1     111.071 129.696 143.233  0.00  0.00    +0.000 OA
ATOM     29  C   UNL     1     110.869 129.118 143.786  0.00  0.00    +0.000 C 
ENDBRANCH  14  28
ENDBRANCH   6  12
BRANCH   8  31
ATOM     30  O   UNL     1     108.757 131.146 141.276  0.00  0.00    +0.000 OA
ATOM     31  C   UNL     1     109.330 130.666 140.925  0.00  0.00    +0.000 C 
ENDBRANCH   8  31
BRANCH   4  32
ATOM     32  O   UNL     1     112.495 130.964 141.808  0.00  0.00    +0.000 OA
BRANCH  32  37
ATOM     33  O   UNL     1     112.877 129.662 141.356  0.00  0.00    +0.000 OA
ATOM     34  O   UNL     1     113.999 131.533 141.436  0.00  0.00    +0.000 OA
ATOM     35  O   UNL     1     115.132 130.516 140.799  0.00  0.00    +0.000 OA
ATOM     36  O   UNL     1     114.762 128.931 140.534  0.00  0.00    +0.000 OA
ATOM     37  C   UNL     1     113.063 130.455 141.489  0.00  0.00    +0.000 C 
ATOM     38  C   UNL     1     113.814 130.740 141.303  0.00  0.00    +0.000 C 
ATOM     39  C   UNL     1     114.380 130.232 140.985  0.00  0.00    +0.000 C 
ATOM     40  C   UNL     1     114.196 129.439 140.852  0.00  0.00    +0.000 C 
ATOM     41  C   UNL     1     113.444 129.154 141.037  0.00  0.00    +0.000 C 
BRANCH  41  42
ATOM     42  C   UNL     1     113.258 128.361 140.905  0.00  0.00    +0.000 C 
BRANCH  42  43
ATOM     43  O   UNL     1     112.749 127.965 141.421  0.00  0.00    +0.000 OA
BRANCH  43  45
ATOM     44  O   UNL     1     112.949 126.550 141.434  0.00  0.00    +0.000 OA
ATOM     45  C   UNL     1     112.487 127.205 141.237  0.00  0.00    +0.000 C 
BRANCH  45  46
ATOM     46  C   UNL     1     111.762 127.100 140.857  0.00  0.00    +0.000 C 
ATOM     47  C   UNL     1     111.166 126.660 141.220  0.00  0.00    +0.000 C 
BRANCH  47  49
ATOM     48  O   UNL     1     108.268 126.239 139.699  0.00  0.00    +0.000 OA
ATOM     49  C   UNL     1     110.441 126.554 140.840  0.00  0.00    +0.000 A 
ATOM     50  C   UNL     1     109.765 126.926 141.131  0.00  0.00    +0.000 A 
ATOM     51  C   UNL     1     110.394 126.077 140.168  0.00  0.00    +0.000 A 
ATOM     52  C   UNL     1     109.041 126.821 140.751  0.00  0.00    +0.000 A 
ATOM     53  C   UNL     1     109.669 125.973 139.789  0.00  0.00    +0.000 A 
ATOM     54  C   UNL     1     108.993 126.344 140.080  0.00  0.00    +0.000 A 
BRANCH  52  55
ATOM     55  O   UNL     1     108.364 127.192 141.042  0.00  0.00    +0.000 OA
ATOM     56  C   UNL     1     108.256 127.276 141.855  0.00  0.00    +0.000 C 
ENDBRANCH  52  55
ENDBRANCH  47  49
ENDBRANCH  45  46
ENDBRANCH  43  45
ENDBRANCH  42  43
ENDBRANCH  41  42
ENDBRANCH  32  37
ENDBRANCH   4  32
TORSDOF 12
ENDMDL
MODEL 4
REMARK VINA RESULT:     -10.9      6.006      8.487
REMARK  Name = 131752193
REMARK  12 active torsions:
REMARK  status: ('A' for Active; 'I' for Inactive)
REMARK    1  A    between atoms: O_1  and  C_19
REMARK    2  A    between atoms: O_1  and  C_24
REMARK    3  A    between atoms: O_10  and  C_31
REMARK    4  A    between atoms: O_10  and  C_40
REMARK    5  A    between atoms: O_11  and  C_33
REMARK    6  A    between atoms: O_17  and  C_53
REMARK    7  A    between atoms: C_21  and  C_29
REMARK    8  A    between atoms: C_23  and  C_30
REMARK    9  A    between atoms: C_28  and  C_31
REMARK   10  A    between atoms: C_39  and  C_42
REMARK   11  A    between atoms: C_40  and  C_43
REMARK   12  A    between atoms: C_46  and  C_50
REMARK                            x       y       z     vdW  Elec       q    Type
REMARK                         _______ _______ _______ _____ _____    ______ ____
ROOT
ATOM      1  O   UNL     1     112.880 129.000 136.757  0.00  0.00    +0.000 OA
ATOM      2  O   UNL     1     110.990 129.423 135.218  0.00  0.00    +0.000 OA
ATOM      3  O   UNL     1     112.484 129.070 134.612  0.00  0.00    +0.000 OA
ATOM      4  C   UNL     1     111.504 129.317 136.547  0.00  0.00    +0.000 C 
ATOM      5  C   UNL     1     111.620 129.282 135.731  0.00  0.00    +0.000 C 
ATOM      6  C   UNL     1     112.133 129.176 137.060  0.00  0.00    +0.000 C 
ATOM      7  C   UNL     1     112.367 129.106 135.428  0.00  0.00    +0.000 C 
ATOM      8  C   UNL     1     112.998 128.964 135.942  0.00  0.00    +0.000 C 
ENDROOT
BRANCH   6  12
ATOM      9  O   UNL     1     111.961 127.785 137.930  0.00  0.00    +0.000 OA
ATOM     10  O   UNL     1     111.665 129.333 140.357  0.00  0.00    +0.000 OA
ATOM     11  O   UNL     1     111.757 127.093 139.181  0.00  0.00    +0.000 OA
ATOM     12  C   UNL     1     112.017 129.211 137.876  0.00  0.00    +0.000 A 
ATOM     13  C   UNL     1     111.931 128.516 138.311  0.00  0.00    +0.000 A 
ATOM     14  C   UNL     1     111.987 129.942 138.257  0.00  0.00    +0.000 A 
ATOM     15  C   UNL     1     111.815 128.551 139.127  0.00  0.00    +0.000 A 
ATOM     16  C   UNL     1     111.872 129.979 139.073  0.00  0.00    +0.000 A 
ATOM     17  C   UNL     1     111.785 129.283 139.508  0.00  0.00    +0.000 A 
ATOM     18  C   UNL     1     111.726 127.820 139.569  0.00  0.00    +0.000 A 
ATOM     19  C   UNL     1     111.605 127.851 140.420  0.00  0.00    +0.000 A 
ATOM     20  C   UNL     1     111.574 128.612 140.816  0.00  0.00    +0.000 A 
BRANCH  20  22
ATOM     21  O   UNL     1     111.113 128.770 144.080  0.00  0.00    +0.000 OA
ATOM     22  C   UNL     1     111.458 128.651 141.633  0.00  0.00    +0.000 A 
ATOM     23  C   UNL     1     110.694 128.702 141.939  0.00  0.00    +0.000 A 
ATOM     24  C   UNL     1     112.107 128.641 142.142  0.00  0.00    +0.000 A 
ATOM     25  C   UNL     1     110.579 128.741 142.755  0.00  0.00    +0.000 A 
ATOM     26  C   UNL     1     111.992 128.680 142.957  0.00  0.00    +0.000 A 
ATOM     27  C   UNL     1     111.228 128.730 143.264  0.00  0.00    +0.000 A 
ENDBRANCH  20  22
BRANCH  14  28
ATOM     28  O   UNL     1     112.074 130.639 137.822  0.00  0.00    +0.000 OA
ATOM     29  C   UNL     1     112.220 131.352 138.209  0.00  0.00    +0.000 C 
ENDBRANCH  14  28
ENDBRANCH   6  12
BRANCH   8  31
ATOM     30  O   UNL     1     114.416 129.135 135.970  0.00  0.00    +0.000 OA
ATOM     31  C   UNL     1     113.744 128.788 135.639  0.00  0.00    +0.000 C 
ENDBRANCH   8  31
BRANCH   4  32
ATOM     32  O   UNL     1     110.757 129.494 136.850  0.00  0.00    +0.000 OA
BRANCH  32  37
ATOM     33  O   UNL     1     110.120 128.288 136.420  0.00  0.00    +0.000 OA
ATOM     34  O   UNL     1     109.368 130.333 136.553  0.00  0.00    +0.000 OA
ATOM     35  O   UNL     1     108.037 129.547 135.975  0.00  0.00    +0.000 OA
ATOM     36  O   UNL     1     108.095 127.923 135.694  0.00  0.00    +0.000 OA
ATOM     37  C   UNL     1     110.091 129.101 136.560  0.00  0.00    +0.000 C 
ATOM     38  C   UNL     1     109.396 129.520 136.412  0.00  0.00    +0.000 C 
ATOM     39  C   UNL     1     108.731 129.128 136.123  0.00  0.00    +0.000 C 
ATOM     40  C   UNL     1     108.760 128.315 135.982  0.00  0.00    +0.000 C 
ATOM     41  C   UNL     1     109.454 127.895 136.131  0.00  0.00    +0.000 C 
BRANCH  41  42
ATOM     42  C   UNL     1     109.484 127.083 135.991  0.00  0.00    +0.000 C 
BRANCH  42  43
ATOM     43  O   UNL     1     110.173 126.742 135.689  0.00  0.00    +0.000 OA
BRANCH  43  45
ATOM     44  O   UNL     1     109.732 125.555 135.025  0.00  0.00    +0.000 OA
ATOM     45  C   UNL     1     110.215 125.925 135.583  0.00  0.00    +0.000 C 
BRANCH  45  46
ATOM     46  C   UNL     1     110.741 125.477 136.035  0.00  0.00    +0.000 C 
ATOM     47  C   UNL     1     111.454 125.223 135.706  0.00  0.00    +0.000 C 
BRANCH  47  49
ATOM     48  O   UNL     1     113.556 123.434 137.514  0.00  0.00    +0.000 OA
ATOM     49  C   UNL     1     111.980 124.775 136.159  0.00  0.00    +0.000 A 
ATOM     50  C   UNL     1     112.735 125.065 136.321  0.00  0.00    +0.000 A 
ATOM     51  C   UNL     1     111.750 124.038 136.449  0.00  0.00    +0.000 A 
ATOM     52  C   UNL     1     113.260 124.618 136.772  0.00  0.00    +0.000 A 
ATOM     53  C   UNL     1     112.275 123.592 136.900  0.00  0.00    +0.000 A 
ATOM     54  C   UNL     1     113.031 123.882 137.062  0.00  0.00    +0.000 A 
BRANCH  52  55
ATOM     55  O   UNL     1     114.015 124.908 136.934  0.00  0.00    +0.000 OA
ATOM     56  C   UNL     1     114.346 125.490 136.452  0.00  0.00    +0.000 C 
ENDBRANCH  52  55
ENDBRANCH  47  49
ENDBRANCH  45  46
ENDBRANCH  43  45
ENDBRANCH  42  43
ENDBRANCH  41  42
ENDBRANCH  32  37
ENDBRANCH   4  32
TORSDOF 12
ENDMDL
MODEL 5
REMARK VINA RESULT:     -10.9      1.953      4.770
REMARK  Name = 131752193
REMARK  12 active torsions:
REMARK  status: ('A' for Active; 'I' for Inactive)
REMARK    1  A    between atoms: O_1  and  C_19
REMARK    2  A    between atoms: O_1  and  C_24
REMARK    3  A    between atoms: O_10  and  C_31
REMARK    4  A    between atoms: O_10  and  C_40
REMARK    5  A    between atoms: O_11  and  C_33
REMARK    6  A    between atoms: O_17  and  C_53
REMARK    7  A    between atoms: C_21  and  C_29
REMARK    8  A    between atoms: C_23  and  C_30
REMARK    9  A    between atoms: C_28  and  C_31
REMARK   10  A    between atoms: C_39  and  C_42
REMARK   11  A    between atoms: C_40  and  C_43
REMARK   12  A    between atoms: C_46  and  C_50
REMARK                            x       y       z     vdW  Elec       q    Type
REMARK                         _______ _______ _______ _____ _____    ______ ____
ROOT
ATOM      1  O   UNL     1     107.460 128.467 141.690  0.00  0.00    +0.000 OA
ATOM      2  O   UNL     1     107.728 126.459 143.111  0.00  0.00    +0.000 OA
ATOM      3  O   UNL     1     108.920 126.886 142.054  0.00  0.00    +0.000 OA
ATOM      4  C   UNL     1     106.953 127.584 142.692  0.00  0.00    +0.000 C 
ATOM      5  C   UNL     1     107.638 127.128 142.638  0.00  0.00    +0.000 C 
ATOM      6  C   UNL     1     106.864 128.253 142.218  0.00  0.00    +0.000 C 
ATOM      7  C   UNL     1     108.235 127.342 142.109  0.00  0.00    +0.000 C 
ATOM      8  C   UNL     1     108.146 128.012 141.635  0.00  0.00    +0.000 C 
ENDROOT
BRANCH   6  12
ATOM      9  O   UNL     1     105.608 127.983 141.183  0.00  0.00    +0.000 OA
ATOM     10  O   UNL     1     104.101 130.105 142.449  0.00  0.00    +0.000 OA
ATOM     11  O   UNL     1     104.284 128.287 140.696  0.00  0.00    +0.000 OA
ATOM     12  C   UNL     1     106.178 128.710 142.273  0.00  0.00    +0.000 A 
ATOM     13  C   UNL     1     105.551 128.575 141.756  0.00  0.00    +0.000 A 
ATOM     14  C   UNL     1     106.122 129.301 142.845  0.00  0.00    +0.000 A 
ATOM     15  C   UNL     1     104.865 129.031 141.810  0.00  0.00    +0.000 A 
ATOM     16  C   UNL     1     105.437 129.758 142.900  0.00  0.00    +0.000 A 
ATOM     17  C   UNL     1     104.808 129.623 142.382  0.00  0.00    +0.000 A 
ATOM     18  C   UNL     1     104.219 128.881 141.265  0.00  0.00    +0.000 A 
ATOM     19  C   UNL     1     103.502 129.353 141.317  0.00  0.00    +0.000 A 
ATOM     20  C   UNL     1     103.443 129.969 141.913  0.00  0.00    +0.000 A 
BRANCH  20  22
ATOM     21  O   UNL     1     100.710 131.804 142.144  0.00  0.00    +0.000 OA
ATOM     22  C   UNL     1     102.759 130.428 141.970  0.00  0.00    +0.000 A 
ATOM     23  C   UNL     1     102.173 130.369 141.393  0.00  0.00    +0.000 A 
ATOM     24  C   UNL     1     102.662 130.946 142.605  0.00  0.00    +0.000 A 
ATOM     25  C   UNL     1     101.490 130.827 141.451  0.00  0.00    +0.000 A 
ATOM     26  C   UNL     1     101.980 131.404 142.663  0.00  0.00    +0.000 A 
ATOM     27  C   UNL     1     101.393 131.345 142.086  0.00  0.00    +0.000 A 
ENDBRANCH  20  22
BRANCH  14  28
ATOM     28  O   UNL     1     106.750 129.436 143.363  0.00  0.00    +0.000 OA
ATOM     29  C   UNL     1     106.749 130.104 143.847  0.00  0.00    +0.000 C 
ENDBRANCH  14  28
ENDBRANCH   6  12
BRANCH   8  31
ATOM     30  O   UNL     1     108.564 128.696 140.453  0.00  0.00    +0.000 OA
ATOM     31  C   UNL     1     108.742 128.225 141.107  0.00  0.00    +0.000 C 
ENDBRANCH   8  31
BRANCH   4  32
ATOM     32  O   UNL     1     106.357 127.371 143.220  0.00  0.00    +0.000 OA
BRANCH  32  37
ATOM     33  O   UNL     1     106.116 126.111 142.590  0.00  0.00    +0.000 OA
ATOM     34  O   UNL     1     105.838 126.750 144.659  0.00  0.00    +0.000 OA
ATOM     35  O   UNL     1     105.339 125.180 144.748  0.00  0.00    +0.000 OA
ATOM     36  O   UNL     1     105.358 124.230 143.399  0.00  0.00    +0.000 OA
ATOM     37  C   UNL     1     106.107 126.585 143.265  0.00  0.00    +0.000 C 
ATOM     38  C   UNL     1     105.848 126.275 143.984  0.00  0.00    +0.000 C 
ATOM     39  C   UNL     1     105.598 125.490 144.029  0.00  0.00    +0.000 C 
ATOM     40  C   UNL     1     105.607 125.015 143.355  0.00  0.00    +0.000 C 
ATOM     41  C   UNL     1     105.866 125.325 142.635  0.00  0.00    +0.000 C 
BRANCH  41  42
ATOM     42  C   UNL     1     105.876 124.851 141.961  0.00  0.00    +0.000 C 
BRANCH  42  43
ATOM     43  O   UNL     1     105.404 125.047 141.312  0.00  0.00    +0.000 OA
BRANCH  43  45
ATOM     44  O   UNL     1     106.292 124.578 140.295  0.00  0.00    +0.000 OA
ATOM     45  C   UNL     1     105.526 124.674 140.586  0.00  0.00    +0.000 C 
BRANCH  45  46
ATOM     46  C   UNL     1     104.881 124.398 140.151  0.00  0.00    +0.000 C 
ATOM     47  C   UNL     1     104.830 124.557 139.344  0.00  0.00    +0.000 C 
BRANCH  47  49
ATOM     48  O   UNL     1     102.251 123.454 137.605  0.00  0.00    +0.000 OA
ATOM     49  C   UNL     1     104.185 124.281 138.909  0.00  0.00    +0.000 A 
ATOM     50  C   UNL     1     104.305 123.768 138.274  0.00  0.00    +0.000 A 
ATOM     51  C   UNL     1     103.421 124.519 139.109  0.00  0.00    +0.000 A 
ATOM     52  C   UNL     1     103.661 123.492 137.840  0.00  0.00    +0.000 A 
ATOM     53  C   UNL     1     102.777 124.243 138.674  0.00  0.00    +0.000 A 
ATOM     54  C   UNL     1     102.897 123.729 138.039  0.00  0.00    +0.000 A 
BRANCH  52  55
ATOM     55  O   UNL     1     103.780 122.979 137.205  0.00  0.00    +0.000 OA
ATOM     56  C   UNL     1     104.456 123.051 136.737  0.00  0.00    +0.000 C 
ENDBRANCH  52  55
ENDBRANCH  47  49
ENDBRANCH  45  46
ENDBRANCH  43  45
ENDBRANCH  42  43
ENDBRANCH  41  42
ENDBRANCH  32  37
ENDBRANCH   4  32
TORSDOF 12
ENDMDL
MODEL 6
REMARK VINA RESULT:     -10.7      6.685     10.225
REMARK  Name = 131752193
REMARK  12 active torsions:
REMARK  status: ('A' for Active; 'I' for Inactive)
REMARK    1  A    between atoms: O_1  and  C_19
REMARK    2  A    between atoms: O_1  and  C_24
REMARK    3  A    between atoms: O_10  and  C_31
REMARK    4  A    between atoms: O_10  and  C_40
REMARK    5  A    between atoms: O_11  and  C_33
REMARK    6  A    between atoms: O_17  and  C_53
REMARK    7  A    between atoms: C_21  and  C_29
REMARK    8  A    between atoms: C_23  and  C_30
REMARK    9  A    between atoms: C_28  and  C_31
REMARK   10  A    between atoms: C_39  and  C_42
REMARK   11  A    between atoms: C_40  and  C_43
REMARK   12  A    between atoms: C_46  and  C_50
REMARK                            x       y       z     vdW  Elec       q    Type
REMARK                         _______ _______ _______ _____ _____    ______ ____
ROOT
ATOM      1  O   UNL     1     113.915 130.560 139.759  0.00  0.00    +0.000 OA
ATOM      2  O   UNL     1     114.130 128.191 140.439  0.00  0.00    +0.000 OA
ATOM      3  O   UNL     1     115.172 129.319 141.041  0.00  0.00    +0.000 OA
ATOM      4  C   UNL     1     113.466 129.206 139.685  0.00  0.00    +0.000 C 
ATOM      5  C   UNL     1     114.058 128.980 140.212  0.00  0.00    +0.000 C 
ATOM      6  C   UNL     1     113.394 129.996 139.458  0.00  0.00    +0.000 C 
ATOM      7  C   UNL     1     114.579 129.544 140.513  0.00  0.00    +0.000 C 
ATOM      8  C   UNL     1     114.508 130.335 140.286  0.00  0.00    +0.000 C 
ENDROOT
BRANCH   6  12
ATOM      9  O   UNL     1     111.983 130.637 140.025  0.00  0.00    +0.000 OA
ATOM     10  O   UNL     1     111.009 130.906 137.313  0.00  0.00    +0.000 OA
ATOM     11  O   UNL     1     110.669 131.192 139.806  0.00  0.00    +0.000 OA
ATOM     12  C   UNL     1     112.801 130.222 138.930  0.00  0.00    +0.000 A 
ATOM     13  C   UNL     1     112.097 130.542 139.213  0.00  0.00    +0.000 A 
ATOM     14  C   UNL     1     112.915 130.128 138.118  0.00  0.00    +0.000 A 
ATOM     15  C   UNL     1     111.504 130.769 138.685  0.00  0.00    +0.000 A 
ATOM     16  C   UNL     1     112.323 130.354 137.590  0.00  0.00    +0.000 A 
ATOM     17  C   UNL     1     111.617 130.675 137.874  0.00  0.00    +0.000 A 
ATOM     18  C   UNL     1     110.774 131.101 138.993  0.00  0.00    +0.000 A 
ATOM     19  C   UNL     1     110.153 131.339 138.448  0.00  0.00    +0.000 A 
ATOM     20  C   UNL     1     110.271 131.241 137.602  0.00  0.00    +0.000 A 
BRANCH  20  22
ATOM     21  O   UNL     1     107.914 132.142 135.478  0.00  0.00    +0.000 OA
ATOM     22  C   UNL     1     109.681 131.466 137.071  0.00  0.00    +0.000 A 
ATOM     23  C   UNL     1     109.042 130.964 136.928  0.00  0.00    +0.000 A 
ATOM     24  C   UNL     1     109.732 132.192 136.683  0.00  0.00    +0.000 A 
ATOM     25  C   UNL     1     108.453 131.190 136.397  0.00  0.00    +0.000 A 
ATOM     26  C   UNL     1     109.143 132.418 136.153  0.00  0.00    +0.000 A 
ATOM     27  C   UNL     1     108.503 131.917 136.009  0.00  0.00    +0.000 A 
ENDBRANCH  20  22
BRANCH  14  28
ATOM     28  O   UNL     1     113.621 129.807 137.834  0.00  0.00    +0.000 OA
ATOM     29  C   UNL     1     113.811 129.872 137.034  0.00  0.00    +0.000 C 
ENDBRANCH  14  28
ENDBRANCH   6  12
BRANCH   8  31
ATOM     30  O   UNL     1     114.781 131.681 140.681  0.00  0.00    +0.000 OA
ATOM     31  C   UNL     1     115.029 130.899 140.587  0.00  0.00    +0.000 C 
ENDBRANCH   8  31
BRANCH   4  32
ATOM     32  O   UNL     1     112.944 128.642 139.384  0.00  0.00    +0.000 OA
BRANCH  32  37
ATOM     33  O   UNL     1     112.399 128.284 140.655  0.00  0.00    +0.000 OA
ATOM     34  O   UNL     1     112.711 127.099 138.849  0.00  0.00    +0.000 OA
ATOM     35  O   UNL     1     112.049 125.969 139.853  0.00  0.00    +0.000 OA
ATOM     36  O   UNL     1     111.619 126.383 141.391  0.00  0.00    +0.000 OA
ATOM     37  C   UNL     1     112.613 128.077 139.886  0.00  0.00    +0.000 C 
ATOM     38  C   UNL     1     112.496 127.305 139.618  0.00  0.00    +0.000 C 
ATOM     39  C   UNL     1     112.165 126.741 140.120  0.00  0.00    +0.000 C 
ATOM     40  C   UNL     1     111.950 126.947 140.890  0.00  0.00    +0.000 C 
ATOM     41  C   UNL     1     112.067 127.719 141.157  0.00  0.00    +0.000 C 
BRANCH  41  42
ATOM     42  C   UNL     1     111.853 127.926 141.926  0.00  0.00    +0.000 C 
BRANCH  42  43
ATOM     43  O   UNL     1     111.489 128.653 142.071  0.00  0.00    +0.000 OA
BRANCH  43  45
ATOM     44  O   UNL     1     110.931 128.491 143.376  0.00  0.00    +0.000 OA
ATOM     45  C   UNL     1     111.395 128.919 142.846  0.00  0.00    +0.000 C 
BRANCH  45  46
ATOM     46  C   UNL     1     111.766 129.616 143.090  0.00  0.00    +0.000 C 
ATOM     47  C   UNL     1     111.313 130.250 143.360  0.00  0.00    +0.000 C 
BRANCH  47  49
ATOM     48  O   UNL     1     112.795 133.033 144.336  0.00  0.00    +0.000 OA
ATOM     49  C   UNL     1     111.684 130.946 143.604  0.00  0.00    +0.000 A 
ATOM     50  C   UNL     1     111.612 131.199 144.386  0.00  0.00    +0.000 A 
ATOM     51  C   UNL     1     112.126 131.388 143.066  0.00  0.00    +0.000 A 
ATOM     52  C   UNL     1     111.983 131.895 144.630  0.00  0.00    +0.000 A 
ATOM     53  C   UNL     1     112.496 132.084 143.310  0.00  0.00    +0.000 A 
ATOM     54  C   UNL     1     112.424 132.337 144.092  0.00  0.00    +0.000 A 
BRANCH  52  55
ATOM     55  O   UNL     1     111.911 132.148 145.412  0.00  0.00    +0.000 OA
ATOM     56  C   UNL     1     111.179 132.116 145.791  0.00  0.00    +0.000 C 
ENDBRANCH  52  55
ENDBRANCH  47  49
ENDBRANCH  45  46
ENDBRANCH  43  45
ENDBRANCH  42  43
ENDBRANCH  41  42
ENDBRANCH  32  37
ENDBRANCH   4  32
TORSDOF 12
ENDMDL
MODEL 7
REMARK VINA RESULT:     -10.7      5.821      7.535
REMARK  Name = 131752193
REMARK  12 active torsions:
REMARK  status: ('A' for Active; 'I' for Inactive)
REMARK    1  A    between atoms: O_1  and  C_19
REMARK    2  A    between atoms: O_1  and  C_24
REMARK    3  A    between atoms: O_10  and  C_31
REMARK    4  A    between atoms: O_10  and  C_40
REMARK    5  A    between atoms: O_11  and  C_33
REMARK    6  A    between atoms: O_17  and  C_53
REMARK    7  A    between atoms: C_21  and  C_29
REMARK    8  A    between atoms: C_23  and  C_30
REMARK    9  A    between atoms: C_28  and  C_31
REMARK   10  A    between atoms: C_39  and  C_42
REMARK   11  A    between atoms: C_40  and  C_43
REMARK   12  A    between atoms: C_46  and  C_50
REMARK                            x       y       z     vdW  Elec       q    Type
REMARK                         _______ _______ _______ _____ _____    ______ ____
ROOT
ATOM      1  O   UNL     1     110.392 130.838 141.658  0.00  0.00    +0.000 OA
ATOM      2  O   UNL     1     112.212 130.640 139.993  0.00  0.00    +0.000 OA
ATOM      3  O   UNL     1     110.638 130.520 139.512  0.00  0.00    +0.000 OA
ATOM      4  C   UNL     1     111.785 130.832 141.343  0.00  0.00    +0.000 C 
ATOM      5  C   UNL     1     111.606 130.706 140.547  0.00  0.00    +0.000 C 
ATOM      6  C   UNL     1     111.179 130.898 141.898  0.00  0.00    +0.000 C 
ATOM      7  C   UNL     1     110.819 130.646 140.307  0.00  0.00    +0.000 C 
ATOM      8  C   UNL     1     110.211 130.712 140.863  0.00  0.00    +0.000 C 
ENDROOT
BRANCH   6  12
ATOM      9  O   UNL     1     111.626 132.400 142.416  0.00  0.00    +0.000 OA
ATOM     10  O   UNL     1     111.902 131.392 145.115  0.00  0.00    +0.000 OA
ATOM     11  O   UNL     1     112.034 133.306 143.463  0.00  0.00    +0.000 OA
ATOM     12  C   UNL     1     111.359 131.024 142.693  0.00  0.00    +0.000 A 
ATOM     13  C   UNL     1     111.582 131.774 142.953  0.00  0.00    +0.000 A 
ATOM     14  C   UNL     1     111.315 130.399 143.229  0.00  0.00    +0.000 A 
ATOM     15  C   UNL     1     111.761 131.900 143.748  0.00  0.00    +0.000 A 
ATOM     16  C   UNL     1     111.494 130.523 144.025  0.00  0.00    +0.000 A 
ATOM     17  C   UNL     1     111.717 131.274 144.284  0.00  0.00    +0.000 A 
ATOM     18  C   UNL     1     111.992 132.686 144.006  0.00  0.00    +0.000 A 
ATOM     19  C   UNL     1     112.181 132.823 144.833  0.00  0.00    +0.000 A 
ATOM     20  C   UNL     1     112.135 132.172 145.391  0.00  0.00    +0.000 A 
BRANCH  20  22
ATOM     21  O   UNL     1     112.851 132.657 148.576  0.00  0.00    +0.000 OA
ATOM     22  C   UNL     1     112.314 132.294 146.188  0.00  0.00    +0.000 A 
ATOM     23  C   UNL     1     111.785 132.702 146.672  0.00  0.00    +0.000 A 
ATOM     24  C   UNL     1     113.021 132.006 146.500  0.00  0.00    +0.000 A 
ATOM     25  C   UNL     1     111.964 132.823 147.468  0.00  0.00    +0.000 A 
ATOM     26  C   UNL     1     113.200 132.127 147.295  0.00  0.00    +0.000 A 
ATOM     27  C   UNL     1     112.672 132.536 147.779  0.00  0.00    +0.000 A 
ENDBRANCH  20  22
BRANCH  14  28
ATOM     28  O   UNL     1     111.091 129.647 142.970  0.00  0.00    +0.000 OA
ATOM     29  C   UNL     1     110.879 129.068 143.518  0.00  0.00    +0.000 C 
ENDBRANCH  14  28
ENDBRANCH   6  12
BRANCH   8  31
ATOM     30  O   UNL     1     108.854 131.151 140.950  0.00  0.00    +0.000 OA
ATOM     31  C   UNL     1     109.424 130.652 140.623  0.00  0.00    +0.000 C 
ENDBRANCH   8  31
BRANCH   4  32
ATOM     32  O   UNL     1     112.572 130.892 141.583  0.00  0.00    +0.000 OA
BRANCH  32  37
ATOM     33  O   UNL     1     112.917 129.537 141.288  0.00  0.00    +0.000 OA
ATOM     34  O   UNL     1     114.093 131.372 141.157  0.00  0.00    +0.000 OA
ATOM     35  O   UNL     1     115.197 130.256 140.649  0.00  0.00    +0.000 OA
ATOM     36  O   UNL     1     114.782 128.662 140.568  0.00  0.00    +0.000 OA
ATOM     37  C   UNL     1     113.125 130.334 141.329  0.00  0.00    +0.000 C 
ATOM     38  C   UNL     1     113.885 130.574 141.116  0.00  0.00    +0.000 C 
ATOM     39  C   UNL     1     114.437 130.017 140.862  0.00  0.00    +0.000 C 
ATOM     40  C   UNL     1     114.230 129.219 140.821  0.00  0.00    +0.000 C 
ATOM     41  C   UNL     1     113.470 128.979 141.034  0.00  0.00    +0.000 C 
BRANCH  41  42
ATOM     42  C   UNL     1     113.262 128.182 140.993  0.00  0.00    +0.000 C 
BRANCH  42  43
ATOM     43  O   UNL     1     112.632 127.945 140.515  0.00  0.00    +0.000 OA
BRANCH  43  45
ATOM     44  O   UNL     1     112.356 126.694 141.149  0.00  0.00    +0.000 OA
ATOM     45  C   UNL     1     112.433 127.146 140.463  0.00  0.00    +0.000 C 
BRANCH  45  46
ATOM     46  C   UNL     1     112.311 126.799 139.724  0.00  0.00    +0.000 C 
ATOM     47  C   UNL     1     111.601 126.411 139.563  0.00  0.00    +0.000 C 
BRANCH  47  49
ATOM     48  O   UNL     1     111.113 125.024 136.609  0.00  0.00    +0.000 OA
ATOM     49  C   UNL     1     111.479 126.064 138.824  0.00  0.00    +0.000 A 
ATOM     50  C   UNL     1     110.758 126.165 138.435  0.00  0.00    +0.000 A 
ATOM     51  C   UNL     1     112.077 125.617 138.475  0.00  0.00    +0.000 A 
ATOM     52  C   UNL     1     110.637 125.818 137.697  0.00  0.00    +0.000 A 
ATOM     53  C   UNL     1     111.955 125.270 137.737  0.00  0.00    +0.000 A 
ATOM     54  C   UNL     1     111.235 125.371 137.348  0.00  0.00    +0.000 A 
BRANCH  52  55
ATOM     55  O   UNL     1     109.916 125.919 137.308  0.00  0.00    +0.000 OA
ATOM     56  C   UNL     1     109.469 126.600 137.436  0.00  0.00    +0.000 C 
ENDBRANCH  52  55
ENDBRANCH  47  49
ENDBRANCH  45  46
ENDBRANCH  43  45
ENDBRANCH  42  43
ENDBRANCH  41  42
ENDBRANCH  32  37
ENDBRANCH   4  32
TORSDOF 12
ENDMDL
MODEL 8
REMARK VINA RESULT:     -10.6      3.636      6.629
REMARK  Name = 131752193
REMARK  12 active torsions:
REMARK  status: ('A' for Active; 'I' for Inactive)
REMARK    1  A    between atoms: O_1  and  C_19
REMARK    2  A    between atoms: O_1  and  C_24
REMARK    3  A    between atoms: O_10  and  C_31
REMARK    4  A    between atoms: O_10  and  C_40
REMARK    5  A    between atoms: O_11  and  C_33
REMARK    6  A    between atoms: O_17  and  C_53
REMARK    7  A    between atoms: C_21  and  C_29
REMARK    8  A    between atoms: C_23  and  C_30
REMARK    9  A    between atoms: C_28  and  C_31
REMARK   10  A    between atoms: C_39  and  C_42
REMARK   11  A    between atoms: C_40  and  C_43
REMARK   12  A    between atoms: C_46  and  C_50
REMARK                            x       y       z     vdW  Elec       q    Type
REMARK                         _______ _______ _______ _____ _____    ______ ____
ROOT
ATOM      1  O   UNL     1     110.311 128.164 142.494  0.00  0.00    +0.000 OA
ATOM      2  O   UNL     1     110.411 130.184 141.069  0.00  0.00    +0.000 OA
ATOM      3  O   UNL     1     111.525 129.963 142.265  0.00  0.00    +0.000 OA
ATOM      4  C   UNL     1     109.787 128.948 141.421  0.00  0.00    +0.000 C 
ATOM      5  C   UNL     1     110.377 129.511 141.543  0.00  0.00    +0.000 C 
ATOM      6  C   UNL     1     109.754 128.275 141.896  0.00  0.00    +0.000 C 
ATOM      7  C   UNL     1     110.935 129.400 142.142  0.00  0.00    +0.000 C 
ATOM      8  C   UNL     1     110.901 128.726 142.618  0.00  0.00    +0.000 C 
ENDROOT
BRANCH   6  12
ATOM      9  O   UNL     1     110.088 126.898 141.049  0.00  0.00    +0.000 OA
ATOM     10  O   UNL     1     107.359 126.007 141.408  0.00  0.00    +0.000 OA
ATOM     11  O   UNL     1     109.687 125.630 140.488  0.00  0.00    +0.000 OA
ATOM     12  C   UNL     1     109.163 127.711 141.773  0.00  0.00    +0.000 A 
ATOM     13  C   UNL     1     109.330 127.023 141.350  0.00  0.00    +0.000 A 
ATOM     14  C   UNL     1     108.406 127.836 142.074  0.00  0.00    +0.000 A 
ATOM     15  C   UNL     1     108.740 126.460 141.228  0.00  0.00    +0.000 A 
ATOM     16  C   UNL     1     107.815 127.274 141.952  0.00  0.00    +0.000 A 
ATOM     17  C   UNL     1     107.982 126.585 141.529  0.00  0.00    +0.000 A 
ATOM     18  C   UNL     1     108.927 125.748 140.786  0.00  0.00    +0.000 A 
ATOM     19  C   UNL     1     108.316 125.157 140.655  0.00  0.00    +0.000 A 
ATOM     20  C   UNL     1     107.527 125.288 140.968  0.00  0.00    +0.000 A 
BRANCH  20  22
ATOM     21  O   UNL     1     105.155 123.044 140.489  0.00  0.00    +0.000 OA
ATOM     22  C   UNL     1     106.933 124.726 140.848  0.00  0.00    +0.000 A 
ATOM     23  C   UNL     1     106.389 124.827 140.236  0.00  0.00    +0.000 A 
ATOM     24  C   UNL     1     106.885 124.066 141.340  0.00  0.00    +0.000 A 
ATOM     25  C   UNL     1     105.796 124.265 140.116  0.00  0.00    +0.000 A 
ATOM     26  C   UNL     1     106.293 123.506 141.220  0.00  0.00    +0.000 A 
ATOM     27  C   UNL     1     105.748 123.605 140.608  0.00  0.00    +0.000 A 
ENDBRANCH  20  22
BRANCH  14  28
ATOM     28  O   UNL     1     108.238 128.525 142.498  0.00  0.00    +0.000 OA
ATOM     29  C   UNL     1     107.557 128.569 142.961  0.00  0.00    +0.000 C 
ENDBRANCH  14  28
ENDBRANCH   6  12
BRANCH   8  31
ATOM     30  O   UNL     1     111.212 128.400 143.973  0.00  0.00    +0.000 OA
ATOM     31  C   UNL     1     111.458 128.616 143.216  0.00  0.00    +0.000 C 
ENDBRANCH   8  31
BRANCH   4  32
ATOM     32  O   UNL     1     109.230 129.058 140.822  0.00  0.00    +0.000 OA
BRANCH  32  37
ATOM     33  O   UNL     1     110.173 128.954 139.753  0.00  0.00    +0.000 OA
ATOM     34  O   UNL     1     108.329 130.109 139.925  0.00  0.00    +0.000 OA
ATOM     35  O   UNL     1     108.821 130.531 138.408  0.00  0.00    +0.000 OA
ATOM     36  O   UNL     1     110.214 129.901 137.787  0.00  0.00    +0.000 OA
ATOM     37  C   UNL     1     109.476 129.269 140.063  0.00  0.00    +0.000 C 
ATOM     38  C   UNL     1     109.025 129.795 139.614  0.00  0.00    +0.000 C 
ATOM     39  C   UNL     1     109.271 130.005 138.856  0.00  0.00    +0.000 C 
ATOM     40  C   UNL     1     109.968 129.690 138.545  0.00  0.00    +0.000 C 
ATOM     41  C   UNL     1     110.419 129.165 138.994  0.00  0.00    +0.000 C 
BRANCH  41  42
ATOM     42  C   UNL     1     111.115 128.850 138.684  0.00  0.00    +0.000 C 
BRANCH  42  43
ATOM     43  O   UNL     1     111.221 128.031 138.658  0.00  0.00    +0.000 OA
BRANCH  43  45
ATOM     44  O   UNL     1     112.645 128.097 138.762  0.00  0.00    +0.000 OA
ATOM     45  C   UNL     1     111.965 127.718 138.489  0.00  0.00    +0.000 C 
BRANCH  45  46
ATOM     46  C   UNL     1     112.029 127.024 138.046  0.00  0.00    +0.000 C 
ATOM     47  C   UNL     1     112.385 126.357 138.374  0.00  0.00    +0.000 C 
BRANCH  47  49
ATOM     48  O   UNL     1     112.639 123.583 136.603  0.00  0.00    +0.000 OA
ATOM     49  C   UNL     1     112.449 125.663 137.931  0.00  0.00    +0.000 A 
ATOM     50  C   UNL     1     113.185 125.417 137.652  0.00  0.00    +0.000 A 
ATOM     51  C   UNL     1     111.775 125.215 137.768  0.00  0.00    +0.000 A 
ATOM     52  C   UNL     1     113.248 124.725 137.210  0.00  0.00    +0.000 A 
ATOM     53  C   UNL     1     111.839 124.522 137.325  0.00  0.00    +0.000 A 
ATOM     54  C   UNL     1     112.576 124.277 137.046  0.00  0.00    +0.000 A 
BRANCH  52  55
ATOM     55  O   UNL     1     113.985 124.479 136.931  0.00  0.00    +0.000 OA
ATOM     56  C   UNL     1     114.675 124.777 137.270  0.00  0.00    +0.000 C 
ENDBRANCH  52  55
ENDBRANCH  47  49
ENDBRANCH  45  46
ENDBRANCH  43  45
ENDBRANCH  42  43
ENDBRANCH  41  42
ENDBRANCH  32  37
ENDBRANCH   4  32
TORSDOF 12
ENDMDL
MODEL 9
REMARK VINA RESULT:     -10.5      4.950      7.949
REMARK  Name = 131752193
REMARK  12 active torsions:
REMARK  status: ('A' for Active; 'I' for Inactive)
REMARK    1  A    between atoms: O_1  and  C_19
REMARK    2  A    between atoms: O_1  and  C_24
REMARK    3  A    between atoms: O_10  and  C_31
REMARK    4  A    between atoms: O_10  and  C_40
REMARK    5  A    between atoms: O_11  and  C_33
REMARK    6  A    between atoms: O_17  and  C_53
REMARK    7  A    between atoms: C_21  and  C_29
REMARK    8  A    between atoms: C_23  and  C_30
REMARK    9  A    between atoms: C_28  and  C_31
REMARK   10  A    between atoms: C_39  and  C_42
REMARK   11  A    between atoms: C_40  and  C_43
REMARK   12  A    between atoms: C_46  and  C_50
REMARK                            x       y       z     vdW  Elec       q    Type
REMARK                         _______ _______ _______ _____ _____    ______ ____
ROOT
ATOM      1  O   UNL     1     113.302 127.637 140.979  0.00  0.00    +0.000 OA
ATOM      2  O   UNL     1     113.484 129.905 140.006  0.00  0.00    +0.000 OA
ATOM      3  O   UNL     1     114.848 129.043 140.349  0.00  0.00    +0.000 OA
ATOM      4  C   UNL     1     112.680 128.824 140.483  0.00  0.00    +0.000 C 
ATOM      5  C   UNL     1     113.423 129.150 140.330  0.00  0.00    +0.000 C 
ATOM      6  C   UNL     1     112.620 128.068 140.807  0.00  0.00    +0.000 C 
ATOM      7  C   UNL     1     114.105 128.719 140.502  0.00  0.00    +0.000 C 
ATOM      8  C   UNL     1     114.045 127.962 140.827  0.00  0.00    +0.000 C 
ENDROOT
BRANCH   6  12
ATOM      9  O   UNL     1     111.941 127.016 139.733  0.00  0.00    +0.000 OA
ATOM     10  O   UNL     1     109.619 126.760 141.439  0.00  0.00    +0.000 OA
ATOM     11  O   UNL     1     110.864 126.149 139.321  0.00  0.00    +0.000 OA
ATOM     12  C   UNL     1     111.877 127.743 140.960  0.00  0.00    +0.000 A 
ATOM     13  C   UNL     1     111.538 127.217 140.424  0.00  0.00    +0.000 A 
ATOM     14  C   UNL     1     111.474 127.944 141.651  0.00  0.00    +0.000 A 
ATOM     15  C   UNL     1     110.795 126.891 140.577  0.00  0.00    +0.000 A 
ATOM     16  C   UNL     1     110.731 127.619 141.806  0.00  0.00    +0.000 A 
ATOM     17  C   UNL     1     110.392 127.092 141.268  0.00  0.00    +0.000 A 
ATOM     18  C   UNL     1     110.453 126.345 140.009  0.00  0.00    +0.000 A 
ATOM     19  C   UNL     1     109.680 126.002 140.164  0.00  0.00    +0.000 A 
ATOM     20  C   UNL     1     109.260 126.211 140.883  0.00  0.00    +0.000 A 
BRANCH  20  22
ATOM     21  O   UNL     1     106.290 124.916 141.510  0.00  0.00    +0.000 OA
ATOM     22  C   UNL     1     108.517 125.888 141.040  0.00  0.00    +0.000 A 
ATOM     23  C   UNL     1     107.907 126.370 141.315  0.00  0.00    +0.000 A 
ATOM     24  C   UNL     1     108.385 125.082 140.922  0.00  0.00    +0.000 A 
ATOM     25  C   UNL     1     107.164 126.046 141.471  0.00  0.00    +0.000 A 
ATOM     26  C   UNL     1     107.644 124.759 141.079  0.00  0.00    +0.000 A 
ATOM     27  C   UNL     1     107.033 125.240 141.353  0.00  0.00    +0.000 A 
ENDBRANCH  20  22
BRANCH  14  28
ATOM     28  O   UNL     1     111.813 128.470 142.189  0.00  0.00    +0.000 OA
ATOM     29  C   UNL     1     111.499 128.543 142.949  0.00  0.00    +0.000 C 
ENDBRANCH  14  28
ENDBRANCH   6  12
BRANCH   8  31
ATOM     30  O   UNL     1     114.708 126.706 140.981  0.00  0.00    +0.000 OA
ATOM     31  C   UNL     1     114.727 127.531 140.998  0.00  0.00    +0.000 C 
ENDBRANCH   8  31
BRANCH   4  32
ATOM     32  O   UNL     1     111.998 129.255 140.311  0.00  0.00    +0.000 OA
BRANCH  32  37
ATOM     33  O   UNL     1     112.223 129.297 138.901  0.00  0.00    +0.000 OA
ATOM     34  O   UNL     1     111.269 130.733 140.239  0.00  0.00    +0.000 OA
ATOM     35  O   UNL     1     111.129 131.514 138.792  0.00  0.00    +0.000 OA
ATOM     36  O   UNL     1     111.718 130.817 137.418  0.00  0.00    +0.000 OA
ATOM     37  C   UNL     1     111.928 129.646 139.587  0.00  0.00    +0.000 C 
ATOM     38  C   UNL     1     111.563 130.385 139.551  0.00  0.00    +0.000 C 
ATOM     39  C   UNL     1     111.493 130.775 138.828  0.00  0.00    +0.000 C 
ATOM     40  C   UNL     1     111.788 130.427 138.141  0.00  0.00    +0.000 C 
ATOM     41  C   UNL     1     112.152 129.687 138.177  0.00  0.00    +0.000 C 
BRANCH  41  42
ATOM     42  C   UNL     1     112.447 129.338 137.490  0.00  0.00    +0.000 C 
BRANCH  42  43
ATOM     43  O   UNL     1     112.244 128.560 137.303  0.00  0.00    +0.000 OA
BRANCH  43  45
ATOM     44  O   UNL     1     112.780 128.422 135.986  0.00  0.00    +0.000 OA
ATOM     45  C   UNL     1     112.693 128.137 136.755  0.00  0.00    +0.000 C 
BRANCH  45  46
ATOM     46  C   UNL     1     113.054 127.429 136.977  0.00  0.00    +0.000 C 
ATOM     47  C   UNL     1     112.979 126.761 136.500  0.00  0.00    +0.000 C 
BRANCH  47  49
ATOM     48  O   UNL     1     114.425 123.931 137.387  0.00  0.00    +0.000 OA
ATOM     49  C   UNL     1     113.341 126.053 136.722  0.00  0.00    +0.000 A 
ATOM     50  C   UNL     1     112.954 125.335 136.596  0.00  0.00    +0.000 A 
ATOM     51  C   UNL     1     114.089 126.064 137.069  0.00  0.00    +0.000 A 
ATOM     52  C   UNL     1     113.316 124.628 136.818  0.00  0.00    +0.000 A 
ATOM     53  C   UNL     1     114.450 125.356 137.291  0.00  0.00    +0.000 A 
ATOM     54  C   UNL     1     114.063 124.638 137.165  0.00  0.00    +0.000 A 
BRANCH  52  55
ATOM     55  O   UNL     1     112.929 123.910 136.692  0.00  0.00    +0.000 OA
ATOM     56  C   UNL     1     112.106 123.887 136.643  0.00  0.00    +0.000 C 
ENDBRANCH  52  55
ENDBRANCH  47  49
ENDBRANCH  45  46
ENDBRANCH  43  45
ENDBRANCH  42  43
ENDBRANCH  41  42
ENDBRANCH  32  37
ENDBRANCH   4  32
TORSDOF 12
ENDMDL
MODEL 10
REMARK VINA RESULT:     -10.5      2.516      5.694
REMARK  Name = 131752193
REMARK  12 active torsions:
REMARK  status: ('A' for Active; 'I' for Inactive)
REMARK    1  A    between atoms: O_1  and  C_19
REMARK    2  A    between atoms: O_1  and  C_24
REMARK    3  A    between atoms: O_10  and  C_31
REMARK    4  A    between atoms: O_10  and  C_40
REMARK    5  A    between atoms: O_11  and  C_33
REMARK    6  A    between atoms: O_17  and  C_53
REMARK    7  A    between atoms: C_21  and  C_29
REMARK    8  A    between atoms: C_23  and  C_30
REMARK    9  A    between atoms: C_28  and  C_31
REMARK   10  A    between atoms: C_39  and  C_42
REMARK   11  A    between atoms: C_40  and  C_43
REMARK   12  A    between atoms: C_46  and  C_50
REMARK                            x       y       z     vdW  Elec       q    Type
REMARK                         _______ _______ _______ _____ _____    ______ ____
ROOT
ATOM      1  O   UNL     1     105.451 129.435 142.738  0.00  0.00    +0.000 OA
ATOM      2  O   UNL     1     105.299 127.321 141.462  0.00  0.00    +0.000 OA
ATOM      3  O   UNL     1     103.943 128.222 141.728  0.00  0.00    +0.000 OA
ATOM      4  C   UNL     1     106.078 128.280 142.180  0.00  0.00    +0.000 C 
ATOM      5  C   UNL     1     105.350 128.025 141.887  0.00  0.00    +0.000 C 
ATOM      6  C   UNL     1     106.129 128.984 142.605  0.00  0.00    +0.000 C 
ATOM      7  C   UNL     1     104.672 128.476 142.020  0.00  0.00    +0.000 C 
ATOM      8  C   UNL     1     104.722 129.181 142.446  0.00  0.00    +0.000 C 
ENDROOT
BRANCH   6  12
ATOM      9  O   UNL     1     106.519 128.725 144.187  0.00  0.00    +0.000 OA
ATOM     10  O   UNL     1     109.075 130.019 143.774  0.00  0.00    +0.000 OA
ATOM     11  O   UNL     1     107.433 128.838 145.299  0.00  0.00    +0.000 OA
ATOM     12  C   UNL     1     106.857 129.239 142.898  0.00  0.00    +0.000 A 
ATOM     13  C   UNL     1     107.052 129.109 143.688  0.00  0.00    +0.000 A 
ATOM     14  C   UNL     1     107.390 129.623 142.399  0.00  0.00    +0.000 A 
ATOM     15  C   UNL     1     107.780 129.364 143.981  0.00  0.00    +0.000 A 
ATOM     16  C   UNL     1     108.118 129.878 142.691  0.00  0.00    +0.000 A 
ATOM     17  C   UNL     1     108.313 129.749 143.482  0.00  0.00    +0.000 A 
ATOM     18  C   UNL     1     107.972 129.223 144.807  0.00  0.00    +0.000 A 
ATOM     19  C   UNL     1     108.729 129.487 145.117  0.00  0.00    +0.000 A 
ATOM     20  C   UNL     1     109.284 129.887 144.598  0.00  0.00    +0.000 A 
BRANCH  20  22
ATOM     21  O   UNL     1     112.201 130.910 145.752  0.00  0.00    +0.000 OA
ATOM     22  C   UNL     1     110.014 130.143 144.887  0.00  0.00    +0.000 A 
ATOM     23  C   UNL     1     110.103 130.921 145.148  0.00  0.00    +0.000 A 
ATOM     24  C   UNL     1     110.652 129.621 144.914  0.00  0.00    +0.000 A 
ATOM     25  C   UNL     1     110.833 131.176 145.437  0.00  0.00    +0.000 A 
ATOM     26  C   UNL     1     111.381 129.877 145.202  0.00  0.00    +0.000 A 
ATOM     27  C   UNL     1     111.471 130.654 145.464  0.00  0.00    +0.000 A 
ENDBRANCH  20  22
BRANCH  14  28
ATOM     28  O   UNL     1     107.194 129.753 141.607  0.00  0.00    +0.000 OA
ATOM     29  C   UNL     1     107.631 130.289 141.157  0.00  0.00    +0.000 C 
ENDBRANCH  14  28
ENDBRANCH   6  12
BRANCH   8  31
ATOM     30  O   UNL     1     104.029 130.427 142.359  0.00  0.00    +0.000 OA
ATOM     31  C   UNL     1     104.044 129.632 142.579  0.00  0.00    +0.000 C 
ENDBRANCH   8  31
BRANCH   4  32
ATOM     32  O   UNL     1     106.756 127.829 142.047  0.00  0.00    +0.000 OA
BRANCH  32  37
ATOM     33  O   UNL     1     106.390 126.698 142.840  0.00  0.00    +0.000 OA
ATOM     34  O   UNL     1     107.414 126.823 140.916  0.00  0.00    +0.000 OA
ATOM     35  O   UNL     1     107.376 125.189 141.144  0.00  0.00    +0.000 OA
ATOM     36  O   UNL     1     106.681 124.561 142.503  0.00  0.00    +0.000 OA
ATOM     37  C   UNL     1     106.737 127.011 142.161  0.00  0.00    +0.000 C 
ATOM     38  C   UNL     1     107.066 126.508 141.596  0.00  0.00    +0.000 C 
ATOM     39  C   UNL     1     107.047 125.692 141.710  0.00  0.00    +0.000 C 
ATOM     40  C   UNL     1     106.700 125.377 142.389  0.00  0.00    +0.000 C 
ATOM     41  C   UNL     1     106.371 125.880 142.954  0.00  0.00    +0.000 C 
BRANCH  41  42
ATOM     42  C   UNL     1     106.023 125.567 143.633  0.00  0.00    +0.000 C 
BRANCH  42  43
ATOM     43  O   UNL     1     106.328 125.756 144.377  0.00  0.00    +0.000 OA
BRANCH  43  45
ATOM     44  O   UNL     1     105.092 125.623 145.081  0.00  0.00    +0.000 OA
ATOM     45  C   UNL     1     105.913 125.546 145.058  0.00  0.00    +0.000 C 
BRANCH  45  46
ATOM     46  C   UNL     1     106.320 125.258 145.716  0.00  0.00    +0.000 C 
ATOM     47  C   UNL     1     106.309 125.682 146.424  0.00  0.00    +0.000 C 
BRANCH  47  49
ATOM     48  O   UNL     1     107.935 124.532 149.055  0.00  0.00    +0.000 OA
ATOM     49  C   UNL     1     106.716 125.394 147.083  0.00  0.00    +0.000 A 
ATOM     50  C   UNL     1     106.305 125.011 147.687  0.00  0.00    +0.000 A 
ATOM     51  C   UNL     1     107.533 125.489 147.136  0.00  0.00    +0.000 A 
ATOM     52  C   UNL     1     106.711 124.724 148.344  0.00  0.00    +0.000 A 
ATOM     53  C   UNL     1     107.939 125.202 147.793  0.00  0.00    +0.000 A 
ATOM     54  C   UNL     1     107.528 124.819 148.398  0.00  0.00    +0.000 A 
BRANCH  52  55
ATOM     55  O   UNL     1     106.300 124.341 148.948  0.00  0.00    +0.000 OA
ATOM     56  C   UNL     1     105.552 124.608 149.173  0.00  0.00    +0.000 C 
ENDBRANCH  52  55
ENDBRANCH  47  49
ENDBRANCH  45  46
ENDBRANCH  43  45
ENDBRANCH  42  43
ENDBRANCH  41  42
ENDBRANCH  32  37
ENDBRANCH   4  32
TORSDOF 12
ENDMDL
