MODEL 1
REMARK VINA RESULT:      -7.7      0.000      0.000
REMARK  Name = 14027571
REMARK  9 active torsions:
REMARK  status: ('A' for Active; 'I' for Inactive)
REMARK    1  A    between atoms: O_2  and  C_14
REMARK    2  A    between atoms: O_3  and  C_16
REMARK    3  A    between atoms: O_3  and  C_27
REMARK    4  A    between atoms: O_4  and  C_17
REMARK    5  A    between atoms: O_4  and  C_28
REMARK    6  A    between atoms: O_5  and  C_18
REMARK    7  A    between atoms: O_5  and  C_29
REMARK    8  A    between atoms: O_7  and  C_25
REMARK    9  A    between atoms: C_13  and  C_19
REMARK                            x       y       z     vdW  Elec       q    Type
REMARK                         _______ _______ _______ _____ _____    ______ ____
ROOT
ATOM      1  O   UNL     1     111.380 127.138 135.945  0.00  0.00    +0.000 OA
ATOM      2  O   UNL     1     113.781 127.428 136.471  0.00  0.00    +0.000 OA
ATOM      3  C   UNL     1     112.630 126.587 136.360  0.00  0.00    +0.000 A 
ATOM      4  C   UNL     1     111.830 126.491 136.185  0.00  0.00    +0.000 A 
ATOM      5  C   UNL     1     111.729 127.883 135.880  0.00  0.00    +0.000 A 
ATOM      6  C   UNL     1     111.455 125.720 136.249  0.00  0.00    +0.000 A 
ATOM      7  C   UNL     1     112.980 127.331 136.296  0.00  0.00    +0.000 A 
ATOM      8  C   UNL     1     113.111 125.920 136.611  0.00  0.00    +0.000 A 
ATOM      9  C   UNL     1     112.529 127.980 136.055  0.00  0.00    +0.000 A 
ATOM     10  C   UNL     1     111.919 125.042 136.498  0.00  0.00    +0.000 A 
ATOM     11  C   UNL     1     112.752 125.142 136.681  0.00  0.00    +0.000 A 
ENDROOT
BRANCH   5  12
ATOM     12  C   UNL     1     111.278 128.531 135.641  0.00  0.00    +0.000 A 
ATOM     13  C   UNL     1     111.292 128.774 134.852  0.00  0.00    +0.000 A 
ATOM     14  C   UNL     1     110.813 128.935 136.189  0.00  0.00    +0.000 A 
ATOM     15  C   UNL     1     110.841 129.422 134.613  0.00  0.00    +0.000 A 
ATOM     16  C   UNL     1     110.362 129.584 135.949  0.00  0.00    +0.000 A 
ATOM     17  C   UNL     1     110.377 129.827 135.161  0.00  0.00    +0.000 A 
BRANCH  17  18
ATOM     18  O   UNL     1     109.925 130.475 134.921  0.00  0.00    +0.000 OA
ATOM     19  C   UNL     1     109.144 130.551 135.175  0.00  0.00    +0.000 C 
ENDBRANCH  17  18
ENDBRANCH   5  12
BRANCH   6  20
ATOM     20  O   UNL     1     110.653 125.633 136.072  0.00  0.00    +0.000 OA
ATOM     21  C   UNL     1     110.423 125.370 135.324  0.00  0.00    +0.000 C 
ENDBRANCH   6  20
BRANCH   8  22
ATOM     22  O   UNL     1     113.910 126.026 136.784  0.00  0.00    +0.000 OA
BRANCH  22  24
ATOM     23  O   UNL     1     114.612 125.150 135.899  0.00  0.00    +0.000 OA
ATOM     24  C   UNL     1     114.444 125.408 136.665  0.00  0.00    +0.000 C 
ATOM     25  C   UNL     1     114.809 125.048 137.311  0.00  0.00    +0.000 C 
ENDBRANCH  22  24
ENDBRANCH   8  22
BRANCH   9  26
ATOM     26  O   UNL     1     112.879 128.724 135.991  0.00  0.00    +0.000 OA
BRANCH  26  28
ATOM     27  O   UNL     1     113.278 128.979 137.338  0.00  0.00    +0.000 OA
ATOM     28  C   UNL     1     113.455 128.958 136.533  0.00  0.00    +0.000 C 
ATOM     29  C   UNL     1     114.207 129.171 136.269  0.00  0.00    +0.000 C 
ENDBRANCH  26  28
ENDBRANCH   9  26
BRANCH  10  30
ATOM     30  O   UNL     1     111.567 124.298 136.563  0.00  0.00    +0.000 OA
BRANCH  30  32
ATOM     31  O   UNL     1     111.500 124.145 137.981  0.00  0.00    +0.000 OA
ATOM     32  C   UNL     1     111.688 123.841 137.238  0.00  0.00    +0.000 C 
ATOM     33  C   UNL     1     111.997 123.079 137.170  0.00  0.00    +0.000 C 
ENDBRANCH  30  32
ENDBRANCH  10  30
TORSDOF 9
ENDMDL
MODEL 2
REMARK VINA RESULT:      -7.7      1.150      3.101
REMARK  Name = 14027571
REMARK  9 active torsions:
REMARK  status: ('A' for Active; 'I' for Inactive)
REMARK    1  A    between atoms: O_2  and  C_14
REMARK    2  A    between atoms: O_3  and  C_16
REMARK    3  A    between atoms: O_3  and  C_27
REMARK    4  A    between atoms: O_4  and  C_17
REMARK    5  A    between atoms: O_4  and  C_28
REMARK    6  A    between atoms: O_5  and  C_18
REMARK    7  A    between atoms: O_5  and  C_29
REMARK    8  A    between atoms: O_7  and  C_25
REMARK    9  A    between atoms: C_13  and  C_19
REMARK                            x       y       z     vdW  Elec       q    Type
REMARK                         _______ _______ _______ _____ _____    ______ ____
ROOT
ATOM      1  O   UNL     1     113.397 127.667 136.207  0.00  0.00    +0.000 OA
ATOM      2  O   UNL     1     111.113 128.046 135.334  0.00  0.00    +0.000 OA
ATOM      3  C   UNL     1     112.070 127.197 135.971  0.00  0.00    +0.000 A 
ATOM      4  C   UNL     1     112.831 127.071 136.262  0.00  0.00    +0.000 A 
ATOM      5  C   UNL     1     113.203 128.391 135.861  0.00  0.00    +0.000 A 
ATOM      6  C   UNL     1     113.046 126.321 136.624  0.00  0.00    +0.000 A 
ATOM      7  C   UNL     1     111.874 127.920 135.625  0.00  0.00    +0.000 A 
ATOM      8  C   UNL     1     111.471 126.582 136.022  0.00  0.00    +0.000 A 
ATOM      9  C   UNL     1     112.441 128.517 135.570  0.00  0.00    +0.000 A 
ATOM     10  C   UNL     1     112.461 125.696 136.684  0.00  0.00    +0.000 A 
ATOM     11  C   UNL     1     111.668 125.827 136.381  0.00  0.00    +0.000 A 
ENDROOT
BRANCH   5  12
ATOM     12  C   UNL     1     113.769 128.988 135.807  0.00  0.00    +0.000 A 
ATOM     13  C   UNL     1     114.198 129.088 135.109  0.00  0.00    +0.000 A 
ATOM     14  C   UNL     1     113.907 129.486 136.450  0.00  0.00    +0.000 A 
ATOM     15  C   UNL     1     114.764 129.685 135.055  0.00  0.00    +0.000 A 
ATOM     16  C   UNL     1     114.474 130.083 136.396  0.00  0.00    +0.000 A 
ATOM     17  C   UNL     1     114.902 130.183 135.698  0.00  0.00    +0.000 A 
BRANCH  17  18
ATOM     18  O   UNL     1     115.469 130.780 135.644  0.00  0.00    +0.000 OA
ATOM     19  C   UNL     1     115.437 131.325 135.024  0.00  0.00    +0.000 C 
ENDBRANCH  17  18
ENDBRANCH   5  12
BRANCH   6  20
ATOM     20  O   UNL     1     113.810 126.204 136.912  0.00  0.00    +0.000 OA
ATOM     21  C   UNL     1     114.352 125.758 136.477  0.00  0.00    +0.000 C 
ENDBRANCH   6  20
BRANCH   8  22
ATOM     22  O   UNL     1     110.712 126.718 135.728  0.00  0.00    +0.000 OA
BRANCH  22  24
ATOM     23  O   UNL     1     110.724 125.824 134.612  0.00  0.00    +0.000 OA
ATOM     24  C   UNL     1     110.338 126.142 135.269  0.00  0.00    +0.000 C 
ATOM     25  C   UNL     1     109.580 125.885 135.467  0.00  0.00    +0.000 C 
ENDBRANCH  22  24
ENDBRANCH   8  22
BRANCH   9  26
ATOM     26  O   UNL     1     112.246 129.240 135.225  0.00  0.00    +0.000 OA
BRANCH  26  28
ATOM     27  O   UNL     1     111.269 129.765 136.124  0.00  0.00    +0.000 OA
ATOM     28  C   UNL     1     111.503 129.574 135.357  0.00  0.00    +0.000 C 
ATOM     29  C   UNL     1     110.996 129.717 134.722  0.00  0.00    +0.000 C 
ENDBRANCH  26  28
ENDBRANCH   9  26
BRANCH  10  30
ATOM     30  O   UNL     1     112.658 124.974 137.030  0.00  0.00    +0.000 OA
BRANCH  30  32
ATOM     31  O   UNL     1     111.738 124.870 138.117  0.00  0.00    +0.000 OA
ATOM     32  C   UNL     1     112.089 124.545 137.445  0.00  0.00    +0.000 C 
ATOM     33  C   UNL     1     111.870 123.792 137.188  0.00  0.00    +0.000 C 
ENDBRANCH  30  32
ENDBRANCH  10  30
TORSDOF 9
ENDMDL
MODEL 3
REMARK VINA RESULT:      -7.4      0.785      2.818
REMARK  Name = 14027571
REMARK  9 active torsions:
REMARK  status: ('A' for Active; 'I' for Inactive)
REMARK    1  A    between atoms: O_2  and  C_14
REMARK    2  A    between atoms: O_3  and  C_16
REMARK    3  A    between atoms: O_3  and  C_27
REMARK    4  A    between atoms: O_4  and  C_17
REMARK    5  A    between atoms: O_4  and  C_28
REMARK    6  A    between atoms: O_5  and  C_18
REMARK    7  A    between atoms: O_5  and  C_29
REMARK    8  A    between atoms: O_7  and  C_25
REMARK    9  A    between atoms: C_13  and  C_19
REMARK                            x       y       z     vdW  Elec       q    Type
REMARK                         _______ _______ _______ _____ _____    ______ ____
ROOT
ATOM      1  O   UNL     1     111.953 127.641 136.091  0.00  0.00    +0.000 OA
ATOM      2  O   UNL     1     110.625 125.608 135.612  0.00  0.00    +0.000 OA
ATOM      3  C   UNL     1     111.815 126.220 136.116  0.00  0.00    +0.000 A 
ATOM      4  C   UNL     1     112.257 126.897 136.275  0.00  0.00    +0.000 A 
ATOM      5  C   UNL     1     111.206 127.708 135.747  0.00  0.00    +0.000 A 
ATOM      6  C   UNL     1     113.037 126.841 136.634  0.00  0.00    +0.000 A 
ATOM      7  C   UNL     1     111.068 126.285 135.771  0.00  0.00    +0.000 A 
ATOM      8  C   UNL     1     112.121 125.438 136.303  0.00  0.00    +0.000 A 
ATOM      9  C   UNL     1     110.764 127.031 135.587  0.00  0.00    +0.000 A 
ATOM     10  C   UNL     1     113.359 126.068 136.828  0.00  0.00    +0.000 A 
ATOM     11  C   UNL     1     112.898 125.363 136.661  0.00  0.00    +0.000 A 
ENDROOT
BRANCH   5  12
ATOM     12  C   UNL     1     110.902 128.452 135.563  0.00  0.00    +0.000 A 
ATOM     13  C   UNL     1     110.520 128.897 136.142  0.00  0.00    +0.000 A 
ATOM     14  C   UNL     1     110.980 128.751 134.798  0.00  0.00    +0.000 A 
ATOM     15  C   UNL     1     110.215 129.641 135.958  0.00  0.00    +0.000 A 
ATOM     16  C   UNL     1     110.675 129.496 134.613  0.00  0.00    +0.000 A 
ATOM     17  C   UNL     1     110.293 129.940 135.193  0.00  0.00    +0.000 A 
BRANCH  17  18
ATOM     18  O   UNL     1     109.989 130.685 135.008  0.00  0.00    +0.000 OA
ATOM     19  C   UNL     1     109.188 130.771 134.830  0.00  0.00    +0.000 C 
ENDBRANCH  17  18
ENDBRANCH   5  12
BRANCH   6  20
ATOM     20  O   UNL     1     113.472 127.524 136.790  0.00  0.00    +0.000 OA
ATOM     21  C   UNL     1     113.458 127.859 137.544  0.00  0.00    +0.000 C 
ENDBRANCH   6  20
BRANCH   8  22
ATOM     22  O   UNL     1     111.671 124.766 136.140  0.00  0.00    +0.000 OA
BRANCH  22  24
ATOM     23  O   UNL     1     111.391 124.249 137.442  0.00  0.00    +0.000 OA
ATOM     24  C   UNL     1     111.664 124.136 136.672  0.00  0.00    +0.000 C 
ATOM     25  C   UNL     1     111.930 123.392 136.433  0.00  0.00    +0.000 C 
ENDBRANCH  22  24
ENDBRANCH   8  22
BRANCH   9  26
ATOM     26  O   UNL     1     110.017 127.097 135.243  0.00  0.00    +0.000 OA
BRANCH  26  28
ATOM     27  O   UNL     1     109.127 126.564 136.225  0.00  0.00    +0.000 OA
ATOM     28  C   UNL     1     109.417 126.571 135.453  0.00  0.00    +0.000 C 
ATOM     29  C   UNL     1     109.108 126.051 134.891  0.00  0.00    +0.000 C 
ENDBRANCH  26  28
ENDBRANCH   9  26
BRANCH  10  30
ATOM     30  O   UNL     1     114.106 126.005 137.172  0.00  0.00    +0.000 OA
BRANCH  30  32
ATOM     31  O   UNL     1     114.892 125.388 136.152  0.00  0.00    +0.000 OA
ATOM     32  C   UNL     1     114.622 125.409 136.931  0.00  0.00    +0.000 C 
ATOM     33  C   UNL     1     114.869 124.833 137.468  0.00  0.00    +0.000 C 
ENDBRANCH  30  32
ENDBRANCH  10  30
TORSDOF 9
ENDMDL
MODEL 4
REMARK VINA RESULT:      -7.4     10.003     11.544
REMARK  Name = 14027571
REMARK  9 active torsions:
REMARK  status: ('A' for Active; 'I' for Inactive)
REMARK    1  A    between atoms: O_2  and  C_14
REMARK    2  A    between atoms: O_3  and  C_16
REMARK    3  A    between atoms: O_3  and  C_27
REMARK    4  A    between atoms: O_4  and  C_17
REMARK    5  A    between atoms: O_4  and  C_28
REMARK    6  A    between atoms: O_5  and  C_18
REMARK    7  A    between atoms: O_5  and  C_29
REMARK    8  A    between atoms: O_7  and  C_25
REMARK    9  A    between atoms: C_13  and  C_19
REMARK                            x       y       z     vdW  Elec       q    Type
REMARK                         _______ _______ _______ _____ _____    ______ ____
ROOT
ATOM      1  O   UNL     1     106.307 125.328 145.736  0.00  0.00    +0.000 OA
ATOM      2  O   UNL     1     106.548 127.712 145.117  0.00  0.00    +0.000 OA
ATOM      3  C   UNL     1     106.261 126.361 144.751  0.00  0.00    +0.000 A 
ATOM      4  C   UNL     1     106.181 125.566 144.957  0.00  0.00    +0.000 A 
ATOM      5  C   UNL     1     106.514 125.883 146.310  0.00  0.00    +0.000 A 
ATOM      6  C   UNL     1     105.967 124.977 144.368  0.00  0.00    +0.000 A 
ATOM      7  C   UNL     1     106.468 126.917 145.324  0.00  0.00    +0.000 A 
ATOM      8  C   UNL     1     106.133 126.622 143.942  0.00  0.00    +0.000 A 
ATOM      9  C   UNL     1     106.594 126.678 146.104  0.00  0.00    +0.000 A 
ATOM     10  C   UNL     1     105.834 125.220 143.555  0.00  0.00    +0.000 A 
ATOM     11  C   UNL     1     105.918 126.048 143.340  0.00  0.00    +0.000 A 
ENDROOT
BRANCH   5  12
ATOM     12  C   UNL     1     106.640 125.645 147.089  0.00  0.00    +0.000 A 
ATOM     13  C   UNL     1     106.038 125.724 147.648  0.00  0.00    +0.000 A 
ATOM     14  C   UNL     1     107.368 125.328 147.310  0.00  0.00    +0.000 A 
ATOM     15  C   UNL     1     106.164 125.485 148.427  0.00  0.00    +0.000 A 
ATOM     16  C   UNL     1     107.495 125.089 148.090  0.00  0.00    +0.000 A 
ATOM     17  C   UNL     1     106.893 125.168 148.648  0.00  0.00    +0.000 A 
BRANCH  17  18
ATOM     18  O   UNL     1     107.019 124.929 149.428  0.00  0.00    +0.000 OA
ATOM     19  C   UNL     1     107.605 124.374 149.600  0.00  0.00    +0.000 C 
ENDBRANCH  17  18
ENDBRANCH   5  12
BRANCH   6  20
ATOM     20  O   UNL     1     105.889 124.185 144.584  0.00  0.00    +0.000 OA
ATOM     21  C   UNL     1     105.142 123.872 144.741  0.00  0.00    +0.000 C 
ENDBRANCH   6  20
BRANCH   8  22
ATOM     22  O   UNL     1     106.215 127.419 143.745  0.00  0.00    +0.000 OA
BRANCH  22  24
ATOM     23  O   UNL     1     104.886 127.779 143.362  0.00  0.00    +0.000 OA
ATOM     24  C   UNL     1     105.696 127.766 143.205  0.00  0.00    +0.000 C 
ATOM     25  C   UNL     1     105.988 128.100 142.510  0.00  0.00    +0.000 C 
ENDBRANCH  22  24
ENDBRANCH   8  22
BRANCH   9  26
ATOM     26  O   UNL     1     106.800 127.235 146.677  0.00  0.00    +0.000 OA
BRANCH  26  28
ATOM     27  O   UNL     1     108.055 127.759 146.240  0.00  0.00    +0.000 OA
ATOM     28  C   UNL     1     107.274 127.879 146.475  0.00  0.00    +0.000 C 
ATOM     29  C   UNL     1     106.966 128.644 146.509  0.00  0.00    +0.000 C 
ENDBRANCH  26  28
ENDBRANCH   9  26
BRANCH  10  30
ATOM     30  O   UNL     1     105.628 124.662 142.983  0.00  0.00    +0.000 OA
BRANCH  30  32
ATOM     31  O   UNL     1     106.828 124.584 142.212  0.00  0.00    +0.000 OA
ATOM     32  C   UNL     1     106.007 124.661 142.251  0.00  0.00    +0.000 C 
ATOM     33  C   UNL     1     105.567 124.737 141.558  0.00  0.00    +0.000 C 
ENDBRANCH  30  32
ENDBRANCH  10  30
TORSDOF 9
ENDMDL
MODEL 5
REMARK VINA RESULT:      -7.2     12.099     13.499
REMARK  Name = 14027571
REMARK  9 active torsions:
REMARK  status: ('A' for Active; 'I' for Inactive)
REMARK    1  A    between atoms: O_2  and  C_14
REMARK    2  A    between atoms: O_3  and  C_16
REMARK    3  A    between atoms: O_3  and  C_27
REMARK    4  A    between atoms: O_4  and  C_17
REMARK    5  A    between atoms: O_4  and  C_28
REMARK    6  A    between atoms: O_5  and  C_18
REMARK    7  A    between atoms: O_5  and  C_29
REMARK    8  A    between atoms: O_7  and  C_25
REMARK    9  A    between atoms: C_13  and  C_19
REMARK                            x       y       z     vdW  Elec       q    Type
REMARK                         _______ _______ _______ _____ _____    ______ ____
ROOT
ATOM      1  O   UNL     1     104.788 126.224 147.295  0.00  0.00    +0.000 OA
ATOM      2  O   UNL     1     104.500 124.495 145.548  0.00  0.00    +0.000 OA
ATOM      3  C   UNL     1     104.145 125.041 146.820  0.00  0.00    +0.000 A 
ATOM      4  C   UNL     1     104.241 125.617 147.402  0.00  0.00    +0.000 A 
ATOM      5  C   UNL     1     105.240 126.256 146.605  0.00  0.00    +0.000 A 
ATOM      6  C   UNL     1     103.777 125.595 148.125  0.00  0.00    +0.000 A 
ATOM      7  C   UNL     1     104.596 125.071 146.130  0.00  0.00    +0.000 A 
ATOM      8  C   UNL     1     103.578 124.403 146.921  0.00  0.00    +0.000 A 
ATOM      9  C   UNL     1     105.144 125.679 146.023  0.00  0.00    +0.000 A 
ATOM     10  C   UNL     1     103.205 124.965 148.243  0.00  0.00    +0.000 A 
ATOM     11  C   UNL     1     103.105 124.365 147.637  0.00  0.00    +0.000 A 
ENDROOT
BRANCH   5  12
ATOM     12  C   UNL     1     105.788 126.863 146.497  0.00  0.00    +0.000 A 
ATOM     13  C   UNL     1     106.535 126.811 146.842  0.00  0.00    +0.000 A 
ATOM     14  C   UNL     1     105.588 127.523 146.044  0.00  0.00    +0.000 A 
ATOM     15  C   UNL     1     107.083 127.418 146.735  0.00  0.00    +0.000 A 
ATOM     16  C   UNL     1     106.136 128.131 145.936  0.00  0.00    +0.000 A 
ATOM     17  C   UNL     1     106.883 128.078 146.281  0.00  0.00    +0.000 A 
BRANCH  17  18
ATOM     18  O   UNL     1     107.431 128.686 146.173  0.00  0.00    +0.000 OA
ATOM     19  C   UNL     1     107.712 128.859 145.417  0.00  0.00    +0.000 C 
ENDBRANCH  17  18
ENDBRANCH   5  12
BRANCH   6  20
ATOM     20  O   UNL     1     103.880 126.176 148.702  0.00  0.00    +0.000 OA
ATOM     21  C   UNL     1     103.357 126.814 148.744  0.00  0.00    +0.000 C 
ENDBRANCH   6  20
BRANCH   8  22
ATOM     22  O   UNL     1     103.488 123.831 146.333  0.00  0.00    +0.000 OA
BRANCH  22  24
ATOM     23  O   UNL     1     102.157 124.062 145.868  0.00  0.00    +0.000 OA
ATOM     24  C   UNL     1     102.737 123.545 146.146  0.00  0.00    +0.000 C 
ATOM     25  C   UNL     1     102.566 122.743 146.237  0.00  0.00    +0.000 C 
ENDBRANCH  22  24
ENDBRANCH   8  22
BRANCH   9  26
ATOM     26  O   UNL     1     105.595 125.710 145.333  0.00  0.00    +0.000 OA
BRANCH  26  28
ATOM     27  O   UNL     1     106.380 124.523 145.454  0.00  0.00    +0.000 OA
ATOM     28  C   UNL     1     105.895 125.015 145.004  0.00  0.00    +0.000 C 
ATOM     29  C   UNL     1     105.710 124.813 144.226  0.00  0.00    +0.000 C 
ENDBRANCH  26  28
ENDBRANCH   9  26
BRANCH  10  30
ATOM     30  O   UNL     1     102.755 124.937 148.934  0.00  0.00    +0.000 OA
BRANCH  30  32
ATOM     31  O   UNL     1     103.305 123.806 149.611  0.00  0.00    +0.000 OA
ATOM     32  C   UNL     1     102.650 124.221 149.329  0.00  0.00    +0.000 C 
ATOM     33  C   UNL     1     101.891 123.919 149.443  0.00  0.00    +0.000 C 
ENDBRANCH  30  32
ENDBRANCH  10  30
TORSDOF 9
ENDMDL
MODEL 6
REMARK VINA RESULT:      -7.2      3.091      5.351
REMARK  Name = 14027571
REMARK  9 active torsions:
REMARK  status: ('A' for Active; 'I' for Inactive)
REMARK    1  A    between atoms: O_2  and  C_14
REMARK    2  A    between atoms: O_3  and  C_16
REMARK    3  A    between atoms: O_3  and  C_27
REMARK    4  A    between atoms: O_4  and  C_17
REMARK    5  A    between atoms: O_4  and  C_28
REMARK    6  A    between atoms: O_5  and  C_18
REMARK    7  A    between atoms: O_5  and  C_29
REMARK    8  A    between atoms: O_7  and  C_25
REMARK    9  A    between atoms: C_13  and  C_19
REMARK                            x       y       z     vdW  Elec       q    Type
REMARK                         _______ _______ _______ _____ _____    ______ ____
ROOT
ATOM      1  O   UNL     1     113.452 126.466 138.931  0.00  0.00    +0.000 OA
ATOM      2  O   UNL     1     111.045 125.947 138.674  0.00  0.00    +0.000 OA
ATOM      3  C   UNL     1     112.112 126.537 139.421  0.00  0.00    +0.000 A 
ATOM      4  C   UNL     1     112.914 126.710 139.506  0.00  0.00    +0.000 A 
ATOM      5  C   UNL     1     113.188 126.049 138.269  0.00  0.00    +0.000 A 
ATOM      6  C   UNL     1     113.201 127.143 140.191  0.00  0.00    +0.000 A 
ATOM      7  C   UNL     1     111.847 126.120 138.760  0.00  0.00    +0.000 A 
ATOM      8  C   UNL     1     111.541 126.785 140.014  0.00  0.00    +0.000 A 
ATOM      9  C   UNL     1     112.386 125.876 138.183  0.00  0.00    +0.000 A 
ATOM     10  C   UNL     1     112.645 127.400 140.794  0.00  0.00    +0.000 A 
ATOM     11  C   UNL     1     111.810 127.219 140.704  0.00  0.00    +0.000 A 
ENDROOT
BRANCH   5  12
ATOM     12  C   UNL     1     113.726 125.805 137.694  0.00  0.00    +0.000 A 
ATOM     13  C   UNL     1     113.825 126.250 137.006  0.00  0.00    +0.000 A 
ATOM     14  C   UNL     1     114.166 125.116 137.806  0.00  0.00    +0.000 A 
ATOM     15  C   UNL     1     114.363 126.007 136.430  0.00  0.00    +0.000 A 
ATOM     16  C   UNL     1     114.704 124.872 137.229  0.00  0.00    +0.000 A 
ATOM     17  C   UNL     1     114.803 125.318 136.542  0.00  0.00    +0.000 A 
BRANCH  17  18
ATOM     18  O   UNL     1     115.341 125.073 135.966  0.00  0.00    +0.000 OA
ATOM     19  C   UNL     1     115.597 125.604 135.389  0.00  0.00    +0.000 C 
ENDBRANCH  17  18
ENDBRANCH   5  12
BRANCH   6  20
ATOM     20  O   UNL     1     114.005 127.312 140.268  0.00  0.00    +0.000 OA
ATOM     21  C   UNL     1     114.470 126.871 140.788  0.00  0.00    +0.000 C 
ENDBRANCH   6  20
BRANCH   8  22
ATOM     22  O   UNL     1     110.741 126.608 139.919  0.00  0.00    +0.000 OA
BRANCH  22  24
ATOM     23  O   UNL     1     110.476 125.756 141.036  0.00  0.00    +0.000 OA
ATOM     24  C   UNL     1     110.282 126.413 140.577  0.00  0.00    +0.000 C 
ATOM     25  C   UNL     1     109.628 126.876 140.774  0.00  0.00    +0.000 C 
ENDBRANCH  22  24
ENDBRANCH   8  22
BRANCH   9  26
ATOM     26  O   UNL     1     112.122 125.459 137.522  0.00  0.00    +0.000 OA
BRANCH  26  28
ATOM     27  O   UNL     1     111.493 124.303 138.077  0.00  0.00    +0.000 OA
ATOM     28  C   UNL     1     111.466 124.962 137.583  0.00  0.00    +0.000 C 
ATOM     29  C   UNL     1     110.785 125.125 137.147  0.00  0.00    +0.000 C 
ENDBRANCH  26  28
ENDBRANCH   9  26
BRANCH  10  30
ATOM     30  O   UNL     1     112.912 127.816 141.454  0.00  0.00    +0.000 OA
BRANCH  30  32
ATOM     31  O   UNL     1     112.418 129.135 141.214  0.00  0.00    +0.000 OA
ATOM     32  C   UNL     1     112.503 128.484 141.714  0.00  0.00    +0.000 C 
ATOM     33  C   UNL     1     112.180 128.501 142.472  0.00  0.00    +0.000 C 
ENDBRANCH  30  32
ENDBRANCH  10  30
TORSDOF 9
ENDMDL
MODEL 7
REMARK VINA RESULT:      -7.2      5.642      7.154
REMARK  Name = 14027571
REMARK  9 active torsions:
REMARK  status: ('A' for Active; 'I' for Inactive)
REMARK    1  A    between atoms: O_2  and  C_14
REMARK    2  A    between atoms: O_3  and  C_16
REMARK    3  A    between atoms: O_3  and  C_27
REMARK    4  A    between atoms: O_4  and  C_17
REMARK    5  A    between atoms: O_4  and  C_28
REMARK    6  A    between atoms: O_5  and  C_18
REMARK    7  A    between atoms: O_5  and  C_29
REMARK    8  A    between atoms: O_7  and  C_25
REMARK    9  A    between atoms: C_13  and  C_19
REMARK                            x       y       z     vdW  Elec       q    Type
REMARK                         _______ _______ _______ _____ _____    ______ ____
ROOT
ATOM      1  O   UNL     1     112.310 128.419 141.710  0.00  0.00    +0.000 OA
ATOM      2  O   UNL     1     113.400 130.640 141.788  0.00  0.00    +0.000 OA
ATOM      3  C   UNL     1     112.403 129.733 142.263  0.00  0.00    +0.000 A 
ATOM      4  C   UNL     1     112.040 128.992 142.237  0.00  0.00    +0.000 A 
ATOM      5  C   UNL     1     112.943 128.585 141.208  0.00  0.00    +0.000 A 
ATOM      6  C   UNL     1     111.379 128.807 142.755  0.00  0.00    +0.000 A 
ATOM      7  C   UNL     1     113.037 129.900 141.762  0.00  0.00    +0.000 A 
ATOM      8  C   UNL     1     112.131 130.339 142.809  0.00  0.00    +0.000 A 
ATOM      9  C   UNL     1     113.307 129.325 141.234  0.00  0.00    +0.000 A 
ATOM     10  C   UNL     1     111.093 129.401 143.306  0.00  0.00    +0.000 A 
ATOM     11  C   UNL     1     111.472 130.171 143.334  0.00  0.00    +0.000 A 
ENDROOT
BRANCH   5  12
ATOM     12  C   UNL     1     113.213 128.012 140.681  0.00  0.00    +0.000 A 
ATOM     13  C   UNL     1     112.845 127.918 139.948  0.00  0.00    +0.000 A 
ATOM     14  C   UNL     1     113.852 127.532 140.885  0.00  0.00    +0.000 A 
ATOM     15  C   UNL     1     113.115 127.345 139.421  0.00  0.00    +0.000 A 
ATOM     16  C   UNL     1     114.123 126.957 140.357  0.00  0.00    +0.000 A 
ATOM     17  C   UNL     1     113.754 126.865 139.625  0.00  0.00    +0.000 A 
BRANCH  17  18
ATOM     18  O   UNL     1     114.025 126.290 139.097  0.00  0.00    +0.000 OA
ATOM     19  C   UNL     1     113.551 126.057 138.463  0.00  0.00    +0.000 C 
ENDBRANCH  17  18
ENDBRANCH   5  12
BRANCH   6  20
ATOM     20  O   UNL     1     111.022 128.064 142.721  0.00  0.00    +0.000 OA
ATOM     21  C   UNL     1     110.338 127.955 142.272  0.00  0.00    +0.000 C 
ENDBRANCH   6  20
BRANCH   8  22
ATOM     22  O   UNL     1     112.501 131.076 142.828  0.00  0.00    +0.000 OA
BRANCH  22  24
ATOM     23  O   UNL     1     111.468 131.974 142.418  0.00  0.00    +0.000 OA
ATOM     24  C   UNL     1     112.054 131.758 142.956  0.00  0.00    +0.000 C 
ATOM     25  C   UNL     1     112.195 132.224 143.623  0.00  0.00    +0.000 C 
ENDBRANCH  22  24
ENDBRANCH   8  22
BRANCH   9  26
ATOM     26  O   UNL     1     113.940 129.492 140.733  0.00  0.00    +0.000 OA
BRANCH  26  28
ATOM     27  O   UNL     1     113.440 130.574 139.946  0.00  0.00    +0.000 OA
ATOM     28  C   UNL     1     114.031 130.250 140.421  0.00  0.00    +0.000 C 
ATOM     29  C   UNL     1     114.714 130.684 140.583  0.00  0.00    +0.000 C 
ENDBRANCH  26  28
ENDBRANCH   9  26
BRANCH  10  30
ATOM     30  O   UNL     1     110.459 129.231 143.807  0.00  0.00    +0.000 OA
BRANCH  30  32
ATOM     31  O   UNL     1     111.108 129.116 145.074  0.00  0.00    +0.000 OA
ATOM     32  C   UNL     1     110.502 129.425 144.607  0.00  0.00    +0.000 C 
ATOM     33  C   UNL     1     109.939 129.927 144.941  0.00  0.00    +0.000 C 
ENDBRANCH  30  32
ENDBRANCH  10  30
TORSDOF 9
ENDMDL
MODEL 8
REMARK VINA RESULT:      -7.2      1.386      5.219
REMARK  Name = 14027571
REMARK  9 active torsions:
REMARK  status: ('A' for Active; 'I' for Inactive)
REMARK    1  A    between atoms: O_2  and  C_14
REMARK    2  A    between atoms: O_3  and  C_16
REMARK    3  A    between atoms: O_3  and  C_27
REMARK    4  A    between atoms: O_4  and  C_17
REMARK    5  A    between atoms: O_4  and  C_28
REMARK    6  A    between atoms: O_5  and  C_18
REMARK    7  A    between atoms: O_5  and  C_29
REMARK    8  A    between atoms: O_7  and  C_25
REMARK    9  A    between atoms: C_13  and  C_19
REMARK                            x       y       z     vdW  Elec       q    Type
REMARK                         _______ _______ _______ _____ _____    ______ ____
ROOT
ATOM      1  O   UNL     1     112.760 128.195 137.111  0.00  0.00    +0.000 OA
ATOM      2  O   UNL     1     110.748 127.662 135.772  0.00  0.00    +0.000 OA
ATOM      3  C   UNL     1     111.553 128.614 136.471  0.00  0.00    +0.000 A 
ATOM      4  C   UNL     1     112.224 128.791 136.918  0.00  0.00    +0.000 A 
ATOM      5  C   UNL     1     112.626 127.421 136.859  0.00  0.00    +0.000 A 
ATOM      6  C   UNL     1     112.375 129.594 137.187  0.00  0.00    +0.000 A 
ATOM      7  C   UNL     1     111.418 127.840 136.219  0.00  0.00    +0.000 A 
ATOM      8  C   UNL     1     110.987 129.226 136.263  0.00  0.00    +0.000 A 
ATOM      9  C   UNL     1     111.955 127.243 136.413  0.00  0.00    +0.000 A 
ATOM     10  C   UNL     1     111.820 130.219 136.988  0.00  0.00    +0.000 A 
ATOM     11  C   UNL     1     111.122 130.034 136.523  0.00  0.00    +0.000 A 
ENDROOT
BRANCH   5  12
ATOM     12  C   UNL     1     113.161 126.825 137.053  0.00  0.00    +0.000 A 
ATOM     13  C   UNL     1     113.727 126.583 136.503  0.00  0.00    +0.000 A 
ATOM     14  C   UNL     1     113.132 126.470 137.797  0.00  0.00    +0.000 A 
ATOM     15  C   UNL     1     114.263 125.987 136.697  0.00  0.00    +0.000 A 
ATOM     16  C   UNL     1     113.668 125.873 137.992  0.00  0.00    +0.000 A 
ATOM     17  C   UNL     1     114.233 125.632 137.441  0.00  0.00    +0.000 A 
BRANCH  17  18
ATOM     18  O   UNL     1     114.770 125.035 137.635  0.00  0.00    +0.000 OA
ATOM     19  C   UNL     1     114.691 124.285 137.302  0.00  0.00    +0.000 C 
ENDBRANCH  17  18
ENDBRANCH   5  12
BRANCH   6  20
ATOM     20  O   UNL     1     113.049 129.762 137.633  0.00  0.00    +0.000 OA
ATOM     21  C   UNL     1     113.710 130.098 137.271  0.00  0.00    +0.000 C 
ENDBRANCH   6  20
BRANCH   8  22
ATOM     22  O   UNL     1     110.319 129.039 135.816  0.00  0.00    +0.000 OA
BRANCH  22  24
ATOM     23  O   UNL     1     110.528 129.782 134.613  0.00  0.00    +0.000 OA
ATOM     24  C   UNL     1     110.044 129.568 135.245  0.00  0.00    +0.000 C 
ATOM     25  C   UNL     1     109.283 129.882 135.308  0.00  0.00    +0.000 C 
ENDBRANCH  22  24
ENDBRANCH   8  22
BRANCH   9  26
ATOM     26  O   UNL     1     111.820 126.470 136.160  0.00  0.00    +0.000 OA
BRANCH  26  28
ATOM     27  O   UNL     1     110.618 126.143 136.859  0.00  0.00    +0.000 OA
ATOM     28  C   UNL     1     111.054 126.163 136.160  0.00  0.00    +0.000 C 
ATOM     29  C   UNL     1     110.725 125.877 135.459  0.00  0.00    +0.000 C 
ENDBRANCH  26  28
ENDBRANCH   9  26
BRANCH  10  30
ATOM     30  O   UNL     1     111.957 130.992 137.241  0.00  0.00    +0.000 OA
BRANCH  30  32
ATOM     31  O   UNL     1     110.957 131.183 138.242  0.00  0.00    +0.000 OA
ATOM     32  C   UNL     1     111.340 131.438 137.558  0.00  0.00    +0.000 C 
ATOM     33  C   UNL     1     111.106 132.138 137.190  0.00  0.00    +0.000 C 
ENDBRANCH  30  32
ENDBRANCH  10  30
TORSDOF 9
ENDMDL
MODEL 9
REMARK VINA RESULT:      -7.1      1.723      4.872
REMARK  Name = 14027571
REMARK  9 active torsions:
REMARK  status: ('A' for Active; 'I' for Inactive)
REMARK    1  A    between atoms: O_2  and  C_14
REMARK    2  A    between atoms: O_3  and  C_16
REMARK    3  A    between atoms: O_3  and  C_27
REMARK    4  A    between atoms: O_4  and  C_17
REMARK    5  A    between atoms: O_4  and  C_28
REMARK    6  A    between atoms: O_5  and  C_18
REMARK    7  A    between atoms: O_5  and  C_29
REMARK    8  A    between atoms: O_7  and  C_25
REMARK    9  A    between atoms: C_13  and  C_19
REMARK                            x       y       z     vdW  Elec       q    Type
REMARK                         _______ _______ _______ _____ _____    ______ ____
ROOT
ATOM      1  O   UNL     1     112.952 127.535 136.627  0.00  0.00    +0.000 OA
ATOM      2  O   UNL     1     113.152 128.111 139.026  0.00  0.00    +0.000 OA
ATOM      3  C   UNL     1     113.258 128.484 137.650  0.00  0.00    +0.000 A 
ATOM      4  C   UNL     1     113.191 128.292 136.851  0.00  0.00    +0.000 A 
ATOM      5  C   UNL     1     112.779 126.970 137.203  0.00  0.00    +0.000 A 
ATOM      6  C   UNL     1     113.368 128.872 136.242  0.00  0.00    +0.000 A 
ATOM      7  C   UNL     1     113.085 127.919 138.227  0.00  0.00    +0.000 A 
ATOM      8  C   UNL     1     113.507 129.269 137.896  0.00  0.00    +0.000 A 
ATOM      9  C   UNL     1     112.846 127.162 138.002  0.00  0.00    +0.000 A 
ATOM     10  C   UNL     1     113.618 129.662 136.469  0.00  0.00    +0.000 A 
ATOM     11  C   UNL     1     113.688 129.862 137.301  0.00  0.00    +0.000 A 
ENDROOT
BRANCH   5  12
ATOM     12  C   UNL     1     112.539 126.213 136.979  0.00  0.00    +0.000 A 
ATOM     13  C   UNL     1     111.738 126.015 136.983  0.00  0.00    +0.000 A 
ATOM     14  C   UNL     1     113.101 125.654 136.751  0.00  0.00    +0.000 A 
ATOM     15  C   UNL     1     111.499 125.259 136.760  0.00  0.00    +0.000 A 
ATOM     16  C   UNL     1     112.861 124.896 136.527  0.00  0.00    +0.000 A 
ATOM     17  C   UNL     1     112.060 124.699 136.532  0.00  0.00    +0.000 A 
BRANCH  17  18
ATOM     18  O   UNL     1     111.821 123.941 136.308  0.00  0.00    +0.000 OA
ATOM     19  C   UNL     1     111.873 123.317 136.844  0.00  0.00    +0.000 C 
ENDBRANCH  17  18
ENDBRANCH   5  12
BRANCH   6  20
ATOM     20  O   UNL     1     113.298 128.671 135.445  0.00  0.00    +0.000 OA
ATOM     21  C   UNL     1     112.628 128.898 135.019  0.00  0.00    +0.000 C 
ENDBRANCH   6  20
BRANCH   8  22
ATOM     22  O   UNL     1     113.571 129.452 138.698  0.00  0.00    +0.000 OA
BRANCH  22  24
ATOM     23  O   UNL     1     112.718 130.587 138.860  0.00  0.00    +0.000 OA
ATOM     24  C   UNL     1     113.454 130.228 138.955  0.00  0.00    +0.000 C 
ATOM     25  C   UNL     1     114.074 130.643 139.308  0.00  0.00    +0.000 C 
ENDBRANCH  22  24
ENDBRANCH   8  22
BRANCH   9  26
ATOM     26  O   UNL     1     112.673 126.597 138.578  0.00  0.00    +0.000 OA
BRANCH  26  28
ATOM     27  O   UNL     1     113.939 126.400 139.211  0.00  0.00    +0.000 OA
ATOM     28  C   UNL     1     113.130 126.553 139.264  0.00  0.00    +0.000 C 
ATOM     29  C   UNL     1     112.778 126.662 140.002  0.00  0.00    +0.000 C 
ENDBRANCH  26  28
ENDBRANCH   9  26
BRANCH  10  30
ATOM     30  O   UNL     1     113.790 130.225 135.891  0.00  0.00    +0.000 OA
BRANCH  30  32
ATOM     31  O   UNL     1     115.215 130.296 135.963  0.00  0.00    +0.000 OA
ATOM     32  C   UNL     1     114.481 130.673 135.943  0.00  0.00    +0.000 C 
ATOM     33  C   UNL     1     114.439 131.496 135.975  0.00  0.00    +0.000 C 
ENDBRANCH  30  32
ENDBRANCH  10  30
TORSDOF 9
ENDMDL
MODEL 10
REMARK VINA RESULT:      -7.1      9.682     11.405
REMARK  Name = 14027571
REMARK  9 active torsions:
REMARK  status: ('A' for Active; 'I' for Inactive)
REMARK    1  A    between atoms: O_2  and  C_14
REMARK    2  A    between atoms: O_3  and  C_16
REMARK    3  A    between atoms: O_3  and  C_27
REMARK    4  A    between atoms: O_4  and  C_17
REMARK    5  A    between atoms: O_4  and  C_28
REMARK    6  A    between atoms: O_5  and  C_18
REMARK    7  A    between atoms: O_5  and  C_29
REMARK    8  A    between atoms: O_7  and  C_25
REMARK    9  A    between atoms: C_13  and  C_19
REMARK                            x       y       z     vdW  Elec       q    Type
REMARK                         _______ _______ _______ _____ _____    ______ ____
ROOT
ATOM      1  O   UNL     1     103.251 130.955 142.863  0.00  0.00    +0.000 OA
ATOM      2  O   UNL     1     103.293 129.083 141.246  0.00  0.00    +0.000 OA
ATOM      3  C   UNL     1     103.775 129.695 142.444  0.00  0.00    +0.000 A 
ATOM      4  C   UNL     1     103.761 130.319 142.983  0.00  0.00    +0.000 A 
ATOM      5  C   UNL     1     102.754 130.969 142.205  0.00  0.00    +0.000 A 
ATOM      6  C   UNL     1     104.274 130.317 143.673  0.00  0.00    +0.000 A 
ATOM      7  C   UNL     1     103.279 129.707 141.785  0.00  0.00    +0.000 A 
ATOM      8  C   UNL     1     104.302 129.025 142.557  0.00  0.00    +0.000 A 
ATOM      9  C   UNL     1     102.768 130.345 141.665  0.00  0.00    +0.000 A 
ATOM     10  C   UNL     1     104.807 129.656 143.803  0.00  0.00    +0.000 A 
ATOM     11  C   UNL     1     104.821 129.006 143.242  0.00  0.00    +0.000 A 
ENDROOT
BRANCH   5  12
ATOM     12  C   UNL     1     102.244 131.606 142.085  0.00  0.00    +0.000 A 
ATOM     13  C   UNL     1     101.453 131.549 142.311  0.00  0.00    +0.000 A 
ATOM     14  C   UNL     1     102.526 132.300 141.739  0.00  0.00    +0.000 A 
ATOM     15  C   UNL     1     100.943 132.186 142.191  0.00  0.00    +0.000 A 
ATOM     16  C   UNL     1     102.015 132.938 141.619  0.00  0.00    +0.000 A 
ATOM     17  C   UNL     1     101.224 132.880 141.845  0.00  0.00    +0.000 A 
BRANCH  17  18
ATOM     18  O   UNL     1     100.714 133.518 141.725  0.00  0.00    +0.000 OA
ATOM     19  C   UNL     1     101.019 134.279 141.633  0.00  0.00    +0.000 C 
ENDBRANCH  17  18
ENDBRANCH   5  12
BRANCH   6  20
ATOM     20  O   UNL     1     104.253 130.946 144.207  0.00  0.00    +0.000 OA
ATOM     21  C   UNL     1     104.838 131.526 144.183  0.00  0.00    +0.000 C 
ENDBRANCH   6  20
BRANCH   8  22
ATOM     22  O   UNL     1     104.309 128.406 142.013  0.00  0.00    +0.000 OA
BRANCH  22  24
ATOM     23  O   UNL     1     105.590 128.553 141.397  0.00  0.00    +0.000 OA
ATOM     24  C   UNL     1     105.027 128.079 141.769  0.00  0.00    +0.000 C 
ATOM     25  C   UNL     1     105.180 127.279 141.897  0.00  0.00    +0.000 C 
ENDBRANCH  22  24
ENDBRANCH   8  22
BRANCH   9  26
ATOM     26  O   UNL     1     102.272 130.357 141.006  0.00  0.00    +0.000 OA
BRANCH  26  28
ATOM     27  O   UNL     1     103.170 130.455 139.900  0.00  0.00    +0.000 OA
ATOM     28  C   UNL     1     102.544 130.077 140.280  0.00  0.00    +0.000 C 
ATOM     29  C   UNL     1     102.188 129.418 139.933  0.00  0.00    +0.000 C 
ENDBRANCH  26  28
ENDBRANCH   9  26
BRANCH  10  30
ATOM     30  O   UNL     1     105.302 129.646 144.463  0.00  0.00    +0.000 OA
BRANCH  30  32
ATOM     31  O   UNL     1     104.820 128.534 145.219  0.00  0.00    +0.000 OA
ATOM     32  C   UNL     1     105.444 128.938 144.861  0.00  0.00    +0.000 C 
ATOM     33  C   UNL     1     106.210 128.634 144.903  0.00  0.00    +0.000 C 
ENDBRANCH  30  32
ENDBRANCH  10  30
TORSDOF 9
ENDMDL
