MODEL 1
REMARK VINA RESULT:      -9.5      0.000      0.000
REMARK  Name = 44258156
REMARK  3 active torsions:
REMARK  status: ('A' for Active; 'I' for Inactive)
REMARK    1  A    between atoms: O_8  and  C_28
REMARK    2  A    between atoms: C_11  and  C_15
REMARK    3  A    between atoms: C_23  and  C_25
REMARK                            x       y       z     vdW  Elec       q    Type
REMARK                         _______ _______ _______ _____ _____    ______ ____
ROOT
ATOM      1  O   UNL     1     112.909 129.191 139.057  0.00  0.00    +0.000 OA
ATOM      2  O   UNL     1     114.284 127.767 141.119  0.00  0.00    +0.000 OA
ATOM      3  O   UNL     1     113.107 126.307 138.932  0.00  0.00    +0.000 OA
ATOM      4  O   UNL     1     112.306 128.497 137.945  0.00  0.00    +0.000 OA
ATOM      5  C   UNL     1     113.596 128.479 140.088  0.00  0.00    +0.000 A 
ATOM      6  C   UNL     1     113.171 128.479 139.381  0.00  0.00    +0.000 A 
ATOM      7  C   UNL     1     113.858 127.767 140.411  0.00  0.00    +0.000 A 
ATOM      8  C   UNL     1     113.008 127.767 138.997  0.00  0.00    +0.000 A 
ATOM      9  C   UNL     1     113.696 127.055 140.029  0.00  0.00    +0.000 A 
ATOM     10  C   UNL     1     113.270 127.055 139.321  0.00  0.00    +0.000 A 
ATOM     11  C   UNL     1     112.565 127.780 138.262  0.00  0.00    +0.000 A 
ATOM     12  C   UNL     1     112.665 126.299 138.195  0.00  0.00    +0.000 A 
ATOM     13  C   UNL     1     112.392 127.041 137.858  0.00  0.00    +0.000 A 
ENDROOT
BRANCH   5  18
ATOM     14  O   UNL     1     114.441 129.615 140.284  0.00  0.00    +0.000 OA
ATOM     15  O   UNL     1     112.881 130.480 142.000  0.00  0.00    +0.000 OA
ATOM     16  O   UNL     1     114.246 131.327 141.624  0.00  0.00    +0.000 OA
ATOM     17  C   UNL     1     113.401 130.191 141.428  0.00  0.00    +0.000 C 
ATOM     18  C   UNL     1     113.759 129.191 140.471  0.00  0.00    +0.000 C 
ATOM     19  C   UNL     1     114.084 130.614 141.239  0.00  0.00    +0.000 C 
ATOM     20  C   UNL     1     113.239 129.480 141.043  0.00  0.00    +0.000 C 
ATOM     21  C   UNL     1     114.604 130.326 140.668  0.00  0.00    +0.000 C 
ATOM     22  C   UNL     1     115.287 130.750 140.480  0.00  0.00    +0.000 C 
ENDBRANCH   5  18
BRANCH  12  24
ATOM     23  O   UNL     1     112.021 123.445 136.670  0.00  0.00    +0.000 OA
ATOM     24  C   UNL     1     112.504 125.585 137.814  0.00  0.00    +0.000 A 
ATOM     25  C   UNL     1     113.076 125.236 137.333  0.00  0.00    +0.000 A 
ATOM     26  C   UNL     1     111.770 125.221 137.914  0.00  0.00    +0.000 A 
ATOM     27  C   UNL     1     112.915 124.523 136.952  0.00  0.00    +0.000 A 
ATOM     28  C   UNL     1     111.609 124.507 137.533  0.00  0.00    +0.000 A 
ATOM     29  C   UNL     1     112.181 124.158 137.052  0.00  0.00    +0.000 A 
BRANCH  27  30
ATOM     30  O   UNL     1     113.487 124.174 136.471  0.00  0.00    +0.000 OA
ATOM     31  C   UNL     1     114.192 124.573 136.312  0.00  0.00    +0.000 C 
ENDBRANCH  27  30
ENDBRANCH  12  24
TORSDOF 3
ENDMDL
MODEL 2
REMARK VINA RESULT:      -9.4      0.794      5.792
REMARK  Name = 44258156
REMARK  3 active torsions:
REMARK  status: ('A' for Active; 'I' for Inactive)
REMARK    1  A    between atoms: O_8  and  C_28
REMARK    2  A    between atoms: C_11  and  C_15
REMARK    3  A    between atoms: C_23  and  C_25
REMARK                            x       y       z     vdW  Elec       q    Type
REMARK                         _______ _______ _______ _____ _____    ______ ____
ROOT
ATOM      1  O   UNL     1     113.889 126.007 139.219  0.00  0.00    +0.000 OA
ATOM      2  O   UNL     1     112.592 127.416 137.097  0.00  0.00    +0.000 OA
ATOM      3  O   UNL     1     113.108 128.769 139.588  0.00  0.00    +0.000 OA
ATOM      4  O   UNL     1     114.165 126.649 140.482  0.00  0.00    +0.000 OA
ATOM      5  C   UNL     1     113.241 126.712 138.159  0.00  0.00    +0.000 A 
ATOM      6  C   UNL     1     113.544 126.697 138.925  0.00  0.00    +0.000 A 
ATOM      7  C   UNL     1     112.896 127.401 137.865  0.00  0.00    +0.000 A 
ATOM      8  C   UNL     1     113.502 127.371 139.399  0.00  0.00    +0.000 A 
ATOM      9  C   UNL     1     112.854 128.076 138.337  0.00  0.00    +0.000 A 
ATOM     10  C   UNL     1     113.158 128.061 139.105  0.00  0.00    +0.000 A 
ATOM     11  C   UNL     1     113.822 127.343 140.196  0.00  0.00    +0.000 A 
ATOM     12  C   UNL     1     113.422 128.761 140.388  0.00  0.00    +0.000 A 
ATOM     13  C   UNL     1     113.782 128.042 140.694  0.00  0.00    +0.000 A 
ENDROOT
BRANCH   5  18
ATOM     14  O   UNL     1     112.664 125.492 137.687  0.00  0.00    +0.000 OA
ATOM     15  O   UNL     1     114.647 125.106 136.258  0.00  0.00    +0.000 OA
ATOM     16  O   UNL     1     113.408 124.016 136.263  0.00  0.00    +0.000 OA
ATOM     17  C   UNL     1     113.986 125.235 136.734  0.00  0.00    +0.000 C 
ATOM     18  C   UNL     1     113.282 126.037 137.685  0.00  0.00    +0.000 C 
ATOM     19  C   UNL     1     113.366 124.690 136.737  0.00  0.00    +0.000 C 
ATOM     20  C   UNL     1     113.943 125.908 137.208  0.00  0.00    +0.000 C 
ATOM     21  C   UNL     1     112.705 124.819 137.214  0.00  0.00    +0.000 C 
ATOM     22  C   UNL     1     112.086 124.273 137.216  0.00  0.00    +0.000 C 
ENDBRANCH   5  18
BRANCH  12  24
ATOM     23  O   UNL     1     113.252 131.465 142.271  0.00  0.00    +0.000 OA
ATOM     24  C   UNL     1     113.379 129.437 140.859  0.00  0.00    +0.000 A 
ATOM     25  C   UNL     1     113.952 130.026 140.788  0.00  0.00    +0.000 A 
ATOM     26  C   UNL     1     112.763 129.524 141.401  0.00  0.00    +0.000 A 
ATOM     27  C   UNL     1     113.910 130.702 141.258  0.00  0.00    +0.000 A 
ATOM     28  C   UNL     1     112.720 130.200 141.872  0.00  0.00    +0.000 A 
ATOM     29  C   UNL     1     113.293 130.789 141.801  0.00  0.00    +0.000 A 
BRANCH  27  30
ATOM     30  O   UNL     1     114.483 131.291 141.187  0.00  0.00    +0.000 OA
ATOM     31  C   UNL     1     115.203 131.124 140.820  0.00  0.00    +0.000 C 
ENDBRANCH  27  30
ENDBRANCH  12  24
TORSDOF 3
ENDMDL
MODEL 3
REMARK VINA RESULT:      -9.4      9.100     10.452
REMARK  Name = 44258156
REMARK  3 active torsions:
REMARK  status: ('A' for Active; 'I' for Inactive)
REMARK    1  A    between atoms: O_8  and  C_28
REMARK    2  A    between atoms: C_11  and  C_15
REMARK    3  A    between atoms: C_23  and  C_25
REMARK                            x       y       z     vdW  Elec       q    Type
REMARK                         _______ _______ _______ _____ _____    ______ ____
ROOT
ATOM      1  O   UNL     1     106.639 128.015 144.779  0.00  0.00    +0.000 OA
ATOM      2  O   UNL     1     105.564 125.695 143.502  0.00  0.00    +0.000 OA
ATOM      3  O   UNL     1     106.545 125.498 146.203  0.00  0.00    +0.000 OA
ATOM      4  O   UNL     1     107.141 127.958 146.131  0.00  0.00    +0.000 OA
ATOM      5  C   UNL     1     106.102 126.855 144.141  0.00  0.00    +0.000 A 
ATOM      6  C   UNL     1     106.444 127.213 144.800  0.00  0.00    +0.000 A 
ATOM      7  C   UNL     1     105.907 126.054 144.161  0.00  0.00    +0.000 A 
ATOM      8  C   UNL     1     106.592 126.771 145.480  0.00  0.00    +0.000 A 
ATOM      9  C   UNL     1     106.054 125.611 144.841  0.00  0.00    +0.000 A 
ATOM     10  C   UNL     1     106.397 125.969 145.501  0.00  0.00    +0.000 A 
ATOM     11  C   UNL     1     106.949 127.156 146.160  0.00  0.00    +0.000 A 
ATOM     12  C   UNL     1     106.901 125.864 146.894  0.00  0.00    +0.000 A 
ATOM     13  C   UNL     1     107.105 126.700 146.872  0.00  0.00    +0.000 A 
ENDROOT
BRANCH   5  18
ATOM     14  O   UNL     1     105.245 127.711 143.382  0.00  0.00    +0.000 OA
ATOM     15  O   UNL     1     106.933 127.797 141.573  0.00  0.00    +0.000 OA
ATOM     16  O   UNL     1     105.514 128.624 141.417  0.00  0.00    +0.000 OA
ATOM     17  C   UNL     1     106.371 127.768 142.176  0.00  0.00    +0.000 C 
ATOM     18  C   UNL     1     105.954 127.298 143.460  0.00  0.00    +0.000 C 
ATOM     19  C   UNL     1     105.661 128.181 142.099  0.00  0.00    +0.000 C 
ATOM     20  C   UNL     1     106.517 127.326 142.857  0.00  0.00    +0.000 C 
ATOM     21  C   UNL     1     105.098 128.153 142.701  0.00  0.00    +0.000 C 
ATOM     22  C   UNL     1     104.389 128.566 142.623  0.00  0.00    +0.000 C 
ENDBRANCH   5  18
BRANCH  12  24
ATOM     23  O   UNL     1     107.485 124.084 149.610  0.00  0.00    +0.000 OA
ATOM     24  C   UNL     1     107.048 125.419 147.573  0.00  0.00    +0.000 A 
ATOM     25  C   UNL     1     106.428 125.231 148.084  0.00  0.00    +0.000 A 
ATOM     26  C   UNL     1     107.814 125.162 147.741  0.00  0.00    +0.000 A 
ATOM     27  C   UNL     1     106.574 124.786 148.762  0.00  0.00    +0.000 A 
ATOM     28  C   UNL     1     107.960 124.717 148.420  0.00  0.00    +0.000 A 
ATOM     29  C   UNL     1     107.340 124.529 148.931  0.00  0.00    +0.000 A 
BRANCH  27  30
ATOM     30  O   UNL     1     105.954 124.597 149.273  0.00  0.00    +0.000 OA
ATOM     31  C   UNL     1     105.176 124.770 149.059  0.00  0.00    +0.000 C 
ENDBRANCH  27  30
ENDBRANCH  12  24
TORSDOF 3
ENDMDL
MODEL 4
REMARK VINA RESULT:      -9.3      9.006     10.053
REMARK  Name = 44258156
REMARK  3 active torsions:
REMARK  status: ('A' for Active; 'I' for Inactive)
REMARK    1  A    between atoms: O_8  and  C_28
REMARK    2  A    between atoms: C_11  and  C_15
REMARK    3  A    between atoms: C_23  and  C_25
REMARK                            x       y       z     vdW  Elec       q    Type
REMARK                         _______ _______ _______ _____ _____    ______ ____
ROOT
ATOM      1  O   UNL     1     106.535 124.786 145.926  0.00  0.00    +0.000 OA
ATOM      2  O   UNL     1     106.821 127.149 147.508  0.00  0.00    +0.000 OA
ATOM      3  O   UNL     1     106.183 127.387 144.708  0.00  0.00    +0.000 OA
ATOM      4  O   UNL     1     106.216 124.863 144.520  0.00  0.00    +0.000 OA
ATOM      5  C   UNL     1     106.678 125.967 146.716  0.00  0.00    +0.000 A 
ATOM      6  C   UNL     1     106.525 125.609 145.990  0.00  0.00    +0.000 A 
ATOM      7  C   UNL     1     106.668 126.790 146.780  0.00  0.00    +0.000 A 
ATOM      8  C   UNL     1     106.362 126.072 145.326  0.00  0.00    +0.000 A 
ATOM      9  C   UNL     1     106.505 127.253 146.118  0.00  0.00    +0.000 A 
ATOM     10  C   UNL     1     106.352 126.894 145.391  0.00  0.00    +0.000 A 
ATOM     11  C   UNL     1     106.204 125.686 144.576  0.00  0.00    +0.000 A 
ATOM     12  C   UNL     1     106.023 127.020 143.948  0.00  0.00    +0.000 A 
ATOM     13  C   UNL     1     106.033 126.163 143.881  0.00  0.00    +0.000 A 
ENDROOT
BRANCH   5  18
ATOM     14  O   UNL     1     106.225 125.231 147.854  0.00  0.00    +0.000 OA
ATOM     15  O   UNL     1     108.567 124.663 148.419  0.00  0.00    +0.000 OA
ATOM     16  O   UNL     1     107.333 124.116 149.368  0.00  0.00    +0.000 OA
ATOM     17  C   UNL     1     107.786 124.852 148.231  0.00  0.00    +0.000 C 
ATOM     18  C   UNL     1     106.841 125.504 147.379  0.00  0.00    +0.000 C 
ATOM     19  C   UNL     1     107.169 124.579 148.705  0.00  0.00    +0.000 C 
ATOM     20  C   UNL     1     107.622 125.315 147.568  0.00  0.00    +0.000 C 
ATOM     21  C   UNL     1     106.388 124.768 148.516  0.00  0.00    +0.000 C 
ATOM     22  C   UNL     1     105.772 124.494 148.992  0.00  0.00    +0.000 C 
ENDBRANCH   5  18
BRANCH  12  24
ATOM     23  O   UNL     1     105.373 128.883 141.303  0.00  0.00    +0.000 OA
ATOM     24  C   UNL     1     105.860 127.486 143.287  0.00  0.00    +0.000 A 
ATOM     25  C   UNL     1     106.462 127.670 142.753  0.00  0.00    +0.000 A 
ATOM     26  C   UNL     1     105.095 127.768 143.159  0.00  0.00    +0.000 A 
ATOM     27  C   UNL     1     106.300 128.135 142.093  0.00  0.00    +0.000 A 
ATOM     28  C   UNL     1     104.933 128.234 142.498  0.00  0.00    +0.000 A 
ATOM     29  C   UNL     1     105.535 128.418 141.964  0.00  0.00    +0.000 A 
BRANCH  27  30
ATOM     30  O   UNL     1     106.902 128.319 141.560  0.00  0.00    +0.000 OA
ATOM     31  C   UNL     1     107.658 128.500 141.837  0.00  0.00    +0.000 C 
ENDBRANCH  27  30
ENDBRANCH  12  24
TORSDOF 3
ENDMDL
MODEL 5
REMARK VINA RESULT:      -9.1      9.454     10.846
REMARK  Name = 44258156
REMARK  3 active torsions:
REMARK  status: ('A' for Active; 'I' for Inactive)
REMARK    1  A    between atoms: O_8  and  C_28
REMARK    2  A    between atoms: C_11  and  C_15
REMARK    3  A    between atoms: C_23  and  C_25
REMARK                            x       y       z     vdW  Elec       q    Type
REMARK                         _______ _______ _______ _____ _____    ______ ____
ROOT
ATOM      1  O   UNL     1     104.576 127.887 141.230  0.00  0.00    +0.000 OA
ATOM      2  O   UNL     1     105.497 128.698 143.811  0.00  0.00    +0.000 OA
ATOM      3  O   UNL     1     103.467 130.250 142.479  0.00  0.00    +0.000 OA
ATOM      4  O   UNL     1     103.561 128.636 140.530  0.00  0.00    +0.000 OA
ATOM      5  C   UNL     1     105.036 128.292 142.520  0.00  0.00    +0.000 A 
ATOM      6  C   UNL     1     104.547 128.411 141.867  0.00  0.00    +0.000 A 
ATOM      7  C   UNL     1     105.007 128.816 143.157  0.00  0.00    +0.000 A 
ATOM      8  C   UNL     1     104.030 129.053 141.849  0.00  0.00    +0.000 A 
ATOM      9  C   UNL     1     104.491 129.459 143.140  0.00  0.00    +0.000 A 
ATOM     10  C   UNL     1     104.001 129.577 142.485  0.00  0.00    +0.000 A 
ATOM     11  C   UNL     1     103.526 129.165 141.162  0.00  0.00    +0.000 A 
ATOM     12  C   UNL     1     102.955 130.379 141.801  0.00  0.00    +0.000 A 
ATOM     13  C   UNL     1     102.985 129.833 141.138  0.00  0.00    +0.000 A 
ENDROOT
BRANCH   5  18
ATOM     14  O   UNL     1     106.308 127.718 142.213  0.00  0.00    +0.000 OA
ATOM     15  O   UNL     1     105.594 125.584 143.245  0.00  0.00    +0.000 OA
ATOM     16  O   UNL     1     107.104 125.721 142.594  0.00  0.00    +0.000 OA
ATOM     17  C   UNL     1     105.832 126.296 142.901  0.00  0.00    +0.000 C 
ATOM     18  C   UNL     1     105.553 127.650 142.538  0.00  0.00    +0.000 C 
ATOM     19  C   UNL     1     106.587 126.365 142.575  0.00  0.00    +0.000 C 
ATOM     20  C   UNL     1     105.315 126.938 142.882  0.00  0.00    +0.000 C 
ATOM     21  C   UNL     1     106.825 127.076 142.232  0.00  0.00    +0.000 C 
ATOM     22  C   UNL     1     107.580 127.144 141.906  0.00  0.00    +0.000 C 
ENDBRANCH   5  18
BRANCH  12  24
ATOM     23  O   UNL     1     100.891 132.953 141.742  0.00  0.00    +0.000 OA
ATOM     24  C   UNL     1     102.439 131.023 141.787  0.00  0.00    +0.000 A 
ATOM     25  C   UNL     1     102.713 131.766 141.556  0.00  0.00    +0.000 A 
ATOM     26  C   UNL     1     101.649 130.923 142.002  0.00  0.00    +0.000 A 
ATOM     27  C   UNL     1     102.197 132.409 141.541  0.00  0.00    +0.000 A 
ATOM     28  C   UNL     1     101.133 131.566 141.987  0.00  0.00    +0.000 A 
ATOM     29  C   UNL     1     101.406 132.309 141.757  0.00  0.00    +0.000 A 
BRANCH  27  30
ATOM     30  O   UNL     1     102.471 133.152 141.310  0.00  0.00    +0.000 OA
ATOM     31  C   UNL     1     103.244 133.381 141.489  0.00  0.00    +0.000 C 
ENDBRANCH  27  30
ENDBRANCH  12  24
TORSDOF 3
ENDMDL
MODEL 6
REMARK VINA RESULT:      -9.0      3.770      4.773
REMARK  Name = 44258156
REMARK  3 active torsions:
REMARK  status: ('A' for Active; 'I' for Inactive)
REMARK    1  A    between atoms: O_8  and  C_28
REMARK    2  A    between atoms: C_11  and  C_15
REMARK    3  A    between atoms: C_23  and  C_25
REMARK                            x       y       z     vdW  Elec       q    Type
REMARK                         _______ _______ _______ _____ _____    ______ ____
ROOT
ATOM      1  O   UNL     1     110.232 129.030 135.138  0.00  0.00    +0.000 OA
ATOM      2  O   UNL     1     109.284 129.024 137.834  0.00  0.00    +0.000 OA
ATOM      3  O   UNL     1     110.850 126.802 136.879  0.00  0.00    +0.000 OA
ATOM      4  O   UNL     1     111.019 127.936 134.621  0.00  0.00    +0.000 OA
ATOM      5  C   UNL     1     109.758 129.027 136.486  0.00  0.00    +0.000 A 
ATOM      6  C   UNL     1     110.175 128.663 135.875  0.00  0.00    +0.000 A 
ATOM      7  C   UNL     1     109.701 128.660 137.222  0.00  0.00    +0.000 A 
ATOM      8  C   UNL     1     110.536 127.931 135.999  0.00  0.00    +0.000 A 
ATOM      9  C   UNL     1     110.061 127.928 137.348  0.00  0.00    +0.000 A 
ATOM     10  C   UNL     1     110.479 127.564 136.736  0.00  0.00    +0.000 A 
ATOM     11  C   UNL     1     110.967 127.562 135.355  0.00  0.00    +0.000 A 
ATOM     12  C   UNL     1     111.286 126.417 136.247  0.00  0.00    +0.000 A 
ATOM     13  C   UNL     1     111.345 126.800 135.479  0.00  0.00    +0.000 A 
ENDROOT
BRANCH   5  18
ATOM     14  O   UNL     1     109.822 130.454 136.482  0.00  0.00    +0.000 OA
ATOM     15  O   UNL     1     107.462 130.559 135.744  0.00  0.00    +0.000 OA
ATOM     16  O   UNL     1     108.313 131.952 135.986  0.00  0.00    +0.000 OA
ATOM     17  C   UNL     1     108.249 130.524 135.990  0.00  0.00    +0.000 C 
ATOM     18  C   UNL     1     109.397 129.759 136.361  0.00  0.00    +0.000 C 
ATOM     19  C   UNL     1     108.675 131.220 136.111  0.00  0.00    +0.000 C 
ATOM     20  C   UNL     1     108.611 129.793 136.115  0.00  0.00    +0.000 C 
ATOM     21  C   UNL     1     109.462 131.185 136.358  0.00  0.00    +0.000 C 
ATOM     22  C   UNL     1     109.887 131.882 136.479  0.00  0.00    +0.000 C 
ENDBRANCH   5  18
BRANCH  12  24
ATOM     23  O   UNL     1     112.725 123.492 136.759  0.00  0.00    +0.000 OA
ATOM     24  C   UNL     1     111.645 125.686 136.375  0.00  0.00    +0.000 A 
ATOM     25  C   UNL     1     112.425 125.650 136.644  0.00  0.00    +0.000 A 
ATOM     26  C   UNL     1     111.225 124.989 136.235  0.00  0.00    +0.000 A 
ATOM     27  C   UNL     1     112.784 124.920 136.772  0.00  0.00    +0.000 A 
ATOM     28  C   UNL     1     111.585 124.258 136.363  0.00  0.00    +0.000 A 
ATOM     29  C   UNL     1     112.364 124.223 136.631  0.00  0.00    +0.000 A 
BRANCH  27  30
ATOM     30  O   UNL     1     113.563 124.885 137.040  0.00  0.00    +0.000 OA
ATOM     31  C   UNL     1     113.827 125.418 137.611  0.00  0.00    +0.000 C 
ENDBRANCH  27  30
ENDBRANCH  12  24
TORSDOF 3
ENDMDL
MODEL 7
REMARK VINA RESULT:      -8.9      3.018      3.885
REMARK  Name = 44258156
REMARK  3 active torsions:
REMARK  status: ('A' for Active; 'I' for Inactive)
REMARK    1  A    between atoms: O_8  and  C_28
REMARK    2  A    between atoms: C_11  and  C_15
REMARK    3  A    between atoms: C_23  and  C_25
REMARK                            x       y       z     vdW  Elec       q    Type
REMARK                         _______ _______ _______ _____ _____    ______ ____
ROOT
ATOM      1  O   UNL     1     112.269 129.749 135.875  0.00  0.00    +0.000 OA
ATOM      2  O   UNL     1     110.468 129.315 138.051  0.00  0.00    +0.000 OA
ATOM      3  O   UNL     1     112.359 127.259 137.347  0.00  0.00    +0.000 OA
ATOM      4  O   UNL     1     113.232 128.745 135.491  0.00  0.00    +0.000 OA
ATOM      5  C   UNL     1     111.369 129.532 136.963  0.00  0.00    +0.000 A 
ATOM      6  C   UNL     1     111.983 129.267 136.481  0.00  0.00    +0.000 A 
ATOM      7  C   UNL     1     111.083 129.050 137.568  0.00  0.00    +0.000 A 
ATOM      8  C   UNL     1     112.312 128.521 136.603  0.00  0.00    +0.000 A 
ATOM      9  C   UNL     1     111.411 128.304 137.692  0.00  0.00    +0.000 A 
ATOM     10  C   UNL     1     112.026 128.039 137.209  0.00  0.00    +0.000 A 
ATOM     11  C   UNL     1     112.952 128.256 136.095  0.00  0.00    +0.000 A 
ATOM     12  C   UNL     1     113.000 126.977 136.849  0.00  0.00    +0.000 A 
ATOM     13  C   UNL     1     113.298 127.479 136.218  0.00  0.00    +0.000 A 
ENDROOT
BRANCH   5  18
ATOM     14  O   UNL     1     110.419 130.374 136.307  0.00  0.00    +0.000 OA
ATOM     15  O   UNL     1     111.299 132.330 137.542  0.00  0.00    +0.000 OA
ATOM     16  O   UNL     1     110.055 132.520 136.474  0.00  0.00    +0.000 OA
ATOM     17  C   UNL     1     111.006 131.678 137.130  0.00  0.00    +0.000 C 
ATOM     18  C   UNL     1     111.040 130.279 136.840  0.00  0.00    +0.000 C 
ATOM     19  C   UNL     1     110.384 131.772 136.596  0.00  0.00    +0.000 C 
ATOM     20  C   UNL     1     111.333 130.931 137.252  0.00  0.00    +0.000 C 
ATOM     21  C   UNL     1     110.090 131.120 136.185  0.00  0.00    +0.000 C 
ATOM     22  C   UNL     1     109.468 131.216 135.651  0.00  0.00    +0.000 C 
ENDBRANCH   5  18
BRANCH  12  24
ATOM     23  O   UNL     1     114.305 123.988 137.349  0.00  0.00    +0.000 OA
ATOM     24  C   UNL     1     113.326 126.230 136.974  0.00  0.00    +0.000 A 
ATOM     25  C   UNL     1     112.960 125.561 136.658  0.00  0.00    +0.000 A 
ATOM     26  C   UNL     1     114.019 126.151 137.415  0.00  0.00    +0.000 A 
ATOM     27  C   UNL     1     113.286 124.815 136.783  0.00  0.00    +0.000 A 
ATOM     28  C   UNL     1     114.346 125.404 137.540  0.00  0.00    +0.000 A 
ATOM     29  C   UNL     1     113.980 124.736 137.225  0.00  0.00    +0.000 A 
BRANCH  27  30
ATOM     30  O   UNL     1     112.920 124.146 136.468  0.00  0.00    +0.000 OA
ATOM     31  C   UNL     1     112.098 124.078 136.488  0.00  0.00    +0.000 C 
ENDBRANCH  27  30
ENDBRANCH  12  24
TORSDOF 3
ENDMDL
