MODEL 1
REMARK VINA RESULT:      -9.4      0.000      0.000
REMARK  Name = 131831902
REMARK  3 active torsions:
REMARK  status: ('A' for Active; 'I' for Inactive)
REMARK    1  A    between atoms: S_1  and  O_3
REMARK    2  A    between atoms: O_3  and  C_12
REMARK    3  A    between atoms: C_11  and  C_14
REMARK                            x       y       z     vdW  Elec       q    Type
REMARK                         _______ _______ _______ _____ _____    ______ ____
ROOT
ATOM      1  O   UNL     1     105.630 124.389 147.644  0.00  0.00    +0.000 OA
ATOM      2  O   UNL     1     107.097 125.576 146.043  0.00  0.00    +0.000 OA
ATOM      3  O   UNL     1     108.182 125.574 146.993  0.00  0.00    +0.000 OA
ATOM      4  O   UNL     1     107.776 124.349 149.612  0.00  0.00    +0.000 OA
ATOM      5  C   UNL     1     105.344 124.595 146.898  0.00  0.00    +0.000 C 
ATOM      6  C   UNL     1     105.833 124.990 146.364  0.00  0.00    +0.000 C 
ATOM      7  C   UNL     1     106.608 125.180 146.577  0.00  0.00    +0.000 C 
ATOM      8  C   UNL     1     106.892 124.975 147.323  0.00  0.00    +0.000 A 
ATOM      9  C   UNL     1     106.403 124.579 147.857  0.00  0.00    +0.000 A 
ATOM     10  C   UNL     1     107.701 125.178 147.533  0.00  0.00    +0.000 A 
ATOM     11  C   UNL     1     106.689 124.360 148.638  0.00  0.00    +0.000 A 
ATOM     12  C   UNL     1     108.003 124.967 148.309  0.00  0.00    +0.000 A 
ATOM     13  C   UNL     1     107.494 124.555 148.865  0.00  0.00    +0.000 A 
ENDROOT
BRANCH   5  15
ATOM     14  O   UNL     1     102.247 123.835 146.047  0.00  0.00    +0.000 OA
ATOM     15  C   UNL     1     104.571 124.405 146.685  0.00  0.00    +0.000 A 
ATOM     16  C   UNL     1     104.412 123.697 146.290  0.00  0.00    +0.000 A 
ATOM     17  C   UNL     1     103.954 124.922 146.867  0.00  0.00    +0.000 A 
ATOM     18  C   UNL     1     103.639 123.508 146.078  0.00  0.00    +0.000 A 
ATOM     19  C   UNL     1     103.179 124.732 146.654  0.00  0.00    +0.000 A 
ATOM     20  C   UNL     1     103.022 124.025 146.260  0.00  0.00    +0.000 A 
ENDBRANCH   5  15
BRANCH   6  21
ATOM     21  O   UNL     1     105.549 125.196 145.617  0.00  0.00    +0.000 OA
BRANCH  21  22
ATOM     22  S   UNL     1     106.072 125.448 145.032  0.00  0.00    +0.000 S 
ATOM     23  O   UNL     1     106.595 125.701 144.446  0.00  0.00    +0.000 OA
ATOM     24  O   UNL     1     106.267 124.664 144.867  0.00  0.00    +0.000 OA
ATOM     25  O   UNL     1     105.877 126.233 145.196  0.00  0.00    +0.000 OA
ENDBRANCH  21  22
ENDBRANCH   6  21
TORSDOF 3
ENDMDL
MODEL 2
REMARK VINA RESULT:      -8.7      7.196      8.258
REMARK  Name = 131831902
REMARK  3 active torsions:
REMARK  status: ('A' for Active; 'I' for Inactive)
REMARK    1  A    between atoms: S_1  and  O_3
REMARK    2  A    between atoms: O_3  and  C_12
REMARK    3  A    between atoms: C_11  and  C_14
REMARK                            x       y       z     vdW  Elec       q    Type
REMARK                         _______ _______ _______ _____ _____    ______ ____
ROOT
ATOM      1  O   UNL     1     103.298 130.259 142.365  0.00  0.00    +0.000 OA
ATOM      2  O   UNL     1     103.248 128.784 140.378  0.00  0.00    +0.000 OA
ATOM      3  O   UNL     1     104.239 127.915 140.963  0.00  0.00    +0.000 OA
ATOM      4  O   UNL     1     105.301 128.549 143.608  0.00  0.00    +0.000 OA
ATOM      5  C   UNL     1     102.798 130.436 141.733  0.00  0.00    +0.000 C 
ATOM      6  C   UNL     1     102.781 129.945 141.071  0.00  0.00    +0.000 C 
ATOM      7  C   UNL     1     103.265 129.276 141.041  0.00  0.00    +0.000 C 
ATOM      8  C   UNL     1     103.764 129.100 141.673  0.00  0.00    +0.000 A 
ATOM      9  C   UNL     1     103.781 129.592 142.335  0.00  0.00    +0.000 A 
ATOM     10  C   UNL     1     104.263 128.401 141.630  0.00  0.00    +0.000 A 
ATOM     11  C   UNL     1     104.298 129.418 143.000  0.00  0.00    +0.000 A 
ATOM     12  C   UNL     1     104.785 128.212 142.285  0.00  0.00    +0.000 A 
ATOM     13  C   UNL     1     104.803 128.724 142.974  0.00  0.00    +0.000 A 
ENDROOT
BRANCH   5  15
ATOM     14  O   UNL     1     100.866 133.109 141.853  0.00  0.00    +0.000 OA
ATOM     15  C   UNL     1     102.316 131.104 141.763  0.00  0.00    +0.000 A 
ATOM     16  C   UNL     1     102.617 131.842 141.550  0.00  0.00    +0.000 A 
ATOM     17  C   UNL     1     101.530 131.035 142.006  0.00  0.00    +0.000 A 
ATOM     18  C   UNL     1     102.135 132.510 141.580  0.00  0.00    +0.000 A 
ATOM     19  C   UNL     1     101.047 131.703 142.037  0.00  0.00    +0.000 A 
ATOM     20  C   UNL     1     101.349 132.440 141.823  0.00  0.00    +0.000 A 
ENDBRANCH   5  15
BRANCH   6  21
ATOM     21  O   UNL     1     102.282 130.121 140.439  0.00  0.00    +0.000 OA
BRANCH  21  22
ATOM     22  S   UNL     1     102.399 129.759 139.707  0.00  0.00    +0.000 S 
ATOM     23  O   UNL     1     102.515 129.396 138.975  0.00  0.00    +0.000 OA
ATOM     24  O   UNL     1     102.974 130.320 139.520  0.00  0.00    +0.000 OA
ATOM     25  O   UNL     1     101.823 129.197 139.893  0.00  0.00    +0.000 OA
ENDBRANCH  21  22
ENDBRANCH   6  21
TORSDOF 3
ENDMDL
MODEL 3
REMARK VINA RESULT:      -8.4     12.162     13.105
REMARK  Name = 131831902
REMARK  3 active torsions:
REMARK  status: ('A' for Active; 'I' for Inactive)
REMARK    1  A    between atoms: S_1  and  O_3
REMARK    2  A    between atoms: O_3  and  C_12
REMARK    3  A    between atoms: C_11  and  C_14
REMARK                            x       y       z     vdW  Elec       q    Type
REMARK                         _______ _______ _______ _____ _____    ______ ____
ROOT
ATOM      1  O   UNL     1     111.984 125.709 136.020  0.00  0.00    +0.000 OA
ATOM      2  O   UNL     1     111.957 128.175 135.806  0.00  0.00    +0.000 OA
ATOM      3  O   UNL     1     110.683 128.131 135.133  0.00  0.00    +0.000 OA
ATOM      4  O   UNL     1     109.411 125.544 134.667  0.00  0.00    +0.000 OA
ATOM      5  C   UNL     1     112.612 126.155 136.317  0.00  0.00    +0.000 C 
ATOM      6  C   UNL     1     112.603 126.977 136.245  0.00  0.00    +0.000 C 
ATOM      7  C   UNL     1     111.966 127.353 135.877  0.00  0.00    +0.000 C 
ATOM      8  C   UNL     1     111.340 126.906 135.581  0.00  0.00    +0.000 A 
ATOM      9  C   UNL     1     111.349 126.084 135.652  0.00  0.00    +0.000 A 
ATOM     10  C   UNL     1     110.683 127.308 135.199  0.00  0.00    +0.000 A 
ATOM     11  C   UNL     1     110.701 125.608 135.347  0.00  0.00    +0.000 A 
ATOM     12  C   UNL     1     110.027 126.848 134.888  0.00  0.00    +0.000 A 
ATOM     13  C   UNL     1     110.036 125.993 134.962  0.00  0.00    +0.000 A 
ENDROOT
BRANCH   5  15
ATOM     14  O   UNL     1     115.155 124.655 137.790  0.00  0.00    +0.000 OA
ATOM     15  C   UNL     1     113.247 125.780 136.684  0.00  0.00    +0.000 A 
ATOM     16  C   UNL     1     113.907 125.556 136.242  0.00  0.00    +0.000 A 
ATOM     17  C   UNL     1     113.224 125.629 137.495  0.00  0.00    +0.000 A 
ATOM     18  C   UNL     1     114.542 125.181 136.610  0.00  0.00    +0.000 A 
ATOM     19  C   UNL     1     113.860 125.254 137.864  0.00  0.00    +0.000 A 
ATOM     20  C   UNL     1     114.519 125.030 137.421  0.00  0.00    +0.000 A 
ENDBRANCH   5  15
BRANCH   6  21
ATOM     21  O   UNL     1     113.229 127.424 136.542  0.00  0.00    +0.000 OA
BRANCH  21  22
ATOM     22  S   UNL     1     113.159 128.244 136.603  0.00  0.00    +0.000 S 
ATOM     23  O   UNL     1     113.090 129.064 136.663  0.00  0.00    +0.000 OA
ATOM     24  O   UNL     1     112.762 128.157 137.320  0.00  0.00    +0.000 OA
ATOM     25  O   UNL     1     113.557 128.331 135.885  0.00  0.00    +0.000 OA
ENDBRANCH  21  22
ENDBRANCH   6  21
TORSDOF 3
ENDMDL
MODEL 4
REMARK VINA RESULT:      -8.3      1.427      3.916
REMARK  Name = 131831902
REMARK  3 active torsions:
REMARK  status: ('A' for Active; 'I' for Inactive)
REMARK    1  A    between atoms: S_1  and  O_3
REMARK    2  A    between atoms: O_3  and  C_12
REMARK    3  A    between atoms: C_11  and  C_14
REMARK                            x       y       z     vdW  Elec       q    Type
REMARK                         _______ _______ _______ _____ _____    ______ ____
ROOT
ATOM      1  O   UNL     1     103.629 124.099 147.475  0.00  0.00    +0.000 OA
ATOM      2  O   UNL     1     104.096 123.705 145.076  0.00  0.00    +0.000 OA
ATOM      3  O   UNL     1     102.834 123.026 144.913  0.00  0.00    +0.000 OA
ATOM      4  O   UNL     1     101.067 122.739 147.220  0.00  0.00    +0.000 OA
ATOM      5  C   UNL     1     104.335 124.368 147.143  0.00  0.00    +0.000 C 
ATOM      6  C   UNL     1     104.490 124.237 146.343  0.00  0.00    +0.000 C 
ATOM      7  C   UNL     1     103.940 123.836 145.876  0.00  0.00    +0.000 C 
ATOM      8  C   UNL     1     103.235 123.568 146.209  0.00  0.00    +0.000 A 
ATOM      9  C   UNL     1     103.079 123.699 147.008  0.00  0.00    +0.000 A 
ATOM     10  C   UNL     1     102.670 123.152 145.712  0.00  0.00    +0.000 A 
ATOM     11  C   UNL     1     102.348 123.424 147.366  0.00  0.00    +0.000 A 
ATOM     12  C   UNL     1     101.933 122.870 146.052  0.00  0.00    +0.000 A 
ATOM     13  C   UNL     1     101.771 123.007 146.885  0.00  0.00    +0.000 A 
ENDROOT
BRANCH   5  15
ATOM     14  O   UNL     1     106.536 125.968 149.010  0.00  0.00    +0.000 OA
ATOM     15  C   UNL     1     104.885 124.768 147.609  0.00  0.00    +0.000 A 
ATOM     16  C   UNL     1     104.795 125.576 147.752  0.00  0.00    +0.000 A 
ATOM     17  C   UNL     1     105.524 124.360 147.933  0.00  0.00    +0.000 A 
ATOM     18  C   UNL     1     105.345 125.976 148.219  0.00  0.00    +0.000 A 
ATOM     19  C   UNL     1     106.075 124.761 148.400  0.00  0.00    +0.000 A 
ATOM     20  C   UNL     1     105.985 125.568 148.543  0.00  0.00    +0.000 A 
ENDBRANCH   5  15
BRANCH   6  21
ATOM     21  O   UNL     1     105.196 124.505 146.010  0.00  0.00    +0.000 OA
BRANCH  21  22
ATOM     22  S   UNL     1     105.252 124.615 145.194  0.00  0.00    +0.000 S 
ATOM     23  O   UNL     1     105.308 124.724 144.379  0.00  0.00    +0.000 OA
ATOM     24  O   UNL     1     105.680 123.913 145.130  0.00  0.00    +0.000 OA
ATOM     25  O   UNL     1     104.824 125.317 145.259  0.00  0.00    +0.000 OA
ENDBRANCH  21  22
ENDBRANCH   6  21
TORSDOF 3
ENDMDL
MODEL 5
REMARK VINA RESULT:      -8.3     12.060     12.703
REMARK  Name = 131831902
REMARK  3 active torsions:
REMARK  status: ('A' for Active; 'I' for Inactive)
REMARK    1  A    between atoms: S_1  and  O_3
REMARK    2  A    between atoms: O_3  and  C_12
REMARK    3  A    between atoms: C_11  and  C_14
REMARK                            x       y       z     vdW  Elec       q    Type
REMARK                         _______ _______ _______ _____ _____    ______ ____
ROOT
ATOM      1  O   UNL     1     113.001 126.650 136.550  0.00  0.00    +0.000 OA
ATOM      2  O   UNL     1     111.329 124.903 136.022  0.00  0.00    +0.000 OA
ATOM      3  O   UNL     1     112.251 123.864 136.411  0.00  0.00    +0.000 OA
ATOM      4  O   UNL     1     114.914 124.605 137.351  0.00  0.00    +0.000 OA
ATOM      5  C   UNL     1     112.257 126.865 136.266  0.00  0.00    +0.000 C 
ATOM      6  C   UNL     1     111.699 126.282 136.090  0.00  0.00    +0.000 C 
ATOM      7  C   UNL     1     111.886 125.485 136.198  0.00  0.00    +0.000 C 
ATOM      8  C   UNL     1     112.631 125.272 136.481  0.00  0.00    +0.000 A 
ATOM      9  C   UNL     1     113.188 125.854 136.657  0.00  0.00    +0.000 A 
ATOM     10  C   UNL     1     112.814 124.439 136.589  0.00  0.00    +0.000 A 
ATOM     11  C   UNL     1     113.968 125.644 136.954  0.00  0.00    +0.000 A 
ATOM     12  C   UNL     1     113.588 124.210 136.884  0.00  0.00    +0.000 A 
ATOM     13  C   UNL     1     114.168 124.817 137.068  0.00  0.00    +0.000 A 
ENDROOT
BRANCH   5  15
ATOM     14  O   UNL     1     111.506 130.049 135.836  0.00  0.00    +0.000 OA
ATOM     15  C   UNL     1     112.069 127.660 136.159  0.00  0.00    +0.000 A 
ATOM     16  C   UNL     1     112.273 128.041 135.456  0.00  0.00    +0.000 A 
ATOM     17  C   UNL     1     111.678 128.076 136.754  0.00  0.00    +0.000 A 
ATOM     18  C   UNL     1     112.085 128.837 135.348  0.00  0.00    +0.000 A 
ATOM     19  C   UNL     1     111.490 128.873 136.647  0.00  0.00    +0.000 A 
ATOM     20  C   UNL     1     111.694 129.253 135.944  0.00  0.00    +0.000 A 
ENDBRANCH   5  15
BRANCH   6  21
ATOM     21  O   UNL     1     110.955 126.496 135.807  0.00  0.00    +0.000 OA
BRANCH  21  22
ATOM     22  S   UNL     1     110.470 125.930 135.453  0.00  0.00    +0.000 S 
ATOM     23  O   UNL     1     109.985 125.364 135.099  0.00  0.00    +0.000 OA
ATOM     24  O   UNL     1     110.051 125.847 136.158  0.00  0.00    +0.000 OA
ATOM     25  O   UNL     1     110.889 126.012 134.747  0.00  0.00    +0.000 OA
ENDBRANCH  21  22
ENDBRANCH   6  21
TORSDOF 3
ENDMDL
MODEL 6
REMARK VINA RESULT:      -8.3     10.013     11.478
REMARK  Name = 131831902
REMARK  3 active torsions:
REMARK  status: ('A' for Active; 'I' for Inactive)
REMARK    1  A    between atoms: S_1  and  O_3
REMARK    2  A    between atoms: O_3  and  C_12
REMARK    3  A    between atoms: C_11  and  C_14
REMARK                            x       y       z     vdW  Elec       q    Type
REMARK                         _______ _______ _______ _____ _____    ______ ____
ROOT
ATOM      1  O   UNL     1     113.764 126.379 138.858  0.00  0.00    +0.000 OA
ATOM      2  O   UNL     1     111.383 125.702 138.898  0.00  0.00    +0.000 OA
ATOM      3  O   UNL     1     111.197 126.333 140.182  0.00  0.00    +0.000 OA
ATOM      4  O   UNL     1     113.460 127.675 141.448  0.00  0.00    +0.000 OA
ATOM      5  C   UNL     1     113.447 125.949 138.228  0.00  0.00    +0.000 C 
ATOM      6  C   UNL     1     112.653 125.724 138.242  0.00  0.00    +0.000 C 
ATOM      7  C   UNL     1     112.177 125.927 138.885  0.00  0.00    +0.000 C 
ATOM      8  C   UNL     1     112.495 126.357 139.513  0.00  0.00    +0.000 A 
ATOM      9  C   UNL     1     113.288 126.583 139.500  0.00  0.00    +0.000 A 
ATOM     10  C   UNL     1     111.989 126.563 140.177  0.00  0.00    +0.000 A 
ATOM     11  C   UNL     1     113.630 127.030 140.149  0.00  0.00    +0.000 A 
ATOM     12  C   UNL     1     112.314 127.010 140.834  0.00  0.00    +0.000 A 
ATOM     13  C   UNL     1     113.140 127.245 140.820  0.00  0.00    +0.000 A 
ENDROOT
BRANCH   5  15
ATOM     14  O   UNL     1     115.350 125.134 135.659  0.00  0.00    +0.000 OA
ATOM     15  C   UNL     1     113.922 125.746 137.586  0.00  0.00    +0.000 A 
ATOM     16  C   UNL     1     114.015 126.272 136.957  0.00  0.00    +0.000 A 
ATOM     17  C   UNL     1     114.305 125.015 137.572  0.00  0.00    +0.000 A 
ATOM     18  C   UNL     1     114.490 126.068 136.316  0.00  0.00    +0.000 A 
ATOM     19  C   UNL     1     114.782 124.811 136.929  0.00  0.00    +0.000 A 
ATOM     20  C   UNL     1     114.874 125.338 136.302  0.00  0.00    +0.000 A 
ENDBRANCH   5  15
BRANCH   6  21
ATOM     21  O   UNL     1     112.335 125.294 137.613  0.00  0.00    +0.000 OA
BRANCH  21  22
ATOM     22  S   UNL     1     111.519 125.282 137.492  0.00  0.00    +0.000 S 
ATOM     23  O   UNL     1     110.703 125.271 137.371  0.00  0.00    +0.000 OA
ATOM     24  O   UNL     1     111.557 126.039 137.165  0.00  0.00    +0.000 OA
ATOM     25  O   UNL     1     111.482 124.526 137.819  0.00  0.00    +0.000 OA
ENDBRANCH  21  22
ENDBRANCH   6  21
TORSDOF 3
ENDMDL
MODEL 7
REMARK VINA RESULT:      -8.2      1.312      3.850
REMARK  Name = 131831902
REMARK  3 active torsions:
REMARK  status: ('A' for Active; 'I' for Inactive)
REMARK    1  A    between atoms: S_1  and  O_3
REMARK    2  A    between atoms: O_3  and  C_12
REMARK    3  A    between atoms: C_11  and  C_14
REMARK                            x       y       z     vdW  Elec       q    Type
REMARK                         _______ _______ _______ _____ _____    ______ ____
ROOT
ATOM      1  O   UNL     1     104.316 125.328 147.690  0.00  0.00    +0.000 OA
ATOM      2  O   UNL     1     103.517 124.003 145.758  0.00  0.00    +0.000 OA
ATOM      3  O   UNL     1     102.156 124.085 146.229  0.00  0.00    +0.000 OA
ATOM      4  O   UNL     1     101.593 125.534 148.701  0.00  0.00    +0.000 OA
ATOM      5  C   UNL     1     104.853 125.059 147.124  0.00  0.00    +0.000 C 
ATOM      6  C   UNL     1     104.587 124.618 146.480  0.00  0.00    +0.000 C 
ATOM      7  C   UNL     1     103.783 124.445 146.402  0.00  0.00    +0.000 C 
ATOM      8  C   UNL     1     103.247 124.714 146.968  0.00  0.00    +0.000 A 
ATOM      9  C   UNL     1     103.514 125.155 147.612  0.00  0.00    +0.000 A 
ATOM     10  C   UNL     1     102.413 124.527 146.876  0.00  0.00    +0.000 A 
ATOM     11  C   UNL     1     102.964 125.441 148.209  0.00  0.00    +0.000 A 
ATOM     12  C   UNL     1     101.850 124.805 147.462  0.00  0.00    +0.000 A 
ATOM     13  C   UNL     1     102.127 125.264 148.133  0.00  0.00    +0.000 A 
ENDROOT
BRANCH   5  15
ATOM     14  O   UNL     1     108.065 125.750 147.434  0.00  0.00    +0.000 OA
ATOM     15  C   UNL     1     105.656 125.231 147.201  0.00  0.00    +0.000 A 
ATOM     16  C   UNL     1     106.156 124.703 147.590  0.00  0.00    +0.000 A 
ATOM     17  C   UNL     1     105.958 125.933 146.890  0.00  0.00    +0.000 A 
ATOM     18  C   UNL     1     106.959 124.875 147.667  0.00  0.00    +0.000 A 
ATOM     19  C   UNL     1     106.762 126.106 146.968  0.00  0.00    +0.000 A 
ATOM     20  C   UNL     1     107.262 125.577 147.356  0.00  0.00    +0.000 A 
ENDBRANCH   5  15
BRANCH   6  21
ATOM     21  O   UNL     1     105.123 124.349 145.913  0.00  0.00    +0.000 OA
BRANCH  21  22
ATOM     22  S   UNL     1     104.854 124.112 145.170  0.00  0.00    +0.000 S 
ATOM     23  O   UNL     1     104.585 123.875 144.427  0.00  0.00    +0.000 OA
ATOM     24  O   UNL     1     104.825 124.900 144.929  0.00  0.00    +0.000 OA
ATOM     25  O   UNL     1     104.883 123.323 145.411  0.00  0.00    +0.000 OA
ENDBRANCH  21  22
ENDBRANCH   6  21
TORSDOF 3
ENDMDL
MODEL 8
REMARK VINA RESULT:      -8.2      1.635      4.228
REMARK  Name = 131831902
REMARK  3 active torsions:
REMARK  status: ('A' for Active; 'I' for Inactive)
REMARK    1  A    between atoms: S_1  and  O_3
REMARK    2  A    between atoms: O_3  and  C_12
REMARK    3  A    between atoms: C_11  and  C_14
REMARK                            x       y       z     vdW  Elec       q    Type
REMARK                         _______ _______ _______ _____ _____    ______ ____
ROOT
ATOM      1  O   UNL     1     105.044 124.293 146.960  0.00  0.00    +0.000 OA
ATOM      2  O   UNL     1     103.495 125.634 148.348  0.00  0.00    +0.000 OA
ATOM      3  O   UNL     1     102.353 124.997 147.740  0.00  0.00    +0.000 OA
ATOM      4  O   UNL     1     102.786 122.963 145.690  0.00  0.00    +0.000 OA
ATOM      5  C   UNL     1     105.344 124.840 147.501  0.00  0.00    +0.000 C 
ATOM      6  C   UNL     1     104.828 125.287 147.963  0.00  0.00    +0.000 C 
ATOM      7  C   UNL     1     104.012 125.187 147.886  0.00  0.00    +0.000 C 
ATOM      8  C   UNL     1     103.713 124.640 147.345  0.00  0.00    +0.000 A 
ATOM      9  C   UNL     1     104.230 124.193 146.882  0.00  0.00    +0.000 A 
ATOM     10  C   UNL     1     102.862 124.545 147.273  0.00  0.00    +0.000 A 
ATOM     11  C   UNL     1     103.930 123.620 146.316  0.00  0.00    +0.000 A 
ATOM     12  C   UNL     1     102.545 123.977 146.712  0.00  0.00    +0.000 A 
ATOM     13  C   UNL     1     103.083 123.511 146.231  0.00  0.00    +0.000 A 
ENDROOT
BRANCH   5  15
ATOM     14  O   UNL     1     108.605 125.240 147.811  0.00  0.00    +0.000 OA
ATOM     15  C   UNL     1     106.158 124.940 147.578  0.00  0.00    +0.000 A 
ATOM     16  C   UNL     1     106.566 124.556 148.185  0.00  0.00    +0.000 A 
ATOM     17  C   UNL     1     106.567 125.424 147.050  0.00  0.00    +0.000 A 
ATOM     18  C   UNL     1     107.381 124.656 148.263  0.00  0.00    +0.000 A 
ATOM     19  C   UNL     1     107.383 125.524 147.127  0.00  0.00    +0.000 A 
ATOM     20  C   UNL     1     107.789 125.140 147.734  0.00  0.00    +0.000 A 
ENDBRANCH   5  15
BRANCH   6  21
ATOM     21  O   UNL     1     105.126 125.834 148.504  0.00  0.00    +0.000 OA
BRANCH  21  22
ATOM     22  S   UNL     1     104.620 126.378 148.863  0.00  0.00    +0.000 S 
ATOM     23  O   UNL     1     104.114 126.921 149.223  0.00  0.00    +0.000 OA
ATOM     24  O   UNL     1     104.558 125.885 149.522  0.00  0.00    +0.000 OA
ATOM     25  O   UNL     1     104.681 126.871 148.205  0.00  0.00    +0.000 OA
ENDBRANCH  21  22
ENDBRANCH   6  21
TORSDOF 3
ENDMDL
MODEL 9
REMARK VINA RESULT:      -8.1      1.758      3.695
REMARK  Name = 131831902
REMARK  3 active torsions:
REMARK  status: ('A' for Active; 'I' for Inactive)
REMARK    1  A    between atoms: S_1  and  O_3
REMARK    2  A    between atoms: O_3  and  C_12
REMARK    3  A    between atoms: C_11  and  C_14
REMARK                            x       y       z     vdW  Elec       q    Type
REMARK                         _______ _______ _______ _____ _____    ______ ____
ROOT
ATOM      1  O   UNL     1     106.677 126.851 147.097  0.00  0.00    +0.000 OA
ATOM      2  O   UNL     1     105.479 125.778 145.216  0.00  0.00    +0.000 OA
ATOM      3  O   UNL     1     105.181 127.065 144.635  0.00  0.00    +0.000 OA
ATOM      4  O   UNL     1     106.113 129.482 145.982  0.00  0.00    +0.000 OA
ATOM      5  C   UNL     1     106.619 126.029 147.061  0.00  0.00    +0.000 C 
ATOM      6  C   UNL     1     106.219 125.671 146.434  0.00  0.00    +0.000 C 
ATOM      7  C   UNL     1     105.878 126.136 145.843  0.00  0.00    +0.000 C 
ATOM      8  C   UNL     1     105.938 126.958 145.880  0.00  0.00    +0.000 A 
ATOM      9  C   UNL     1     106.337 127.316 146.507  0.00  0.00    +0.000 A 
ATOM     10  C   UNL     1     105.579 127.431 145.258  0.00  0.00    +0.000 A 
ATOM     11  C   UNL     1     106.405 128.171 146.555  0.00  0.00    +0.000 A 
ATOM     12  C   UNL     1     105.637 128.288 145.291  0.00  0.00    +0.000 A 
ATOM     13  C   UNL     1     106.053 128.660 145.943  0.00  0.00    +0.000 A 
ENDROOT
BRANCH   5  15
ATOM     14  O   UNL     1     107.981 124.170 149.423  0.00  0.00    +0.000 OA
ATOM     15  C   UNL     1     106.959 125.565 147.651  0.00  0.00    +0.000 A 
ATOM     16  C   UNL     1     107.748 125.331 147.590  0.00  0.00    +0.000 A 
ATOM     17  C   UNL     1     106.511 125.333 148.304  0.00  0.00    +0.000 A 
ATOM     18  C   UNL     1     108.088 124.867 148.180  0.00  0.00    +0.000 A 
ATOM     19  C   UNL     1     106.851 124.868 148.895  0.00  0.00    +0.000 A 
ATOM     20  C   UNL     1     107.640 124.635 148.832  0.00  0.00    +0.000 A 
ENDBRANCH   5  15
BRANCH   6  21
ATOM     21  O   UNL     1     106.160 124.849 146.397  0.00  0.00    +0.000 OA
BRANCH  21  22
ATOM     22  S   UNL     1     105.887 124.485 145.709  0.00  0.00    +0.000 S 
ATOM     23  O   UNL     1     105.615 124.121 145.020  0.00  0.00    +0.000 OA
ATOM     24  O   UNL     1     105.141 124.399 146.050  0.00  0.00    +0.000 OA
ATOM     25  O   UNL     1     106.634 124.572 145.368  0.00  0.00    +0.000 OA
ENDBRANCH  21  22
ENDBRANCH   6  21
TORSDOF 3
ENDMDL
MODEL 10
REMARK VINA RESULT:      -8.0      8.859     10.369
REMARK  Name = 131831902
REMARK  3 active torsions:
REMARK  status: ('A' for Active; 'I' for Inactive)
REMARK    1  A    between atoms: S_1  and  O_3
REMARK    2  A    between atoms: O_3  and  C_12
REMARK    3  A    between atoms: C_11  and  C_14
REMARK                            x       y       z     vdW  Elec       q    Type
REMARK                         _______ _______ _______ _____ _____    ______ ____
ROOT
ATOM      1  O   UNL     1     111.356 131.828 145.356  0.00  0.00    +0.000 OA
ATOM      2  O   UNL     1     111.891 133.486 143.598  0.00  0.00    +0.000 OA
ATOM      3  O   UNL     1     112.045 132.439 142.618  0.00  0.00    +0.000 OA
ATOM      4  O   UNL     1     111.652 129.662 143.432  0.00  0.00    +0.000 OA
ATOM      5  C   UNL     1     111.372 132.632 145.540  0.00  0.00    +0.000 C 
ATOM      6  C   UNL     1     111.550 133.185 144.954  0.00  0.00    +0.000 C 
ATOM      7  C   UNL     1     111.713 132.933 144.184  0.00  0.00    +0.000 C 
ATOM      8  C   UNL     1     111.697 132.129 144.002  0.00  0.00    +0.000 A 
ATOM      9  C   UNL     1     111.519 131.576 144.588  0.00  0.00    +0.000 A 
ATOM     10  C   UNL     1     111.868 131.879 143.198  0.00  0.00    +0.000 A 
ATOM     11  C   UNL     1     111.500 130.735 144.410  0.00  0.00    +0.000 A 
ATOM     12  C   UNL     1     111.853 131.043 143.001  0.00  0.00    +0.000 A 
ATOM     13  C   UNL     1     111.668 130.467 143.612  0.00  0.00    +0.000 A 
ENDROOT
BRANCH   5  15
ATOM     14  O   UNL     1     110.721 133.640 148.614  0.00  0.00    +0.000 OA
ATOM     15  C   UNL     1     111.209 132.884 146.308  0.00  0.00    +0.000 A 
ATOM     16  C   UNL     1     111.817 132.931 146.864  0.00  0.00    +0.000 A 
ATOM     17  C   UNL     1     110.439 133.089 146.520  0.00  0.00    +0.000 A 
ATOM     18  C   UNL     1     111.654 133.183 147.632  0.00  0.00    +0.000 A 
ATOM     19  C   UNL     1     110.276 133.341 147.289  0.00  0.00    +0.000 A 
ATOM     20  C   UNL     1     110.884 133.387 147.845  0.00  0.00    +0.000 A 
ENDBRANCH   5  15
BRANCH   6  21
ATOM     21  O   UNL     1     111.565 133.989 145.136  0.00  0.00    +0.000 OA
BRANCH  21  22
ATOM     22  S   UNL     1     111.636 134.548 144.533  0.00  0.00    +0.000 S 
ATOM     23  O   UNL     1     111.706 135.107 143.930  0.00  0.00    +0.000 OA
ATOM     24  O   UNL     1     112.451 134.577 144.655  0.00  0.00    +0.000 OA
ATOM     25  O   UNL     1     110.820 134.519 144.411  0.00  0.00    +0.000 OA
ENDBRANCH  21  22
ENDBRANCH   6  21
TORSDOF 3
ENDMDL
