MODEL 1
REMARK VINA RESULT:     -10.0      0.000      0.000
REMARK  Name = 
REMARK  4 active torsions:
REMARK  status: ('A' for Active; 'I' for Inactive)
REMARK    1  A    between atoms: C_15  and  C_21
REMARK    2  A    between atoms: C_19  and  C_30
REMARK    3  A    between atoms: C_20  and  C_23
REMARK    4  A    between atoms: C_33  and  C_35
REMARK                            x       y       z     vdW  Elec       q    Type
REMARK                         _______ _______ _______ _____ _____    ______ ____
ROOT
ATOM      1  O   UNL     1     103.532 130.384 142.487  0.00  0.00    +0.000 OA
ATOM      2  O   UNL     1     105.915 128.217 143.794  0.00  0.00    +0.000 OA
ATOM      3  O   UNL     1     104.412 127.465 140.783  0.00  0.00    +0.000 OA
ATOM      4  O   UNL     1     103.214 128.519 140.088  0.00  0.00    +0.000 OA
ATOM      5  C   UNL     1     105.164 127.841 142.289  0.00  0.00    +0.000 A 
ATOM      6  C   UNL     1     104.731 129.281 143.132  0.00  0.00    +0.000 A 
ATOM      7  C   UNL     1     105.270 128.446 143.071  0.00  0.00    +0.000 A 
ATOM      8  C   UNL     1     104.518 128.070 141.566  0.00  0.00    +0.000 A 
ATOM      9  C   UNL     1     104.086 129.511 142.409  0.00  0.00    +0.000 A 
ATOM     10  C   UNL     1     103.980 128.905 141.627  0.00  0.00    +0.000 A 
ATOM     11  C   UNL     1     103.312 129.131 140.866  0.00  0.00    +0.000 A 
ATOM     12  C   UNL     1     102.858 130.629 141.738  0.00  0.00    +0.000 A 
ATOM     13  C   UNL     1     102.748 129.998 140.922  0.00  0.00    +0.000 A 
ENDROOT
BRANCH   5  18
ATOM     14  O   UNL     1     105.360 126.163 142.632  0.00  0.00    +0.000 OA
ATOM     15  O   UNL     1     106.924 127.858 141.361  0.00  0.00    +0.000 OA
ATOM     16  O   UNL     1     108.001 126.188 141.239  0.00  0.00    +0.000 OA
ATOM     17  O   UNL     1     107.317 124.501 142.047  0.00  0.00    +0.000 OA
ATOM     18  C   UNL     1     105.702 127.006 142.228  0.00  0.00    +0.000 C 
ATOM     19  C   UNL     1     106.583 127.014 141.764  0.00  0.00    +0.000 C 
ATOM     20  C   UNL     1     107.120 126.180 141.704  0.00  0.00    +0.000 C 
ATOM     21  C   UNL     1     106.779 125.336 142.107  0.00  0.00    +0.000 C 
ATOM     22  C   UNL     1     105.899 125.328 142.571  0.00  0.00    +0.000 C 
BRANCH  22  24
ATOM     23  O   UNL     1     105.144 124.499 143.881  0.00  0.00    +0.000 OA
ATOM     24  C   UNL     1     105.556 124.485 142.975  0.00  0.00    +0.000 C 
ENDBRANCH  22  24
ENDBRANCH   5  18
BRANCH   6  29
ATOM     25  O   UNL     1     104.256 129.773 144.715  0.00  0.00    +0.000 OA
ATOM     26  O   UNL     1     106.106 130.720 143.097  0.00  0.00    +0.000 OA
ATOM     27  O   UNL     1     106.319 131.931 144.664  0.00  0.00    +0.000 OA
ATOM     28  O   UNL     1     105.157 131.703 146.263  0.00  0.00    +0.000 OA
ATOM     29  C   UNL     1     104.838 129.887 143.915  0.00  0.00    +0.000 C 
ATOM     30  C   UNL     1     105.525 130.606 143.898  0.00  0.00    +0.000 C 
ATOM     31  C   UNL     1     105.631 131.212 144.680  0.00  0.00    +0.000 C 
ATOM     32  C   UNL     1     105.050 131.098 145.481  0.00  0.00    +0.000 C 
ATOM     33  C   UNL     1     104.363 130.378 145.497  0.00  0.00    +0.000 C 
ENDBRANCH   6  29
BRANCH  12  35
ATOM     34  O   UNL     1     100.710 133.971 141.993  0.00  0.00    +0.000 OA
ATOM     35  C   UNL     1     102.321 131.464 141.802  0.00  0.00    +0.000 A 
ATOM     36  C   UNL     1     102.748 132.345 141.621  0.00  0.00    +0.000 A 
ATOM     37  C   UNL     1     101.358 131.420 142.046  0.00  0.00    +0.000 A 
ATOM     38  C   UNL     1     102.211 133.181 141.685  0.00  0.00    +0.000 A 
ATOM     39  C   UNL     1     100.821 132.256 142.110  0.00  0.00    +0.000 A 
ATOM     40  C   UNL     1     101.247 133.136 141.929  0.00  0.00    +0.000 A 
ENDBRANCH  12  35
TORSDOF 4
ENDMDL
MODEL 2
REMARK VINA RESULT:     -10.0      3.626      6.238
REMARK  Name = 
REMARK  4 active torsions:
REMARK  status: ('A' for Active; 'I' for Inactive)
REMARK    1  A    between atoms: C_15  and  C_21
REMARK    2  A    between atoms: C_19  and  C_30
REMARK    3  A    between atoms: C_20  and  C_23
REMARK    4  A    between atoms: C_33  and  C_35
REMARK                            x       y       z     vdW  Elec       q    Type
REMARK                         _______ _______ _______ _____ _____    ______ ____
ROOT
ATOM      1  O   UNL     1     109.858 128.653 141.753  0.00  0.00    +0.000 OA
ATOM      2  O   UNL     1     106.515 127.709 141.876  0.00  0.00    +0.000 OA
ATOM      3  O   UNL     1     108.925 125.327 141.236  0.00  0.00    +0.000 OA
ATOM      4  O   UNL     1     110.612 125.751 141.165  0.00  0.00    +0.000 OA
ATOM      5  C   UNL     1     107.720 126.518 141.556  0.00  0.00    +0.000 A 
ATOM      6  C   UNL     1     108.178 128.161 141.812  0.00  0.00    +0.000 A 
ATOM      7  C   UNL     1     107.471 127.462 141.748  0.00  0.00    +0.000 A 
ATOM      8  C   UNL     1     108.676 126.272 141.428  0.00  0.00    +0.000 A 
ATOM      9  C   UNL     1     109.134 127.914 141.683  0.00  0.00    +0.000 A 
ATOM     10  C   UNL     1     109.383 126.970 141.492  0.00  0.00    +0.000 A 
ATOM     11  C   UNL     1     110.374 126.699 141.356  0.00  0.00    +0.000 A 
ATOM     12  C   UNL     1     110.855 128.403 141.620  0.00  0.00    +0.000 A 
ATOM     13  C   UNL     1     111.115 127.420 141.420  0.00  0.00    +0.000 A 
ENDROOT
BRANCH   5  18
ATOM     14  O   UNL     1     106.670 125.539 140.601  0.00  0.00    +0.000 OA
ATOM     15  O   UNL     1     106.995 125.682 143.210  0.00  0.00    +0.000 OA
ATOM     16  O   UNL     1     105.582 124.285 143.083  0.00  0.00    +0.000 OA
ATOM     17  O   UNL     1     104.895 123.725 141.300  0.00  0.00    +0.000 OA
ATOM     18  C   UNL     1     107.014 125.820 141.493  0.00  0.00    +0.000 C 
ATOM     19  C   UNL     1     106.651 125.402 142.320  0.00  0.00    +0.000 C 
ATOM     20  C   UNL     1     105.945 124.704 142.255  0.00  0.00    +0.000 C 
ATOM     21  C   UNL     1     105.601 124.423 141.365  0.00  0.00    +0.000 C 
ATOM     22  C   UNL     1     105.964 124.841 140.538  0.00  0.00    +0.000 C 
BRANCH  22  24
ATOM     23  O   UNL     1     105.645 125.197 138.881  0.00  0.00    +0.000 OA
ATOM     24  C   UNL     1     105.620 124.561 139.646  0.00  0.00    +0.000 C 
ENDBRANCH  22  24
ENDBRANCH   5  18
BRANCH   6  29
ATOM     25  O   UNL     1     107.830 129.412 142.945  0.00  0.00    +0.000 OA
ATOM     26  O   UNL     1     107.876 129.434 140.312  0.00  0.00    +0.000 OA
ATOM     27  O   UNL     1     107.377 131.323 140.695  0.00  0.00    +0.000 OA
ATOM     28  O   UNL     1     107.181 131.938 142.578  0.00  0.00    +0.000 OA
ATOM     29  C   UNL     1     107.928 129.105 142.003  0.00  0.00    +0.000 C 
ATOM     30  C   UNL     1     107.777 129.742 141.253  0.00  0.00    +0.000 C 
ATOM     31  C   UNL     1     107.528 130.686 141.445  0.00  0.00    +0.000 C 
ATOM     32  C   UNL     1     107.430 130.994 142.387  0.00  0.00    +0.000 C 
ATOM     33  C   UNL     1     107.581 130.356 143.136  0.00  0.00    +0.000 C 
ENDBRANCH   6  29
BRANCH  12  35
ATOM     34  O   UNL     1     113.671 131.207 141.877  0.00  0.00    +0.000 OA
ATOM     35  C   UNL     1     111.559 129.104 141.685  0.00  0.00    +0.000 A 
ATOM     36  C   UNL     1     112.167 129.271 140.915  0.00  0.00    +0.000 A 
ATOM     37  C   UNL     1     111.656 129.638 142.518  0.00  0.00    +0.000 A 
ATOM     38  C   UNL     1     112.871 129.972 140.979  0.00  0.00    +0.000 A 
ATOM     39  C   UNL     1     112.360 130.339 142.583  0.00  0.00    +0.000 A 
ATOM     40  C   UNL     1     112.967 130.506 141.813  0.00  0.00    +0.000 A 
ENDBRANCH  12  35
TORSDOF 4
ENDMDL
MODEL 3
REMARK VINA RESULT:      -9.7      6.342      9.680
REMARK  Name = 
REMARK  4 active torsions:
REMARK  status: ('A' for Active; 'I' for Inactive)
REMARK    1  A    between atoms: C_15  and  C_21
REMARK    2  A    between atoms: C_19  and  C_30
REMARK    3  A    between atoms: C_20  and  C_23
REMARK    4  A    between atoms: C_33  and  C_35
REMARK                            x       y       z     vdW  Elec       q    Type
REMARK                         _______ _______ _______ _____ _____    ______ ____
ROOT
ATOM      1  O   UNL     1     112.277 126.969 139.666  0.00  0.00    +0.000 OA
ATOM      2  O   UNL     1     110.253 128.655 141.934  0.00  0.00    +0.000 OA
ATOM      3  O   UNL     1     113.601 129.455 141.730  0.00  0.00    +0.000 OA
ATOM      4  O   UNL     1     114.654 128.639 140.611  0.00  0.00    +0.000 OA
ATOM      5  C   UNL     1     111.927 129.055 141.832  0.00  0.00    +0.000 A 
ATOM      6  C   UNL     1     111.270 127.828 140.814  0.00  0.00    +0.000 A 
ATOM      7  C   UNL     1     111.150 128.513 141.527  0.00  0.00    +0.000 A 
ATOM      8  C   UNL     1     112.824 128.913 141.425  0.00  0.00    +0.000 A 
ATOM      9  C   UNL     1     112.168 127.686 140.407  0.00  0.00    +0.000 A 
ATOM     10  C   UNL     1     112.944 128.228 140.712  0.00  0.00    +0.000 A 
ATOM     11  C   UNL     1     113.885 128.091 140.298  0.00  0.00    +0.000 A 
ATOM     12  C   UNL     1     113.208 126.816 139.238  0.00  0.00    +0.000 A 
ATOM     13  C   UNL     1     114.017 127.380 139.556  0.00  0.00    +0.000 A 
ENDROOT
BRANCH   5  18
ATOM     14  O   UNL     1     111.817 129.467 143.502  0.00  0.00    +0.000 OA
ATOM     15  O   UNL     1     111.666 130.966 141.343  0.00  0.00    +0.000 OA
ATOM     16  O   UNL     1     111.425 132.335 142.768  0.00  0.00    +0.000 OA
ATOM     17  O   UNL     1     111.447 131.791 144.683  0.00  0.00    +0.000 OA
ATOM     18  C   UNL     1     111.807 129.739 142.545  0.00  0.00    +0.000 C 
ATOM     19  C   UNL     1     111.676 130.695 142.300  0.00  0.00    +0.000 C 
ATOM     20  C   UNL     1     111.556 131.379 143.013  0.00  0.00    +0.000 C 
ATOM     21  C   UNL     1     111.567 131.108 143.970  0.00  0.00    +0.000 C 
ATOM     22  C   UNL     1     111.697 130.152 144.215  0.00  0.00    +0.000 C 
BRANCH  22  24
ATOM     23  O   UNL     1     111.634 128.918 145.417  0.00  0.00    +0.000 OA
ATOM     24  C   UNL     1     111.708 129.880 145.173  0.00  0.00    +0.000 C 
ENDBRANCH  22  24
ENDBRANCH   5  18
BRANCH   6  29
ATOM     25  O   UNL     1     109.929 127.606 139.754  0.00  0.00    +0.000 OA
ATOM     26  O   UNL     1     110.846 126.103 141.713  0.00  0.00    +0.000 OA
ATOM     27  O   UNL     1     109.292 125.018 141.102  0.00  0.00    +0.000 OA
ATOM     28  O   UNL     1     108.164 125.659 139.593  0.00  0.00    +0.000 OA
ATOM     29  C   UNL     1     110.494 127.286 140.509  0.00  0.00    +0.000 C 
ATOM     30  C   UNL     1     110.281 126.423 140.958  0.00  0.00    +0.000 C 
ATOM     31  C   UNL     1     109.505 125.881 140.653  0.00  0.00    +0.000 C 
ATOM     32  C   UNL     1     108.940 126.201 139.898  0.00  0.00    +0.000 C 
ATOM     33  C   UNL     1     109.153 127.064 139.449  0.00  0.00    +0.000 C 
ENDBRANCH   6  29
BRANCH  12  35
ATOM     34  O   UNL     1     113.674 124.074 136.389  0.00  0.00    +0.000 OA
ATOM     35  C   UNL     1     113.325 126.130 138.525  0.00  0.00    +0.000 A 
ATOM     36  C   UNL     1     114.235 125.795 138.301  0.00  0.00    +0.000 A 
ATOM     37  C   UNL     1     112.532 125.779 138.037  0.00  0.00    +0.000 A 
ATOM     38  C   UNL     1     114.351 125.110 137.588  0.00  0.00    +0.000 A 
ATOM     39  C   UNL     1     112.648 125.094 137.325  0.00  0.00    +0.000 A 
ATOM     40  C   UNL     1     113.558 124.759 137.101  0.00  0.00    +0.000 A 
ENDBRANCH  12  35
TORSDOF 4
ENDMDL
MODEL 4
REMARK VINA RESULT:      -9.7      6.591     10.225
REMARK  Name = 
REMARK  4 active torsions:
REMARK  status: ('A' for Active; 'I' for Inactive)
REMARK    1  A    between atoms: C_15  and  C_21
REMARK    2  A    between atoms: C_19  and  C_30
REMARK    3  A    between atoms: C_20  and  C_23
REMARK    4  A    between atoms: C_33  and  C_35
REMARK                            x       y       z     vdW  Elec       q    Type
REMARK                         _______ _______ _______ _____ _____    ______ ____
ROOT
ATOM      1  O   UNL     1     112.648 127.725 138.793  0.00  0.00    +0.000 OA
ATOM      2  O   UNL     1     111.437 130.810 139.841  0.00  0.00    +0.000 OA
ATOM      3  O   UNL     1     112.542 128.538 142.188  0.00  0.00    +0.000 OA
ATOM      4  O   UNL     1     113.156 126.981 141.712  0.00  0.00    +0.000 OA
ATOM      5  C   UNL     1     111.989 129.674 141.015  0.00  0.00    +0.000 A 
ATOM      6  C   UNL     1     112.041 129.276 139.338  0.00  0.00    +0.000 A 
ATOM      7  C   UNL     1     111.823 129.920 140.065  0.00  0.00    +0.000 A 
ATOM      8  C   UNL     1     112.375 128.784 141.238  0.00  0.00    +0.000 A 
ATOM      9  C   UNL     1     112.426 128.386 139.562  0.00  0.00    +0.000 A 
ATOM     10  C   UNL     1     112.593 128.140 140.511  0.00  0.00    +0.000 A 
ATOM     11  C   UNL     1     112.994 127.216 140.759  0.00  0.00    +0.000 A 
ATOM     12  C   UNL     1     113.049 126.797 139.018  0.00  0.00    +0.000 A 
ATOM     13  C   UNL     1     113.223 126.540 140.008  0.00  0.00    +0.000 A 
ENDROOT
BRANCH   5  18
ATOM     14  O   UNL     1     110.862 130.322 142.146  0.00  0.00    +0.000 OA
ATOM     15  O   UNL     1     113.371 130.954 141.659  0.00  0.00    +0.000 OA
ATOM     16  O   UNL     1     112.934 132.242 143.113  0.00  0.00    +0.000 OA
ATOM     17  O   UNL     1     111.115 132.249 143.922  0.00  0.00    +0.000 OA
ATOM     18  C   UNL     1     111.771 130.318 141.742  0.00  0.00    +0.000 C 
ATOM     19  C   UNL     1     112.462 130.958 142.064  0.00  0.00    +0.000 C 
ATOM     20  C   UNL     1     112.243 131.602 142.790  0.00  0.00    +0.000 C 
ATOM     21  C   UNL     1     111.334 131.606 143.195  0.00  0.00    +0.000 C 
ATOM     22  C   UNL     1     110.643 130.966 142.873  0.00  0.00    +0.000 C 
BRANCH  22  24
ATOM     23  O   UNL     1     108.929 130.970 142.692  0.00  0.00    +0.000 OA
ATOM     24  C   UNL     1     109.734 130.970 143.278  0.00  0.00    +0.000 C 
ENDBRANCH  22  24
ENDBRANCH   5  18
BRANCH   6  29
ATOM     25  O   UNL     1     111.005 129.292 137.960  0.00  0.00    +0.000 OA
ATOM     26  O   UNL     1     113.444 130.227 138.295  0.00  0.00    +0.000 OA
ATOM     27  O   UNL     1     113.110 130.719 136.395  0.00  0.00    +0.000 OA
ATOM     28  O   UNL     1     111.373 130.260 135.539  0.00  0.00    +0.000 OA
ATOM     29  C   UNL     1     111.874 129.522 138.388  0.00  0.00    +0.000 C 
ATOM     30  C   UNL     1     112.576 129.998 137.866  0.00  0.00    +0.000 C 
ATOM     31  C   UNL     1     112.409 130.244 136.917  0.00  0.00    +0.000 C 
ATOM     32  C   UNL     1     111.540 130.014 136.488  0.00  0.00    +0.000 C 
ATOM     33  C   UNL     1     110.838 129.538 137.010  0.00  0.00    +0.000 C 
ENDBRANCH   6  29
BRANCH  12  35
ATOM     34  O   UNL     1     113.917 124.230 136.101  0.00  0.00    +0.000 OA
ATOM     35  C   UNL     1     113.266 126.155 138.289  0.00  0.00    +0.000 A 
ATOM     36  C   UNL     1     112.555 125.857 137.660  0.00  0.00    +0.000 A 
ATOM     37  C   UNL     1     114.195 125.811 138.188  0.00  0.00    +0.000 A 
ATOM     38  C   UNL     1     112.772 125.215 136.931  0.00  0.00    +0.000 A 
ATOM     39  C   UNL     1     114.411 125.170 137.459  0.00  0.00    +0.000 A 
ATOM     40  C   UNL     1     113.700 124.872 136.831  0.00  0.00    +0.000 A 
ENDBRANCH  12  35
TORSDOF 4
ENDMDL
MODEL 5
REMARK VINA RESULT:      -9.7      6.454     10.009
REMARK  Name = 
REMARK  4 active torsions:
REMARK  status: ('A' for Active; 'I' for Inactive)
REMARK    1  A    between atoms: C_15  and  C_21
REMARK    2  A    between atoms: C_19  and  C_30
REMARK    3  A    between atoms: C_20  and  C_23
REMARK    4  A    between atoms: C_33  and  C_35
REMARK                            x       y       z     vdW  Elec       q    Type
REMARK                         _______ _______ _______ _____ _____    ______ ____
ROOT
ATOM      1  O   UNL     1     112.851 127.896 138.835  0.00  0.00    +0.000 OA
ATOM      2  O   UNL     1     111.772 130.876 140.264  0.00  0.00    +0.000 OA
ATOM      3  O   UNL     1     111.058 127.889 141.832  0.00  0.00    +0.000 OA
ATOM      4  O   UNL     1     111.576 126.372 141.156  0.00  0.00    +0.000 OA
ATOM      5  C   UNL     1     111.415 129.382 141.048  0.00  0.00    +0.000 A 
ATOM      6  C   UNL     1     112.300 129.389 139.569  0.00  0.00    +0.000 A 
ATOM      7  C   UNL     1     111.829 129.882 140.294  0.00  0.00    +0.000 A 
ATOM      8  C   UNL     1     111.472 128.389 141.078  0.00  0.00    +0.000 A 
ATOM      9  C   UNL     1     112.356 128.396 139.598  0.00  0.00    +0.000 A 
ATOM     10  C   UNL     1     111.942 127.896 140.353  0.00  0.00    +0.000 A 
ATOM     11  C   UNL     1     111.994 126.861 140.397  0.00  0.00    +0.000 A 
ATOM     12  C   UNL     1     112.913 126.862 138.860  0.00  0.00    +0.000 A 
ATOM     13  C   UNL     1     112.482 126.341 139.646  0.00  0.00    +0.000 A 
ENDROOT
BRANCH   5  18
ATOM     14  O   UNL     1     109.974 130.082 141.686  0.00  0.00    +0.000 OA
ATOM     15  O   UNL     1     112.412 129.956 142.672  0.00  0.00    +0.000 OA
ATOM     16  O   UNL     1     111.470 130.942 144.123  0.00  0.00    +0.000 OA
ATOM     17  O   UNL     1     109.530 131.354 143.948  0.00  0.00    +0.000 OA
ATOM     18  C   UNL     1     110.944 129.876 141.773  0.00  0.00    +0.000 C 
ATOM     19  C   UNL     1     111.442 130.162 142.585  0.00  0.00    +0.000 C 
ATOM     20  C   UNL     1     110.971 130.655 143.310  0.00  0.00    +0.000 C 
ATOM     21  C   UNL     1     110.001 130.862 143.223  0.00  0.00    +0.000 C 
ATOM     22  C   UNL     1     109.503 130.575 142.411  0.00  0.00    +0.000 C 
BRANCH  22  24
ATOM     23  O   UNL     1     108.173 131.124 141.461  0.00  0.00    +0.000 OA
ATOM     24  C   UNL     1     108.533 130.781 142.324  0.00  0.00    +0.000 C 
ENDBRANCH  22  24
ENDBRANCH   5  18
BRANCH   6  29
ATOM     25  O   UNL     1     113.665 130.178 138.871  0.00  0.00    +0.000 OA
ATOM     26  O   UNL     1     111.226 129.812 137.947  0.00  0.00    +0.000 OA
ATOM     27  O   UNL     1     112.054 130.812 136.438  0.00  0.00    +0.000 OA
ATOM     28  O   UNL     1     113.956 131.389 136.551  0.00  0.00    +0.000 OA
ATOM     29  C   UNL     1     112.714 129.889 138.814  0.00  0.00    +0.000 C 
ATOM     30  C   UNL     1     112.177 130.101 138.003  0.00  0.00    +0.000 C 
ATOM     31  C   UNL     1     112.591 130.600 137.249  0.00  0.00    +0.000 C 
ATOM     32  C   UNL     1     113.542 130.889 137.305  0.00  0.00    +0.000 C 
ATOM     33  C   UNL     1     114.079 130.678 138.117  0.00  0.00    +0.000 C 
ENDBRANCH   6  29
BRANCH  12  35
ATOM     34  O   UNL     1     114.800 124.902 135.953  0.00  0.00    +0.000 OA
ATOM     35  C   UNL     1     113.385 126.372 138.133  0.00  0.00    +0.000 A 
ATOM     36  C   UNL     1     114.133 125.754 138.353  0.00  0.00    +0.000 A 
ATOM     37  C   UNL     1     113.109 126.500 137.186  0.00  0.00    +0.000 A 
ATOM     38  C   UNL     1     114.604 125.264 137.627  0.00  0.00    +0.000 A 
ATOM     39  C   UNL     1     113.581 126.010 136.459  0.00  0.00    +0.000 A 
ATOM     40  C   UNL     1     114.328 125.392 136.679  0.00  0.00    +0.000 A 
ENDBRANCH  12  35
TORSDOF 4
ENDMDL
MODEL 6
REMARK VINA RESULT:      -9.6      6.973      9.690
REMARK  Name = 
REMARK  4 active torsions:
REMARK  status: ('A' for Active; 'I' for Inactive)
REMARK    1  A    between atoms: C_15  and  C_21
REMARK    2  A    between atoms: C_19  and  C_30
REMARK    3  A    between atoms: C_20  and  C_23
REMARK    4  A    between atoms: C_33  and  C_35
REMARK                            x       y       z     vdW  Elec       q    Type
REMARK                         _______ _______ _______ _____ _____    ______ ____
ROOT
ATOM      1  O   UNL     1     112.672 130.153 138.776  0.00  0.00    +0.000 OA
ATOM      2  O   UNL     1     110.355 130.479 141.348  0.00  0.00    +0.000 OA
ATOM      3  O   UNL     1     113.717 130.778 142.049  0.00  0.00    +0.000 OA
ATOM      4  O   UNL     1     114.915 130.622 140.796  0.00  0.00    +0.000 OA
ATOM      5  C   UNL     1     112.036 130.628 141.699  0.00  0.00    +0.000 A 
ATOM      6  C   UNL     1     111.517 130.320 140.084  0.00  0.00    +0.000 A 
ATOM      7  C   UNL     1     111.303 130.476 141.044  0.00  0.00    +0.000 A 
ATOM      8  C   UNL     1     112.984 130.625 141.394  0.00  0.00    +0.000 A 
ATOM      9  C   UNL     1     112.465 130.317 139.780  0.00  0.00    +0.000 A 
ATOM     10  C   UNL     1     113.198 130.469 140.435  0.00  0.00    +0.000 A 
ATOM     11  C   UNL     1     114.190 130.469 140.133  0.00  0.00    +0.000 A 
ATOM     12  C   UNL     1     113.656 130.149 138.453  0.00  0.00    +0.000 A 
ATOM     13  C   UNL     1     114.420 130.308 139.136  0.00  0.00    +0.000 A 
ENDROOT
BRANCH   5  18
ATOM     14  O   UNL     1     111.813 130.020 143.296  0.00  0.00    +0.000 OA
ATOM     15  O   UNL     1     111.627 132.466 142.342  0.00  0.00    +0.000 OA
ATOM     16  O   UNL     1     111.199 132.778 144.261  0.00  0.00    +0.000 OA
ATOM     17  O   UNL     1     111.181 131.249 145.537  0.00  0.00    +0.000 OA
ATOM     18  C   UNL     1     111.822 130.784 142.658  0.00  0.00    +0.000 C 
ATOM     19  C   UNL     1     111.618 131.703 142.980  0.00  0.00    +0.000 C 
ATOM     20  C   UNL     1     111.404 131.858 143.939  0.00  0.00    +0.000 C 
ATOM     21  C   UNL     1     111.395 131.094 144.577  0.00  0.00    +0.000 C 
ATOM     22  C   UNL     1     111.599 130.175 144.256  0.00  0.00    +0.000 C 
BRANCH  22  24
ATOM     23  O   UNL     1     111.592 128.477 144.550  0.00  0.00    +0.000 OA
ATOM     24  C   UNL     1     111.590 129.411 144.894  0.00  0.00    +0.000 C 
ENDBRANCH  22  24
ENDBRANCH   5  18
BRANCH   6  29
ATOM     25  O   UNL     1     110.484 129.241 139.223  0.00  0.00    +0.000 OA
ATOM     26  O   UNL     1     110.647 131.869 139.185  0.00  0.00    +0.000 OA
ATOM     27  O   UNL     1     109.180 131.564 137.875  0.00  0.00    +0.000 OA
ATOM     28  O   UNL     1     108.583 129.710 137.463  0.00  0.00    +0.000 OA
ATOM     29  C   UNL     1     110.783 130.168 139.429  0.00  0.00    +0.000 C 
ATOM     30  C   UNL     1     110.348 130.942 138.979  0.00  0.00    +0.000 C 
ATOM     31  C   UNL     1     109.615 130.789 138.324  0.00  0.00    +0.000 C 
ATOM     32  C   UNL     1     109.316 129.863 138.118  0.00  0.00    +0.000 C 
ATOM     33  C   UNL     1     109.751 129.088 138.568  0.00  0.00    +0.000 C 
ENDBRANCH   6  29
BRANCH  12  35
ATOM     34  O   UNL     1     114.497 129.525 134.612  0.00  0.00    +0.000 OA
ATOM     35  C   UNL     1     113.866 129.993 137.493  0.00  0.00    +0.000 A 
ATOM     36  C   UNL     1     113.564 129.156 137.046  0.00  0.00    +0.000 A 
ATOM     37  C   UNL     1     114.379 130.673 136.978  0.00  0.00    +0.000 A 
ATOM     38  C   UNL     1     113.774 129.000 136.086  0.00  0.00    +0.000 A 
ATOM     39  C   UNL     1     114.589 130.517 136.018  0.00  0.00    +0.000 A 
ATOM     40  C   UNL     1     114.287 129.681 135.572  0.00  0.00    +0.000 A 
ENDBRANCH  12  35
TORSDOF 4
ENDMDL
MODEL 7
REMARK VINA RESULT:      -9.6      6.213      9.143
REMARK  Name = 
REMARK  4 active torsions:
REMARK  status: ('A' for Active; 'I' for Inactive)
REMARK    1  A    between atoms: C_15  and  C_21
REMARK    2  A    between atoms: C_19  and  C_30
REMARK    3  A    between atoms: C_20  and  C_23
REMARK    4  A    between atoms: C_33  and  C_35
REMARK                            x       y       z     vdW  Elec       q    Type
REMARK                         _______ _______ _______ _____ _____    ______ ____
ROOT
ATOM      1  O   UNL     1     111.629 129.723 137.625  0.00  0.00    +0.000 OA
ATOM      2  O   UNL     1     108.435 130.185 138.916  0.00  0.00    +0.000 OA
ATOM      3  O   UNL     1     111.011 129.323 141.039  0.00  0.00    +0.000 OA
ATOM      4  O   UNL     1     112.627 129.081 140.440  0.00  0.00    +0.000 OA
ATOM      5  C   UNL     1     109.723 129.754 139.977  0.00  0.00    +0.000 A 
ATOM      6  C   UNL     1     110.025 129.952 138.292  0.00  0.00    +0.000 A 
ATOM      7  C   UNL     1     109.394 129.963 139.062  0.00  0.00    +0.000 A 
ATOM      8  C   UNL     1     110.683 129.532 140.123  0.00  0.00    +0.000 A 
ATOM      9  C   UNL     1     110.984 129.731 138.438  0.00  0.00    +0.000 A 
ATOM     10  C   UNL     1     111.313 129.521 139.353  0.00  0.00    +0.000 A 
ATOM     11  C   UNL     1     112.310 129.289 139.520  0.00  0.00    +0.000 A 
ATOM     12  C   UNL     1     112.629 129.493 137.770  0.00  0.00    +0.000 A 
ATOM     13  C   UNL     1     112.972 129.275 138.724  0.00  0.00    +0.000 A 
ENDROOT
BRANCH   5  18
ATOM     14  O   UNL     1     108.609 128.935 141.007  0.00  0.00    +0.000 OA
ATOM     15  O   UNL     1     109.430 131.436 141.000  0.00  0.00    +0.000 OA
ATOM     16  O   UNL     1     108.170 131.459 142.540  0.00  0.00    +0.000 OA
ATOM     17  O   UNL     1     107.202 129.798 143.058  0.00  0.00    +0.000 OA
ATOM     18  C   UNL     1     109.093 129.765 140.748  0.00  0.00    +0.000 C 
ATOM     19  C   UNL     1     108.946 130.606 141.259  0.00  0.00    +0.000 C 
ATOM     20  C   UNL     1     108.316 130.617 142.029  0.00  0.00    +0.000 C 
ATOM     21  C   UNL     1     107.832 129.787 142.288  0.00  0.00    +0.000 C 
ATOM     22  C   UNL     1     107.978 128.946 141.777  0.00  0.00    +0.000 C 
BRANCH  22  24
ATOM     23  O   UNL     1     107.301 127.418 141.352  0.00  0.00    +0.000 OA
ATOM     24  C   UNL     1     107.494 128.115 142.036  0.00  0.00    +0.000 C 
ENDBRANCH  22  24
ENDBRANCH   5  18
BRANCH   6  29
ATOM     25  O   UNL     1     109.776 131.087 137.018  0.00  0.00    +0.000 OA
ATOM     26  O   UNL     1     109.206 128.521 137.177  0.00  0.00    +0.000 OA
ATOM     27  O   UNL     1     108.548 128.940 135.345  0.00  0.00    +0.000 OA
ATOM     28  O   UNL     1     108.709 130.791 134.629  0.00  0.00    +0.000 OA
ATOM     29  C   UNL     1     109.696 130.162 137.376  0.00  0.00    +0.000 C 
ATOM     30  C   UNL     1     109.286 129.446 136.818  0.00  0.00    +0.000 C 
ATOM     31  C   UNL     1     108.957 129.656 135.903  0.00  0.00    +0.000 C 
ATOM     32  C   UNL     1     109.038 130.581 135.545  0.00  0.00    +0.000 C 
ATOM     33  C   UNL     1     109.447 131.296 136.103  0.00  0.00    +0.000 C 
ENDBRANCH   6  29
BRANCH  12  35
ATOM     34  O   UNL     1     115.139 129.451 134.680  0.00  0.00    +0.000 OA
ATOM     35  C   UNL     1     113.257 129.483 136.997  0.00  0.00    +0.000 A 
ATOM     36  C   UNL     1     113.306 128.683 136.406  0.00  0.00    +0.000 A 
ATOM     37  C   UNL     1     113.835 130.272 136.815  0.00  0.00    +0.000 A 
ATOM     38  C   UNL     1     113.933 128.673 135.634  0.00  0.00    +0.000 A 
ATOM     39  C   UNL     1     114.463 130.261 136.042  0.00  0.00    +0.000 A 
ATOM     40  C   UNL     1     114.512 129.462 135.452  0.00  0.00    +0.000 A 
ENDBRANCH  12  35
TORSDOF 4
ENDMDL
MODEL 8
REMARK VINA RESULT:      -9.5      5.772      9.309
REMARK  Name = 
REMARK  4 active torsions:
REMARK  status: ('A' for Active; 'I' for Inactive)
REMARK    1  A    between atoms: C_15  and  C_21
REMARK    2  A    between atoms: C_19  and  C_30
REMARK    3  A    between atoms: C_20  and  C_23
REMARK    4  A    between atoms: C_33  and  C_35
REMARK                            x       y       z     vdW  Elec       q    Type
REMARK                         _______ _______ _______ _____ _____    ______ ____
ROOT
ATOM      1  O   UNL     1     112.418 127.412 138.913  0.00  0.00    +0.000 OA
ATOM      2  O   UNL     1     111.156 129.589 141.311  0.00  0.00    +0.000 OA
ATOM      3  O   UNL     1     109.081 127.210 139.923  0.00  0.00    +0.000 OA
ATOM      4  O   UNL     1     109.667 126.098 138.719  0.00  0.00    +0.000 OA
ATOM      5  C   UNL     1     110.119 128.400 140.617  0.00  0.00    +0.000 A 
ATOM      6  C   UNL     1     111.766 128.502 140.120  0.00  0.00    +0.000 A 
ATOM      7  C   UNL     1     111.013 128.830 140.683  0.00  0.00    +0.000 A 
ATOM      8  C   UNL     1     109.976 127.641 139.989  0.00  0.00    +0.000 A 
ATOM      9  C   UNL     1     111.624 127.743 139.492  0.00  0.00    +0.000 A 
ATOM     10  C   UNL     1     110.729 127.312 139.426  0.00  0.00    +0.000 A 
ATOM     11  C   UNL     1     110.566 126.521 138.777  0.00  0.00    +0.000 A 
ATOM     12  C   UNL     1     112.277 126.622 138.257  0.00  0.00    +0.000 A 
ATOM     13  C   UNL     1     111.344 126.174 138.188  0.00  0.00    +0.000 A 
ENDROOT
BRANCH   5  18
ATOM     14  O   UNL     1     108.795 129.478 140.859  0.00  0.00    +0.000 OA
ATOM     15  O   UNL     1     109.754 127.557 142.383  0.00  0.00    +0.000 OA
ATOM     16  O   UNL     1     108.248 128.213 143.508  0.00  0.00    +0.000 OA
ATOM     17  O   UNL     1     107.107 129.713 142.865  0.00  0.00    +0.000 OA
ATOM     18  C   UNL     1     109.366 128.728 141.180  0.00  0.00    +0.000 C 
ATOM     19  C   UNL     1     109.183 128.307 142.062  0.00  0.00    +0.000 C 
ATOM     20  C   UNL     1     108.431 128.635 142.624  0.00  0.00    +0.000 C 
ATOM     21  C   UNL     1     107.860 129.385 142.304  0.00  0.00    +0.000 C 
ATOM     22  C   UNL     1     108.042 129.806 141.421  0.00  0.00    +0.000 C 
BRANCH  22  24
ATOM     23  O   UNL     1     107.704 131.032 140.257  0.00  0.00    +0.000 OA
ATOM     24  C   UNL     1     107.472 130.556 141.100  0.00  0.00    +0.000 C 
ENDBRANCH  22  24
ENDBRANCH   5  18
BRANCH   6  29
ATOM     25  O   UNL     1     113.338 128.578 140.824  0.00  0.00    +0.000 OA
ATOM     26  O   UNL     1     112.202 130.071 138.976  0.00  0.00    +0.000 OA
ATOM     27  O   UNL     1     113.993 130.932 139.107  0.00  0.00    +0.000 OA
ATOM     28  O   UNL     1     115.346 130.223 140.383  0.00  0.00    +0.000 OA
ATOM     29  C   UNL     1     112.661 128.932 140.186  0.00  0.00    +0.000 C 
ATOM     30  C   UNL     1     112.880 129.717 139.614  0.00  0.00    +0.000 C 
ATOM     31  C   UNL     1     113.774 130.147 139.680  0.00  0.00    +0.000 C 
ATOM     32  C   UNL     1     114.452 129.793 140.318  0.00  0.00    +0.000 C 
ATOM     33  C   UNL     1     114.233 129.008 140.890  0.00  0.00    +0.000 C 
ENDBRANCH   6  29
BRANCH  12  35
ATOM     34  O   UNL     1     115.296 125.320 136.013  0.00  0.00    +0.000 OA
ATOM     35  C   UNL     1     113.031 126.297 137.696  0.00  0.00    +0.000 A 
ATOM     36  C   UNL     1     113.552 125.497 137.978  0.00  0.00    +0.000 A 
ATOM     37  C   UNL     1     113.266 126.770 136.853  0.00  0.00    +0.000 A 
ATOM     38  C   UNL     1     114.307 125.171 137.417  0.00  0.00    +0.000 A 
ATOM     39  C   UNL     1     114.021 126.445 136.292  0.00  0.00    +0.000 A 
ATOM     40  C   UNL     1     114.541 125.645 136.574  0.00  0.00    +0.000 A 
ENDBRANCH  12  35
TORSDOF 4
ENDMDL
MODEL 9
REMARK VINA RESULT:      -9.5      6.115      9.378
REMARK  Name = 
REMARK  4 active torsions:
REMARK  status: ('A' for Active; 'I' for Inactive)
REMARK    1  A    between atoms: C_15  and  C_21
REMARK    2  A    between atoms: C_19  and  C_30
REMARK    3  A    between atoms: C_20  and  C_23
REMARK    4  A    between atoms: C_33  and  C_35
REMARK                            x       y       z     vdW  Elec       q    Type
REMARK                         _______ _______ _______ _____ _____    ______ ____
ROOT
ATOM      1  O   UNL     1     112.009 129.580 140.648  0.00  0.00    +0.000 OA
ATOM      2  O   UNL     1     110.298 131.189 143.211  0.00  0.00    +0.000 OA
ATOM      3  O   UNL     1     113.643 131.866 142.722  0.00  0.00    +0.000 OA
ATOM      4  O   UNL     1     114.542 131.086 141.452  0.00  0.00    +0.000 OA
ATOM      5  C   UNL     1     111.971 131.527 142.967  0.00  0.00    +0.000 A 
ATOM      6  C   UNL     1     111.161 130.399 141.945  0.00  0.00    +0.000 A 
ATOM      7  C   UNL     1     111.144 131.038 142.708  0.00  0.00    +0.000 A 
ATOM      8  C   UNL     1     112.816 131.377 142.463  0.00  0.00    +0.000 A 
ATOM      9  C   UNL     1     112.006 130.249 141.441  0.00  0.00    +0.000 A 
ATOM     10  C   UNL     1     112.834 130.738 141.700  0.00  0.00    +0.000 A 
ATOM     11  C   UNL     1     113.721 130.591 141.184  0.00  0.00    +0.000 A 
ATOM     12  C   UNL     1     112.885 129.419 140.119  0.00  0.00    +0.000 A 
ATOM     13  C   UNL     1     113.747 129.928 140.389  0.00  0.00    +0.000 A 
ENDROOT
BRANCH   5  18
ATOM     14  O   UNL     1     112.104 131.838 144.657  0.00  0.00    +0.000 OA
ATOM     15  O   UNL     1     111.635 133.461 142.638  0.00  0.00    +0.000 OA
ATOM     16  O   UNL     1     111.600 134.739 144.164  0.00  0.00    +0.000 OA
ATOM     17  O   UNL     1     111.902 134.082 146.019  0.00  0.00    +0.000 OA
ATOM     18  C   UNL     1     111.953 132.166 143.729  0.00  0.00    +0.000 C 
ATOM     19  C   UNL     1     111.786 133.133 143.565  0.00  0.00    +0.000 C 
ATOM     20  C   UNL     1     111.768 133.772 144.328  0.00  0.00    +0.000 C 
ATOM     21  C   UNL     1     111.919 133.444 145.256  0.00  0.00    +0.000 C 
ATOM     22  C   UNL     1     112.087 132.477 145.420  0.00  0.00    +0.000 C 
BRANCH  22  24
ATOM     23  O   UNL     1     112.593 131.231 146.498  0.00  0.00    +0.000 OA
ATOM     24  C   UNL     1     112.238 132.149 146.348  0.00  0.00    +0.000 C 
ENDBRANCH  22  24
ENDBRANCH   5  18
BRANCH   6  29
ATOM     25  O   UNL     1     110.151 129.007 142.061  0.00  0.00    +0.000 OA
ATOM     26  O   UNL     1     109.870 131.229 140.677  0.00  0.00    +0.000 OA
ATOM     27  O   UNL     1     108.215 130.252 140.159  0.00  0.00    +0.000 OA
ATOM     28  O   UNL     1     107.851 128.444 140.909  0.00  0.00    +0.000 OA
ATOM     29  C   UNL     1     110.334 129.911 141.686  0.00  0.00    +0.000 C 
ATOM     30  C   UNL     1     109.688 130.325 141.052  0.00  0.00    +0.000 C 
ATOM     31  C   UNL     1     108.861 129.837 140.793  0.00  0.00    +0.000 C 
ATOM     32  C   UNL     1     108.679 128.933 141.168  0.00  0.00    +0.000 C 
ATOM     33  C   UNL     1     109.324 128.518 141.802  0.00  0.00    +0.000 C 
ENDBRANCH   6  29
BRANCH  12  35
ATOM     34  O   UNL     1     112.941 126.859 137.070  0.00  0.00    +0.000 OA
ATOM     35  C   UNL     1     112.899 128.779 139.357  0.00  0.00    +0.000 A 
ATOM     36  C   UNL     1     113.050 127.809 139.524  0.00  0.00    +0.000 A 
ATOM     37  C   UNL     1     112.762 129.108 138.428  0.00  0.00    +0.000 A 
ATOM     38  C   UNL     1     113.064 127.170 138.761  0.00  0.00    +0.000 A 
ATOM     39  C   UNL     1     112.776 128.468 137.666  0.00  0.00    +0.000 A 
ATOM     40  C   UNL     1     112.927 127.499 137.833  0.00  0.00    +0.000 A 
ENDBRANCH  12  35
TORSDOF 4
ENDMDL
MODEL 10
REMARK VINA RESULT:      -9.4      6.155      8.826
REMARK  Name = 
REMARK  4 active torsions:
REMARK  status: ('A' for Active; 'I' for Inactive)
REMARK    1  A    between atoms: C_15  and  C_21
REMARK    2  A    between atoms: C_19  and  C_30
REMARK    3  A    between atoms: C_20  and  C_23
REMARK    4  A    between atoms: C_33  and  C_35
REMARK                            x       y       z     vdW  Elec       q    Type
REMARK                         _______ _______ _______ _____ _____    ______ ____
ROOT
ATOM      1  O   UNL     1     111.958 129.446 137.788  0.00  0.00    +0.000 OA
ATOM      2  O   UNL     1     108.980 129.495 139.581  0.00  0.00    +0.000 OA
ATOM      3  O   UNL     1     111.330 127.067 140.267  0.00  0.00    +0.000 OA
ATOM      4  O   UNL     1     112.836 127.001 139.396  0.00  0.00    +0.000 OA
ATOM      5  C   UNL     1     110.155 128.281 139.924  0.00  0.00    +0.000 A 
ATOM      6  C   UNL     1     110.462 129.457 138.701  0.00  0.00    +0.000 A 
ATOM      7  C   UNL     1     109.866 129.078 139.402  0.00  0.00    +0.000 A 
ATOM      8  C   UNL     1     111.041 127.863 139.745  0.00  0.00    +0.000 A 
ATOM      9  C   UNL     1     111.348 129.039 138.522  0.00  0.00    +0.000 A 
ATOM     10  C   UNL     1     111.637 128.243 139.044  0.00  0.00    +0.000 A 
ATOM     11  C   UNL     1     112.557 127.797 138.868  0.00  0.00    +0.000 A 
ATOM     12  C   UNL     1     112.881 129.016 137.597  0.00  0.00    +0.000 A 
ATOM     13  C   UNL     1     113.183 128.186 138.140  0.00  0.00    +0.000 A 
ENDROOT
BRANCH   5  18
ATOM     14  O   UNL     1     108.947 127.148 140.403  0.00  0.00    +0.000 OA
ATOM     15  O   UNL     1     110.187 129.028 141.768  0.00  0.00    +0.000 OA
ATOM     16  O   UNL     1     108.994 128.269 143.171  0.00  0.00    +0.000 OA
ATOM     17  O   UNL     1     107.771 126.763 142.727  0.00  0.00    +0.000 OA
ATOM     18  C   UNL     1     109.559 127.902 140.625  0.00  0.00    +0.000 C 
ATOM     19  C   UNL     1     109.575 128.275 141.547  0.00  0.00    +0.000 C 
ATOM     20  C   UNL     1     108.979 127.895 142.248  0.00  0.00    +0.000 C 
ATOM     21  C   UNL     1     108.367 127.142 142.027  0.00  0.00    +0.000 C 
ATOM     22  C   UNL     1     108.351 126.769 141.105  0.00  0.00    +0.000 C 
BRANCH  22  24
ATOM     23  O   UNL     1     107.706 125.659 139.954  0.00  0.00    +0.000 OA
ATOM     24  C   UNL     1     107.739 126.016 140.883  0.00  0.00    +0.000 C 
ENDBRANCH  22  24
ENDBRANCH   5  18
BRANCH   6  29
ATOM     25  O   UNL     1     109.664 130.136 137.332  0.00  0.00    +0.000 OA
ATOM     26  O   UNL     1     110.900 131.286 139.353  0.00  0.00    +0.000 OA
ATOM     27  O   UNL     1     110.322 132.880 138.309  0.00  0.00    +0.000 OA
ATOM     28  O   UNL     1     109.305 132.643 136.614  0.00  0.00    +0.000 OA
ATOM     29  C   UNL     1     110.173 130.253 138.180  0.00  0.00    +0.000 C 
ATOM     30  C   UNL     1     110.392 131.168 138.505  0.00  0.00    +0.000 C 
ATOM     31  C   UNL     1     110.103 131.965 137.984  0.00  0.00    +0.000 C 
ATOM     32  C   UNL     1     109.594 131.847 137.136  0.00  0.00    +0.000 C 
ATOM     33  C   UNL     1     109.375 130.932 136.810  0.00  0.00    +0.000 C 
ENDBRANCH   6  29
BRANCH  12  35
ATOM     34  O   UNL     1     115.255 130.544 134.790  0.00  0.00    +0.000 OA
ATOM     35  C   UNL     1     113.475 129.398 136.895  0.00  0.00    +0.000 A 
ATOM     36  C   UNL     1     113.567 128.939 136.017  0.00  0.00    +0.000 A 
ATOM     37  C   UNL     1     113.977 130.239 137.071  0.00  0.00    +0.000 A 
ATOM     38  C   UNL     1     114.160 129.321 135.315  0.00  0.00    +0.000 A 
ATOM     39  C   UNL     1     114.571 130.621 136.369  0.00  0.00    +0.000 A 
ATOM     40  C   UNL     1     114.662 130.162 135.492  0.00  0.00    +0.000 A 
ENDBRANCH  12  35
TORSDOF 4
ENDMDL
