MODEL 1
REMARK VINA RESULT:     -11.0      0.000      0.000
REMARK  Name = 131752764
REMARK  13 active torsions:
REMARK  status: ('A' for Active; 'I' for Inactive)
REMARK    1  A    between atoms: O_1  and  C_23
REMARK    2  A    between atoms: O_1  and  C_25
REMARK    3  A    between atoms: O_4  and  C_29
REMARK    4  A    between atoms: O_4  and  C_40
REMARK    5  A    between atoms: O_11  and  C_33
REMARK    6  A    between atoms: O_11  and  C_47
REMARK    7  A    between atoms: O_12  and  C_39
REMARK    8  A    between atoms: O_12  and  C_46
REMARK    9  A    between atoms: C_32  and  C_33
REMARK   10  A    between atoms: C_38  and  C_41
REMARK   11  A    between atoms: C_42  and  C_50
REMARK   12  A    between atoms: C_47  and  C_52
REMARK   13  A    between atoms: C_57  and  C_59
REMARK                            x       y       z     vdW  Elec       q    Type
REMARK                         _______ _______ _______ _____ _____    ______ ____
ROOT
ATOM      1  O   UNL     1     110.874 128.557 139.335  0.00  0.00    +0.000 OA
ENDROOT
BRANCH   1   5
ATOM      2  O   UNL     1     110.393 127.519 141.192  0.00  0.00    +0.000 OA
ATOM      3  O   UNL     1     109.335 129.089 139.599  0.00  0.00    +0.000 OA
ATOM      4  O   UNL     1     108.125 129.115 140.385  0.00  0.00    +0.000 OA
ATOM      5  C   UNL     1     110.457 128.300 139.998  0.00  0.00    +0.000 A 
ATOM      6  C   UNL     1     110.810 127.776 140.529  0.00  0.00    +0.000 A 
ATOM      7  C   UNL     1     109.687 128.566 140.130  0.00  0.00    +0.000 A 
ATOM      8  C   UNL     1     109.270 128.308 140.794  0.00  0.00    +0.000 A 
ATOM      9  C   UNL     1     109.623 127.784 141.325  0.00  0.00    +0.000 A 
ATOM     10  C   UNL     1     108.397 127.782 142.163  0.00  0.00    +0.000 A 
ATOM     11  C   UNL     1     109.199 127.509 142.020  0.00  0.00    +0.000 A 
ATOM     12  C   UNL     1     108.469 128.593 140.920  0.00  0.00    +0.000 A 
ATOM     13  C   UNL     1     108.030 128.327 141.611  0.00  0.00    +0.000 A 
BRANCH   6  15
ATOM     14  O   UNL     1     113.887 126.709 140.000  0.00  0.00    +0.000 OA
ATOM     15  C   UNL     1     111.579 127.510 140.397  0.00  0.00    +0.000 A 
ATOM     16  C   UNL     1     111.707 126.766 140.064  0.00  0.00    +0.000 A 
ATOM     17  C   UNL     1     112.221 127.987 140.597  0.00  0.00    +0.000 A 
ATOM     18  C   UNL     1     112.476 126.499 139.932  0.00  0.00    +0.000 A 
ATOM     19  C   UNL     1     112.991 127.720 140.465  0.00  0.00    +0.000 A 
ATOM     20  C   UNL     1     113.118 126.976 140.133  0.00  0.00    +0.000 A 
ENDBRANCH   6  15
BRANCH  10  21
ATOM     21  O   UNL     1     107.983 127.523 142.828  0.00  0.00    +0.000 OA
BRANCH  21  30
ATOM     22  O   UNL     1     107.440 126.340 142.235  0.00  0.00    +0.000 OA
ATOM     23  O   UNL     1     105.345 126.663 143.512  0.00  0.00    +0.000 OA
ATOM     24  O   UNL     1     105.501 125.374 142.494  0.00  0.00    +0.000 OA
ATOM     25  O   UNL     1     106.586 127.737 143.678  0.00  0.00    +0.000 OA
ATOM     26  C   UNL     1     106.043 126.556 143.087  0.00  0.00    +0.000 C 
ATOM     27  C   UNL     1     106.122 125.911 142.577  0.00  0.00    +0.000 C 
ATOM     28  C   UNL     1     106.664 127.093 143.170  0.00  0.00    +0.000 C 
ATOM     29  C   UNL     1     106.821 125.804 142.152  0.00  0.00    +0.000 C 
ATOM     30  C   UNL     1     107.362 126.985 142.744  0.00  0.00    +0.000 C 
BRANCH  29  32
ATOM     31  O   UNL     1     107.534 124.639 141.730  0.00  0.00    +0.000 OA
ATOM     32  C   UNL     1     106.899 125.159 141.643  0.00  0.00    +0.000 C 
ENDBRANCH  29  32
ENDBRANCH  21  30
ENDBRANCH  10  21
ENDBRANCH   1   5
BRANCH   1  39
ATOM     33  O   UNL     1     110.163 127.752 138.393  0.00  0.00    +0.000 OA
ATOM     34  O   UNL     1     110.384 129.540 136.696  0.00  0.00    +0.000 OA
ATOM     35  O   UNL     1     109.599 128.138 136.320  0.00  0.00    +0.000 OA
ATOM     36  C   UNL     1     110.629 129.049 138.015  0.00  0.00    +0.000 C 
ATOM     37  C   UNL     1     110.310 128.944 137.261  0.00  0.00    +0.000 C 
ATOM     38  C   UNL     1     109.918 128.243 137.073  0.00  0.00    +0.000 C 
ATOM     39  C   UNL     1     110.555 128.452 138.580  0.00  0.00    +0.000 C 
ATOM     40  C   UNL     1     109.844 127.647 137.638  0.00  0.00    +0.000 C 
ATOM     41  C   UNL     1     109.451 126.946 137.451  0.00  0.00    +0.000 C 
BRANCH  36  42
ATOM     42  O   UNL     1     111.022 129.749 138.203  0.00  0.00    +0.000 OA
BRANCH  42  47
ATOM     43  O   UNL     1     112.163 129.310 137.463  0.00  0.00    +0.000 OA
ATOM     44  O   UNL     1     111.842 131.105 138.663  0.00  0.00    +0.000 OA
ATOM     45  O   UNL     1     113.393 131.344 138.152  0.00  0.00    +0.000 OA
ATOM     46  O   UNL     1     114.123 130.226 137.182  0.00  0.00    +0.000 OA
ATOM     47  C   UNL     1     111.797 129.869 137.948  0.00  0.00    +0.000 C 
ATOM     48  C   UNL     1     112.208 130.546 138.177  0.00  0.00    +0.000 C 
ATOM     49  C   UNL     1     112.983 130.665 137.922  0.00  0.00    +0.000 C 
ATOM     50  C   UNL     1     113.348 130.107 137.437  0.00  0.00    +0.000 C 
ATOM     51  C   UNL     1     112.938 129.429 137.207  0.00  0.00    +0.000 C 
BRANCH  51  52
ATOM     52  C   UNL     1     113.303 128.871 136.722  0.00  0.00    +0.000 C 
BRANCH  52  53
ATOM     53  O   UNL     1     113.436 128.105 137.001  0.00  0.00    +0.000 OA
BRANCH  53  55
ATOM     54  O   UNL     1     114.147 127.611 135.865  0.00  0.00    +0.000 OA
ATOM     55  C   UNL     1     113.599 127.495 136.471  0.00  0.00    +0.000 C 
BRANCH  55  56
ATOM     56  C   UNL     1     113.214 126.769 136.546  0.00  0.00    +0.000 C 
ATOM     57  C   UNL     1     113.650 126.070 136.550  0.00  0.00    +0.000 C 
BRANCH  57  59
ATOM     58  O   UNL     1     112.113 123.164 136.850  0.00  0.00    +0.000 OA
ATOM     59  C   UNL     1     113.265 125.343 136.625  0.00  0.00    +0.000 A 
ATOM     60  C   UNL     1     113.665 124.696 136.945  0.00  0.00    +0.000 A 
ATOM     61  C   UNL     1     112.482 125.264 136.380  0.00  0.00    +0.000 A 
ATOM     62  C   UNL     1     113.281 123.970 137.020  0.00  0.00    +0.000 A 
ATOM     63  C   UNL     1     112.098 124.538 136.455  0.00  0.00    +0.000 A 
ATOM     64  C   UNL     1     112.498 123.891 136.775  0.00  0.00    +0.000 A 
ENDBRANCH  57  59
ENDBRANCH  55  56
ENDBRANCH  53  55
ENDBRANCH  52  53
ENDBRANCH  51  52
ENDBRANCH  42  47
ENDBRANCH  36  42
ENDBRANCH   1  39
TORSDOF 13
ENDMDL
MODEL 2
REMARK VINA RESULT:     -10.4      1.381      2.358
REMARK  Name = 131752764
REMARK  13 active torsions:
REMARK  status: ('A' for Active; 'I' for Inactive)
REMARK    1  A    between atoms: O_1  and  C_23
REMARK    2  A    between atoms: O_1  and  C_25
REMARK    3  A    between atoms: O_4  and  C_29
REMARK    4  A    between atoms: O_4  and  C_40
REMARK    5  A    between atoms: O_11  and  C_33
REMARK    6  A    between atoms: O_11  and  C_47
REMARK    7  A    between atoms: O_12  and  C_39
REMARK    8  A    between atoms: O_12  and  C_46
REMARK    9  A    between atoms: C_32  and  C_33
REMARK   10  A    between atoms: C_38  and  C_41
REMARK   11  A    between atoms: C_42  and  C_50
REMARK   12  A    between atoms: C_47  and  C_52
REMARK   13  A    between atoms: C_57  and  C_59
REMARK                            x       y       z     vdW  Elec       q    Type
REMARK                         _______ _______ _______ _____ _____    ______ ____
ROOT
ATOM      1  O   UNL     1     110.257 128.313 138.841  0.00  0.00    +0.000 OA
ENDROOT
BRANCH   1   5
ATOM      2  O   UNL     1     109.207 126.725 139.909  0.00  0.00    +0.000 OA
ATOM      3  O   UNL     1     109.833 129.098 140.229  0.00  0.00    +0.000 OA
ATOM      4  O   UNL     1     109.201 129.119 141.526  0.00  0.00    +0.000 OA
ATOM      5  C   UNL     1     109.837 127.914 139.429  0.00  0.00    +0.000 A 
ATOM      6  C   UNL     1     109.628 127.124 139.322  0.00  0.00    +0.000 A 
ATOM      7  C   UNL     1     109.625 128.307 140.122  0.00  0.00    +0.000 A 
ATOM      8  C   UNL     1     109.204 127.909 140.710  0.00  0.00    +0.000 A 
ATOM      9  C   UNL     1     108.995 127.117 140.603  0.00  0.00    +0.000 A 
ATOM     10  C   UNL     1     108.333 127.095 141.932  0.00  0.00    +0.000 A 
ATOM     11  C   UNL     1     108.557 126.692 141.207  0.00  0.00    +0.000 A 
ATOM     12  C   UNL     1     108.989 128.329 141.428  0.00  0.00    +0.000 A 
ATOM     13  C   UNL     1     108.550 127.919 142.043  0.00  0.00    +0.000 A 
BRANCH   6  15
ATOM     14  O   UNL     1     110.478 125.550 136.548  0.00  0.00    +0.000 OA
ATOM     15  C   UNL     1     109.840 126.730 138.628  0.00  0.00    +0.000 A 
ATOM     16  C   UNL     1     110.483 126.213 138.628  0.00  0.00    +0.000 A 
ATOM     17  C   UNL     1     109.410 126.854 137.936  0.00  0.00    +0.000 A 
ATOM     18  C   UNL     1     110.696 125.820 137.935  0.00  0.00    +0.000 A 
ATOM     19  C   UNL     1     109.622 126.461 137.242  0.00  0.00    +0.000 A 
ATOM     20  C   UNL     1     110.265 125.944 137.241  0.00  0.00    +0.000 A 
ENDBRANCH   6  15
BRANCH  10  21
ATOM     21  O   UNL     1     107.912 126.694 142.517  0.00  0.00    +0.000 OA
BRANCH  21  30
ATOM     22  O   UNL     1     106.594 126.988 142.047  0.00  0.00    +0.000 OA
ATOM     23  O   UNL     1     105.831 127.299 144.381  0.00  0.00    +0.000 OA
ATOM     24  O   UNL     1     104.769 127.489 143.132  0.00  0.00    +0.000 OA
ATOM     25  O   UNL     1     107.403 126.902 144.073  0.00  0.00    +0.000 OA
ATOM     26  C   UNL     1     106.086 127.195 143.603  0.00  0.00    +0.000 C 
ATOM     27  C   UNL     1     105.555 127.290 142.978  0.00  0.00    +0.000 C 
ATOM     28  C   UNL     1     106.871 126.997 143.449  0.00  0.00    +0.000 C 
ATOM     29  C   UNL     1     105.809 127.186 142.200  0.00  0.00    +0.000 C 
ATOM     30  C   UNL     1     107.126 126.893 142.671  0.00  0.00    +0.000 C 
BRANCH  29  32
ATOM     31  O   UNL     1     105.228 126.707 140.986  0.00  0.00    +0.000 OA
ATOM     32  C   UNL     1     105.278 127.281 141.576  0.00  0.00    +0.000 C 
ENDBRANCH  29  32
ENDBRANCH  21  30
ENDBRANCH  10  21
ENDBRANCH   1   5
BRANCH   1  39
ATOM     33  O   UNL     1     111.520 128.303 139.510  0.00  0.00    +0.000 OA
ATOM     34  O   UNL     1     112.016 130.553 138.605  0.00  0.00    +0.000 OA
ATOM     35  O   UNL     1     113.114 129.794 139.575  0.00  0.00    +0.000 OA
ATOM     36  C   UNL     1     111.137 129.433 138.723  0.00  0.00    +0.000 C 
ATOM     37  C   UNL     1     111.851 129.803 138.907  0.00  0.00    +0.000 C 
ATOM     38  C   UNL     1     112.400 129.424 139.392  0.00  0.00    +0.000 C 
ATOM     39  C   UNL     1     110.972 128.683 139.025  0.00  0.00    +0.000 C 
ATOM     40  C   UNL     1     112.235 128.674 139.693  0.00  0.00    +0.000 C 
ATOM     41  C   UNL     1     112.783 128.294 140.178  0.00  0.00    +0.000 C 
BRANCH  36  42
ATOM     42  O   UNL     1     110.588 129.812 138.238  0.00  0.00    +0.000 OA
BRANCH  42  47
ATOM     43  O   UNL     1     111.372 129.481 137.090  0.00  0.00    +0.000 OA
ATOM     44  O   UNL     1     109.432 130.469 137.260  0.00  0.00    +0.000 OA
ATOM     45  O   UNL     1     109.639 130.466 135.623  0.00  0.00    +0.000 OA
ATOM     46  O   UNL     1     111.000 129.807 134.964  0.00  0.00    +0.000 OA
ATOM     47  C   UNL     1     110.691 129.811 137.420  0.00  0.00    +0.000 C 
ATOM     48  C   UNL     1     110.114 130.139 136.930  0.00  0.00    +0.000 C 
ATOM     49  C   UNL     1     110.217 130.138 136.112  0.00  0.00    +0.000 C 
ATOM     50  C   UNL     1     110.897 129.808 135.783  0.00  0.00    +0.000 C 
ATOM     51  C   UNL     1     111.475 129.480 136.271  0.00  0.00    +0.000 C 
BRANCH  51  52
ATOM     52  C   UNL     1     112.155 129.150 135.942  0.00  0.00    +0.000 C 
BRANCH  52  53
ATOM     53  O   UNL     1     112.320 128.349 136.050  0.00  0.00    +0.000 OA
BRANCH  53  55
ATOM     54  O   UNL     1     113.683 128.569 135.682  0.00  0.00    +0.000 OA
ATOM     55  C   UNL     1     113.094 128.073 135.979  0.00  0.00    +0.000 C 
BRANCH  55  56
ATOM     56  C   UNL     1     113.280 127.302 136.204  0.00  0.00    +0.000 C 
ATOM     57  C   UNL     1     113.975 127.150 136.621  0.00  0.00    +0.000 C 
BRANCH  57  59
ATOM     58  O   UNL     1     114.721 124.063 137.519  0.00  0.00    +0.000 OA
ATOM     59  C   UNL     1     114.161 126.378 136.846  0.00  0.00    +0.000 A 
ATOM     60  C   UNL     1     114.401 125.830 136.279  0.00  0.00    +0.000 A 
ATOM     61  C   UNL     1     114.108 126.155 137.638  0.00  0.00    +0.000 A 
ATOM     62  C   UNL     1     114.588 125.058 136.502  0.00  0.00    +0.000 A 
ATOM     63  C   UNL     1     114.294 125.384 137.863  0.00  0.00    +0.000 A 
ATOM     64  C   UNL     1     114.534 124.835 137.295  0.00  0.00    +0.000 A 
ENDBRANCH  57  59
ENDBRANCH  55  56
ENDBRANCH  53  55
ENDBRANCH  52  53
ENDBRANCH  51  52
ENDBRANCH  42  47
ENDBRANCH  36  42
ENDBRANCH   1  39
TORSDOF 13
ENDMDL
MODEL 3
REMARK VINA RESULT:     -10.3      4.723      8.380
REMARK  Name = 131752764
REMARK  13 active torsions:
REMARK  status: ('A' for Active; 'I' for Inactive)
REMARK    1  A    between atoms: O_1  and  C_23
REMARK    2  A    between atoms: O_1  and  C_25
REMARK    3  A    between atoms: O_4  and  C_29
REMARK    4  A    between atoms: O_4  and  C_40
REMARK    5  A    between atoms: O_11  and  C_33
REMARK    6  A    between atoms: O_11  and  C_47
REMARK    7  A    between atoms: O_12  and  C_39
REMARK    8  A    between atoms: O_12  and  C_46
REMARK    9  A    between atoms: C_32  and  C_33
REMARK   10  A    between atoms: C_38  and  C_41
REMARK   11  A    between atoms: C_42  and  C_50
REMARK   12  A    between atoms: C_47  and  C_52
REMARK   13  A    between atoms: C_57  and  C_59
REMARK                            x       y       z     vdW  Elec       q    Type
REMARK                         _______ _______ _______ _____ _____    ______ ____
ROOT
ATOM      1  O   UNL     1     108.567 130.013 143.889  0.00  0.00    +0.000 OA
ENDROOT
BRANCH   1   5
ATOM      2  O   UNL     1     108.905 131.083 145.761  0.00  0.00    +0.000 OA
ATOM      3  O   UNL     1     109.668 131.145 143.408  0.00  0.00    +0.000 OA
ATOM      4  O   UNL     1     110.531 132.267 143.687  0.00  0.00    +0.000 OA
ATOM      5  C   UNL     1     108.863 130.559 144.433  0.00  0.00    +0.000 A 
ATOM      6  C   UNL     1     108.609 130.538 145.217  0.00  0.00    +0.000 A 
ATOM      7  C   UNL     1     109.413 131.124 144.191  0.00  0.00    +0.000 A 
ATOM      8  C   UNL     1     109.709 131.669 144.735  0.00  0.00    +0.000 A 
ATOM      9  C   UNL     1     109.455 131.649 145.521  0.00  0.00    +0.000 A 
ATOM     10  C   UNL     1     110.329 132.803 145.851  0.00  0.00    +0.000 A 
ATOM     11  C   UNL     1     109.756 132.211 146.096  0.00  0.00    +0.000 A 
ATOM     12  C   UNL     1     110.282 132.254 144.472  0.00  0.00    +0.000 A 
ATOM     13  C   UNL     1     110.594 132.824 145.035  0.00  0.00    +0.000 A 
BRANCH   6  15
ATOM     14  O   UNL     1     106.410 128.274 146.182  0.00  0.00    +0.000 OA
ATOM     15  C   UNL     1     108.058 129.972 145.458  0.00  0.00    +0.000 A 
ATOM     16  C   UNL     1     108.302 129.198 145.607  0.00  0.00    +0.000 A 
ATOM     17  C   UNL     1     107.266 130.180 145.550  0.00  0.00    +0.000 A 
ATOM     18  C   UNL     1     107.753 128.632 145.849  0.00  0.00    +0.000 A 
ATOM     19  C   UNL     1     106.716 129.615 145.791  0.00  0.00    +0.000 A 
ATOM     20  C   UNL     1     106.959 128.841 145.940  0.00  0.00    +0.000 A 
ENDBRANCH   6  15
BRANCH  10  21
ATOM     21  O   UNL     1     110.623 133.347 146.398  0.00  0.00    +0.000 OA
BRANCH  21  30
ATOM     22  O   UNL     1     111.861 132.678 146.653  0.00  0.00    +0.000 OA
ATOM     23  O   UNL     1     111.731 133.350 149.032  0.00  0.00    +0.000 OA
ATOM     24  O   UNL     1     113.011 132.458 148.494  0.00  0.00    +0.000 OA
ATOM     25  O   UNL     1     110.537 133.794 147.983  0.00  0.00    +0.000 OA
ATOM     26  C   UNL     1     111.774 133.126 148.239  0.00  0.00    +0.000 C 
ATOM     27  C   UNL     1     112.414 132.680 147.970  0.00  0.00    +0.000 C 
ATOM     28  C   UNL     1     111.177 133.348 147.715  0.00  0.00    +0.000 C 
ATOM     29  C   UNL     1     112.457 132.456 147.177  0.00  0.00    +0.000 C 
ATOM     30  C   UNL     1     111.221 133.124 146.922  0.00  0.00    +0.000 C 
BRANCH  29  32
ATOM     31  O   UNL     1     112.995 131.213 146.720  0.00  0.00    +0.000 OA
ATOM     32  C   UNL     1     113.097 132.010 146.909  0.00  0.00    +0.000 C 
ENDBRANCH  29  32
ENDBRANCH  21  30
ENDBRANCH  10  21
ENDBRANCH   1   5
BRANCH   1  39
ATOM     33  O   UNL     1     107.644 130.895 143.247  0.00  0.00    +0.000 OA
ATOM     34  O   UNL     1     108.145 129.832 141.068  0.00  0.00    +0.000 OA
ATOM     35  O   UNL     1     107.054 131.068 141.152  0.00  0.00    +0.000 OA
ATOM     36  C   UNL     1     108.356 129.923 142.478  0.00  0.00    +0.000 C 
ATOM     37  C   UNL     1     107.978 130.187 141.794  0.00  0.00    +0.000 C 
ATOM     38  C   UNL     1     107.432 130.804 141.835  0.00  0.00    +0.000 C 
ATOM     39  C   UNL     1     108.189 130.277 143.204  0.00  0.00    +0.000 C 
ATOM     40  C   UNL     1     107.265 131.159 142.562  0.00  0.00    +0.000 C 
ATOM     41  C   UNL     1     106.720 131.776 142.604  0.00  0.00    +0.000 C 
BRANCH  36  42
ATOM     42  O   UNL     1     108.901 129.305 142.436  0.00  0.00    +0.000 OA
BRANCH  42  47
ATOM     43  O   UNL     1     107.841 128.346 142.410  0.00  0.00    +0.000 OA
ATOM     44  O   UNL     1     109.974 128.132 141.995  0.00  0.00    +0.000 OA
ATOM     45  O   UNL     1     109.451 126.586 141.748  0.00  0.00    +0.000 OA
ATOM     46  O   UNL     1     107.855 126.214 141.942  0.00  0.00    +0.000 OA
ATOM     47  C   UNL     1     108.640 128.532 142.313  0.00  0.00    +0.000 C 
ATOM     48  C   UNL     1     109.175 127.945 142.092  0.00  0.00    +0.000 C 
ATOM     49  C   UNL     1     108.914 127.173 141.969  0.00  0.00    +0.000 C 
ATOM     50  C   UNL     1     108.117 126.987 142.066  0.00  0.00    +0.000 C 
ATOM     51  C   UNL     1     107.580 127.574 142.287  0.00  0.00    +0.000 C 
BRANCH  51  52
ATOM     52  C   UNL     1     106.782 127.388 142.384  0.00  0.00    +0.000 C 
BRANCH  52  53
ATOM     53  O   UNL     1     106.294 127.882 142.830  0.00  0.00    +0.000 OA
BRANCH  53  55
ATOM     54  O   UNL     1     105.190 127.046 143.179  0.00  0.00    +0.000 OA
ATOM     55  C   UNL     1     105.481 127.746 142.854  0.00  0.00    +0.000 C 
BRANCH  55  56
ATOM     56  C   UNL     1     104.959 128.311 142.555  0.00  0.00    +0.000 C 
ATOM     57  C   UNL     1     104.504 128.766 143.069  0.00  0.00    +0.000 C 
BRANCH  57  59
ATOM     58  O   UNL     1     102.415 131.022 141.869  0.00  0.00    +0.000 OA
ATOM     59  C   UNL     1     103.981 129.330 142.770  0.00  0.00    +0.000 A 
ATOM     60  C   UNL     1     103.731 129.284 141.985  0.00  0.00    +0.000 A 
ATOM     61  C   UNL     1     103.710 129.940 143.254  0.00  0.00    +0.000 A 
ATOM     62  C   UNL     1     103.209 129.848 141.684  0.00  0.00    +0.000 A 
ATOM     63  C   UNL     1     103.188 130.503 142.954  0.00  0.00    +0.000 A 
ATOM     64  C   UNL     1     102.938 130.457 142.169  0.00  0.00    +0.000 A 
ENDBRANCH  57  59
ENDBRANCH  55  56
ENDBRANCH  53  55
ENDBRANCH  52  53
ENDBRANCH  51  52
ENDBRANCH  42  47
ENDBRANCH  36  42
ENDBRANCH   1  39
TORSDOF 13
ENDMDL
MODEL 4
REMARK VINA RESULT:     -10.3      1.293      3.590
REMARK  Name = 131752764
REMARK  13 active torsions:
REMARK  status: ('A' for Active; 'I' for Inactive)
REMARK    1  A    between atoms: O_1  and  C_23
REMARK    2  A    between atoms: O_1  and  C_25
REMARK    3  A    between atoms: O_4  and  C_29
REMARK    4  A    between atoms: O_4  and  C_40
REMARK    5  A    between atoms: O_11  and  C_33
REMARK    6  A    between atoms: O_11  and  C_47
REMARK    7  A    between atoms: O_12  and  C_39
REMARK    8  A    between atoms: O_12  and  C_46
REMARK    9  A    between atoms: C_32  and  C_33
REMARK   10  A    between atoms: C_38  and  C_41
REMARK   11  A    between atoms: C_42  and  C_50
REMARK   12  A    between atoms: C_47  and  C_52
REMARK   13  A    between atoms: C_57  and  C_59
REMARK                            x       y       z     vdW  Elec       q    Type
REMARK                         _______ _______ _______ _____ _____    ______ ____
ROOT
ATOM      1  O   UNL     1     110.874 126.313 138.928  0.00  0.00    +0.000 OA
ENDROOT
BRANCH   1   5
ATOM      2  O   UNL     1     110.326 127.066 140.901  0.00  0.00    +0.000 OA
ATOM      3  O   UNL     1     109.350 125.701 139.083  0.00  0.00    +0.000 OA
ATOM      4  O   UNL     1     108.128 125.527 139.830  0.00  0.00    +0.000 OA
ATOM      5  C   UNL     1     110.437 126.462 139.611  0.00  0.00    +0.000 A 
ATOM      6  C   UNL     1     110.762 126.917 140.217  0.00  0.00    +0.000 A 
ATOM      7  C   UNL     1     109.675 126.156 139.688  0.00  0.00    +0.000 A 
ATOM      8  C   UNL     1     109.238 126.305 140.372  0.00  0.00    +0.000 A 
ATOM      9  C   UNL     1     109.563 126.761 140.979  0.00  0.00    +0.000 A 
ATOM     10  C   UNL     1     108.324 126.607 141.782  0.00  0.00    +0.000 A 
ATOM     11  C   UNL     1     109.118 126.923 141.695  0.00  0.00    +0.000 A 
ATOM     12  C   UNL     1     108.445 125.981 140.440  0.00  0.00    +0.000 A 
ATOM     13  C   UNL     1     107.985 126.133 141.151  0.00  0.00    +0.000 A 
BRANCH   6  15
ATOM     14  O   UNL     1     113.810 128.145 139.908  0.00  0.00    +0.000 OA
ATOM     15  C   UNL     1     111.525 127.223 140.140  0.00  0.00    +0.000 A 
ATOM     16  C   UNL     1     111.632 128.006 139.901  0.00  0.00    +0.000 A 
ATOM     17  C   UNL     1     112.179 126.748 140.301  0.00  0.00    +0.000 A 
ATOM     18  C   UNL     1     112.394 128.313 139.824  0.00  0.00    +0.000 A 
ATOM     19  C   UNL     1     112.941 127.055 140.224  0.00  0.00    +0.000 A 
ATOM     20  C   UNL     1     113.049 127.837 139.986  0.00  0.00    +0.000 A 
ENDBRANCH   6  15
BRANCH  10  21
ATOM     21  O   UNL     1     107.889 126.758 142.467  0.00  0.00    +0.000 OA
BRANCH  21  30
ATOM     22  O   UNL     1     107.367 128.047 142.137  0.00  0.00    +0.000 OA
ATOM     23  O   UNL     1     105.151 127.371 143.010  0.00  0.00    +0.000 OA
ATOM     24  O   UNL     1     105.368 128.885 142.389  0.00  0.00    +0.000 OA
ATOM     25  O   UNL     1     106.413 126.308 143.048  0.00  0.00    +0.000 OA
ATOM     26  C   UNL     1     105.890 127.596 142.719  0.00  0.00    +0.000 C 
ATOM     27  C   UNL     1     105.998 128.353 142.409  0.00  0.00    +0.000 C 
ATOM     28  C   UNL     1     106.520 127.065 142.738  0.00  0.00    +0.000 C 
ATOM     29  C   UNL     1     106.737 128.579 142.118  0.00  0.00    +0.000 C 
ATOM     30  C   UNL     1     107.259 127.291 142.447  0.00  0.00    +0.000 C 
BRANCH  29  32
ATOM     31  O   UNL     1     107.085 129.430 141.024  0.00  0.00    +0.000 OA
ATOM     32  C   UNL     1     106.844 129.335 141.807  0.00  0.00    +0.000 C 
ENDBRANCH  29  32
ENDBRANCH  21  30
ENDBRANCH  10  21
ENDBRANCH   1   5
BRANCH   1  39
ATOM     33  O   UNL     1     110.165 127.215 138.076  0.00  0.00    +0.000 OA
ATOM     34  O   UNL     1     110.403 125.625 136.194  0.00  0.00    +0.000 OA
ATOM     35  O   UNL     1     109.615 127.057 135.969  0.00  0.00    +0.000 OA
ATOM     36  C   UNL     1     110.638 125.969 137.560  0.00  0.00    +0.000 C 
ATOM     37  C   UNL     1     110.324 126.155 136.821  0.00  0.00    +0.000 C 
ATOM     38  C   UNL     1     109.929 126.871 136.708  0.00  0.00    +0.000 C 
ATOM     39  C   UNL     1     110.559 126.499 138.187  0.00  0.00    +0.000 C 
ATOM     40  C   UNL     1     109.850 127.401 137.335  0.00  0.00    +0.000 C 
ATOM     41  C   UNL     1     109.456 128.117 137.224  0.00  0.00    +0.000 C 
BRANCH  36  42
ATOM     42  O   UNL     1     111.033 125.253 137.673  0.00  0.00    +0.000 OA
BRANCH  42  47
ATOM     43  O   UNL     1     112.264 125.801 137.196  0.00  0.00    +0.000 OA
ATOM     44  O   UNL     1     111.597 123.730 137.382  0.00  0.00    +0.000 OA
ATOM     45  O   UNL     1     113.111 123.516 136.760  0.00  0.00    +0.000 OA
ATOM     46  O   UNL     1     114.059 124.825 136.429  0.00  0.00    +0.000 OA
ATOM     47  C   UNL     1     111.789 125.146 137.362  0.00  0.00    +0.000 C 
ATOM     48  C   UNL     1     112.072 124.385 137.216  0.00  0.00    +0.000 C 
ATOM     49  C   UNL     1     112.829 124.278 136.905  0.00  0.00    +0.000 C 
ATOM     50  C   UNL     1     113.303 124.932 136.740  0.00  0.00    +0.000 C 
ATOM     51  C   UNL     1     113.021 125.694 136.885  0.00  0.00    +0.000 C 
BRANCH  51  52
ATOM     52  C   UNL     1     113.495 126.348 136.720  0.00  0.00    +0.000 C 
BRANCH  52  53
ATOM     53  O   UNL     1     113.194 126.975 136.276  0.00  0.00    +0.000 OA
BRANCH  53  55
ATOM     54  O   UNL     1     114.339 127.694 135.817  0.00  0.00    +0.000 OA
ATOM     55  C   UNL     1     113.617 127.679 136.217  0.00  0.00    +0.000 C 
BRANCH  55  56
ATOM     56  C   UNL     1     113.320 128.370 136.556  0.00  0.00    +0.000 C 
ATOM     57  C   UNL     1     113.418 129.094 136.173  0.00  0.00    +0.000 C 
BRANCH  57  59
ATOM     58  O   UNL     1     112.233 131.858 137.532  0.00  0.00    +0.000 OA
ATOM     59  C   UNL     1     113.121 129.785 136.513  0.00  0.00    +0.000 A 
ATOM     60  C   UNL     1     113.615 130.267 136.964  0.00  0.00    +0.000 A 
ATOM     61  C   UNL     1     112.331 129.993 136.401  0.00  0.00    +0.000 A 
ATOM     62  C   UNL     1     113.320 130.958 137.304  0.00  0.00    +0.000 A 
ATOM     63  C   UNL     1     112.035 130.683 136.740  0.00  0.00    +0.000 A 
ATOM     64  C   UNL     1     112.529 131.166 137.192  0.00  0.00    +0.000 A 
ENDBRANCH  57  59
ENDBRANCH  55  56
ENDBRANCH  53  55
ENDBRANCH  52  53
ENDBRANCH  51  52
ENDBRANCH  42  47
ENDBRANCH  36  42
ENDBRANCH   1  39
TORSDOF 13
ENDMDL
MODEL 5
REMARK VINA RESULT:     -10.3      0.988      1.704
REMARK  Name = 131752764
REMARK  13 active torsions:
REMARK  status: ('A' for Active; 'I' for Inactive)
REMARK    1  A    between atoms: O_1  and  C_23
REMARK    2  A    between atoms: O_1  and  C_25
REMARK    3  A    between atoms: O_4  and  C_29
REMARK    4  A    between atoms: O_4  and  C_40
REMARK    5  A    between atoms: O_11  and  C_33
REMARK    6  A    between atoms: O_11  and  C_47
REMARK    7  A    between atoms: O_12  and  C_39
REMARK    8  A    between atoms: O_12  and  C_46
REMARK    9  A    between atoms: C_32  and  C_33
REMARK   10  A    between atoms: C_38  and  C_41
REMARK   11  A    between atoms: C_42  and  C_50
REMARK   12  A    between atoms: C_47  and  C_52
REMARK   13  A    between atoms: C_57  and  C_59
REMARK                            x       y       z     vdW  Elec       q    Type
REMARK                         _______ _______ _______ _____ _____    ______ ____
ROOT
ATOM      1  O   UNL     1     110.935 128.596 139.273  0.00  0.00    +0.000 OA
ENDROOT
BRANCH   1   5
ATOM      2  O   UNL     1     110.425 127.609 141.151  0.00  0.00    +0.000 OA
ATOM      3  O   UNL     1     109.417 129.188 139.535  0.00  0.00    +0.000 OA
ATOM      4  O   UNL     1     108.212 129.272 140.324  0.00  0.00    +0.000 OA
ATOM      5  C   UNL     1     110.512 128.365 139.943  0.00  0.00    +0.000 A 
ATOM      6  C   UNL     1     110.848 127.839 140.482  0.00  0.00    +0.000 A 
ATOM      7  C   UNL     1     109.753 128.662 140.073  0.00  0.00    +0.000 A 
ATOM      8  C   UNL     1     109.330 128.431 140.743  0.00  0.00    +0.000 A 
ATOM      9  C   UNL     1     109.666 127.904 141.283  0.00  0.00    +0.000 A 
ATOM     10  C   UNL     1     108.444 127.961 142.125  0.00  0.00    +0.000 A 
ATOM     11  C   UNL     1     109.235 127.656 141.984  0.00  0.00    +0.000 A 
ATOM     12  C   UNL     1     108.540 128.746 140.868  0.00  0.00    +0.000 A 
ATOM     13  C   UNL     1     108.094 128.509 141.564  0.00  0.00    +0.000 A 
BRANCH   6  15
ATOM     14  O   UNL     1     113.884 126.657 139.962  0.00  0.00    +0.000 OA
ATOM     15  C   UNL     1     111.607 127.543 140.351  0.00  0.00    +0.000 A 
ATOM     16  C   UNL     1     112.266 128.003 140.538  0.00  0.00    +0.000 A 
ATOM     17  C   UNL     1     111.707 126.788 140.036  0.00  0.00    +0.000 A 
ATOM     18  C   UNL     1     113.025 127.708 140.408  0.00  0.00    +0.000 A 
ATOM     19  C   UNL     1     112.466 126.492 139.905  0.00  0.00    +0.000 A 
ATOM     20  C   UNL     1     113.125 126.952 140.092  0.00  0.00    +0.000 A 
ENDBRANCH   6  15
BRANCH  10  21
ATOM     21  O   UNL     1     108.024 127.729 142.796  0.00  0.00    +0.000 OA
BRANCH  21  30
ATOM     22  O   UNL     1     108.587 128.638 143.744  0.00  0.00    +0.000 OA
ATOM     23  O   UNL     1     106.335 129.049 144.686  0.00  0.00    +0.000 OA
ATOM     24  O   UNL     1     107.648 129.821 145.319  0.00  0.00    +0.000 OA
ATOM     25  O   UNL     1     106.523 128.003 143.424  0.00  0.00    +0.000 OA
ATOM     26  C   UNL     1     107.085 128.912 144.372  0.00  0.00    +0.000 C 
ATOM     27  C   UNL     1     107.743 129.298 144.688  0.00  0.00    +0.000 C 
ATOM     28  C   UNL     1     107.180 128.389 143.741  0.00  0.00    +0.000 C 
ATOM     29  C   UNL     1     108.493 129.161 144.375  0.00  0.00    +0.000 C 
ATOM     30  C   UNL     1     107.930 128.252 143.427  0.00  0.00    +0.000 C 
BRANCH  29  32
ATOM     31  O   UNL     1     109.821 129.115 144.900  0.00  0.00    +0.000 OA
ATOM     32  C   UNL     1     109.150 129.547 144.692  0.00  0.00    +0.000 C 
ENDBRANCH  29  32
ENDBRANCH  21  30
ENDBRANCH  10  21
ENDBRANCH   1   5
BRANCH   1  39
ATOM     33  O   UNL     1     110.197 127.802 138.342  0.00  0.00    +0.000 OA
ATOM     34  O   UNL     1     110.440 129.579 136.636  0.00  0.00    +0.000 OA
ATOM     35  O   UNL     1     109.622 128.193 136.273  0.00  0.00    +0.000 OA
ATOM     36  C   UNL     1     110.687 129.088 137.954  0.00  0.00    +0.000 C 
ATOM     37  C   UNL     1     110.359 128.987 137.205  0.00  0.00    +0.000 C 
ATOM     38  C   UNL     1     109.950 128.294 137.022  0.00  0.00    +0.000 C 
ATOM     39  C   UNL     1     110.606 128.495 138.523  0.00  0.00    +0.000 C 
ATOM     40  C   UNL     1     109.869 127.701 137.591  0.00  0.00    +0.000 C 
ATOM     41  C   UNL     1     109.460 127.008 137.410  0.00  0.00    +0.000 C 
BRANCH  36  42
ATOM     42  O   UNL     1     111.096 129.781 138.136  0.00  0.00    +0.000 OA
BRANCH  42  47
ATOM     43  O   UNL     1     112.226 129.305 137.401  0.00  0.00    +0.000 OA
ATOM     44  O   UNL     1     111.927 131.152 138.527  0.00  0.00    +0.000 OA
ATOM     45  O   UNL     1     113.472 131.362 137.987  0.00  0.00    +0.000 OA
ATOM     46  O   UNL     1     114.186 130.202 137.056  0.00  0.00    +0.000 OA
ATOM     47  C   UNL     1     111.869 129.886 137.866  0.00  0.00    +0.000 C 
ATOM     48  C   UNL     1     112.284 130.571 138.061  0.00  0.00    +0.000 C 
ATOM     49  C   UNL     1     113.057 130.677 137.791  0.00  0.00    +0.000 C 
ATOM     50  C   UNL     1     113.414 130.097 137.326  0.00  0.00    +0.000 C 
ATOM     51  C   UNL     1     112.999 129.411 137.131  0.00  0.00    +0.000 C 
BRANCH  51  52
ATOM     52  C   UNL     1     113.355 128.831 136.666  0.00  0.00    +0.000 C 
BRANCH  52  53
ATOM     53  O   UNL     1     113.463 128.069 136.965  0.00  0.00    +0.000 OA
BRANCH  53  55
ATOM     54  O   UNL     1     114.134 127.528 135.826  0.00  0.00    +0.000 OA
ATOM     55  C   UNL     1     113.603 127.440 136.451  0.00  0.00    +0.000 C 
BRANCH  55  56
ATOM     56  C   UNL     1     113.212 126.722 136.562  0.00  0.00    +0.000 C 
ATOM     57  C   UNL     1     113.625 126.012 136.487  0.00  0.00    +0.000 C 
BRANCH  57  59
ATOM     58  O   UNL     1     112.061 123.139 136.929  0.00  0.00    +0.000 OA
ATOM     59  C   UNL     1     113.234 125.293 136.598  0.00  0.00    +0.000 A 
ATOM     60  C   UNL     1     112.444 125.215 136.374  0.00  0.00    +0.000 A 
ATOM     61  C   UNL     1     113.633 124.654 136.932  0.00  0.00    +0.000 A 
ATOM     62  C   UNL     1     112.052 124.497 136.485  0.00  0.00    +0.000 A 
ATOM     63  C   UNL     1     113.242 123.936 137.042  0.00  0.00    +0.000 A 
ATOM     64  C   UNL     1     112.452 123.858 136.819  0.00  0.00    +0.000 A 
ENDBRANCH  57  59
ENDBRANCH  55  56
ENDBRANCH  53  55
ENDBRANCH  52  53
ENDBRANCH  51  52
ENDBRANCH  42  47
ENDBRANCH  36  42
ENDBRANCH   1  39
TORSDOF 13
ENDMDL
MODEL 6
REMARK VINA RESULT:     -10.2      6.887     10.667
REMARK  Name = 131752764
REMARK  13 active torsions:
REMARK  status: ('A' for Active; 'I' for Inactive)
REMARK    1  A    between atoms: O_1  and  C_23
REMARK    2  A    between atoms: O_1  and  C_25
REMARK    3  A    between atoms: O_4  and  C_29
REMARK    4  A    between atoms: O_4  and  C_40
REMARK    5  A    between atoms: O_11  and  C_33
REMARK    6  A    between atoms: O_11  and  C_47
REMARK    7  A    between atoms: O_12  and  C_39
REMARK    8  A    between atoms: O_12  and  C_46
REMARK    9  A    between atoms: C_32  and  C_33
REMARK   10  A    between atoms: C_38  and  C_41
REMARK   11  A    between atoms: C_42  and  C_50
REMARK   12  A    between atoms: C_47  and  C_52
REMARK   13  A    between atoms: C_57  and  C_59
REMARK                            x       y       z     vdW  Elec       q    Type
REMARK                         _______ _______ _______ _____ _____    ______ ____
ROOT
ATOM      1  O   UNL     1     106.496 127.397 146.889  0.00  0.00    +0.000 OA
ENDROOT
BRANCH   1   5
ATOM      2  O   UNL     1     106.175 129.539 146.624  0.00  0.00    +0.000 OA
ATOM      3  O   UNL     1     107.756 127.781 145.894  0.00  0.00    +0.000 OA
ATOM      4  O   UNL     1     108.513 128.740 145.127  0.00  0.00    +0.000 OA
ATOM      5  C   UNL     1     106.599 128.175 146.635  0.00  0.00    +0.000 A 
ATOM      6  C   UNL     1     106.072 128.761 146.878  0.00  0.00    +0.000 A 
ATOM      7  C   UNL     1     107.229 128.367 146.137  0.00  0.00    +0.000 A 
ATOM      8  C   UNL     1     107.331 129.145 145.883  0.00  0.00    +0.000 A 
ATOM      9  C   UNL     1     106.804 129.732 146.127  0.00  0.00    +0.000 A 
ATOM     10  C   UNL     1     107.554 130.751 145.351  0.00  0.00    +0.000 A 
ATOM     11  C   UNL     1     106.900 130.545 145.869  0.00  0.00    +0.000 A 
ATOM     12  C   UNL     1     107.991 129.332 145.365  0.00  0.00    +0.000 A 
ATOM     13  C   UNL     1     108.103 130.142 145.098  0.00  0.00    +0.000 A 
BRANCH   6  15
ATOM     14  O   UNL     1     103.551 127.995 148.865  0.00  0.00    +0.000 OA
ATOM     15  C   UNL     1     105.442 128.569 147.375  0.00  0.00    +0.000 A 
ATOM     16  C   UNL     1     104.695 128.426 147.057  0.00  0.00    +0.000 A 
ATOM     17  C   UNL     1     105.559 128.520 148.190  0.00  0.00    +0.000 A 
ATOM     18  C   UNL     1     104.064 128.235 147.553  0.00  0.00    +0.000 A 
ATOM     19  C   UNL     1     104.929 128.329 148.687  0.00  0.00    +0.000 A 
ATOM     20  C   UNL     1     104.182 128.186 148.369  0.00  0.00    +0.000 A 
ENDBRANCH   6  15
BRANCH  10  21
ATOM     21  O   UNL     1     107.654 131.530 145.099  0.00  0.00    +0.000 OA
BRANCH  21  30
ATOM     22  O   UNL     1     107.083 131.425 143.793  0.00  0.00    +0.000 OA
ATOM     23  O   UNL     1     105.913 133.580 144.131  0.00  0.00    +0.000 OA
ATOM     24  O   UNL     1     105.732 132.756 142.713  0.00  0.00    +0.000 OA
ATOM     25  O   UNL     1     106.874 132.967 145.324  0.00  0.00    +0.000 OA
ATOM     26  C   UNL     1     106.303 132.862 144.018  0.00  0.00    +0.000 C 
ATOM     27  C   UNL     1     106.213 132.449 143.309  0.00  0.00    +0.000 C 
ATOM     28  C   UNL     1     106.784 132.555 144.614  0.00  0.00    +0.000 C 
ATOM     29  C   UNL     1     106.603 131.731 143.197  0.00  0.00    +0.000 C 
ATOM     30  C   UNL     1     107.173 131.837 144.502  0.00  0.00    +0.000 C 
BRANCH  29  32
ATOM     31  O   UNL     1     107.086 130.777 142.249  0.00  0.00    +0.000 OA
ATOM     32  C   UNL     1     106.512 131.319 142.488  0.00  0.00    +0.000 C 
ENDBRANCH  29  32
ENDBRANCH  21  30
ENDBRANCH  10  21
ENDBRANCH   1   5
BRANCH   1  39
ATOM     33  O   UNL     1     105.925 126.904 145.675  0.00  0.00    +0.000 OA
ATOM     34  O   UNL     1     107.097 124.748 145.999  0.00  0.00    +0.000 OA
ATOM     35  O   UNL     1     106.136 124.974 144.678  0.00  0.00    +0.000 OA
ATOM     36  C   UNL     1     106.797 126.072 146.444  0.00  0.00    +0.000 C 
ATOM     37  C   UNL     1     106.707 125.467 145.891  0.00  0.00    +0.000 C 
ATOM     38  C   UNL     1     106.226 125.579 145.230  0.00  0.00    +0.000 C 
ATOM     39  C   UNL     1     106.406 126.790 146.336  0.00  0.00    +0.000 C 
ATOM     40  C   UNL     1     105.835 126.297 145.122  0.00  0.00    +0.000 C 
ATOM     41  C   UNL     1     105.354 126.411 144.461  0.00  0.00    +0.000 C 
BRANCH  36  42
ATOM     42  O   UNL     1     107.278 125.960 147.105  0.00  0.00    +0.000 OA
BRANCH  42  47
ATOM     43  O   UNL     1     106.218 125.364 147.856  0.00  0.00    +0.000 OA
ATOM     44  O   UNL     1     108.385 125.200 148.064  0.00  0.00    +0.000 OA
ATOM     45  O   UNL     1     107.879 124.224 149.294  0.00  0.00    +0.000 OA
ATOM     46  O   UNL     1     106.266 124.008 149.566  0.00  0.00    +0.000 OA
ATOM     47  C   UNL     1     107.025 125.472 147.720  0.00  0.00    +0.000 C 
ATOM     48  C   UNL     1     107.578 125.092 148.200  0.00  0.00    +0.000 C 
ATOM     49  C   UNL     1     107.325 124.604 148.815  0.00  0.00    +0.000 C 
ATOM     50  C   UNL     1     106.519 124.496 148.951  0.00  0.00    +0.000 C 
ATOM     51  C   UNL     1     105.965 124.876 148.472  0.00  0.00    +0.000 C 
BRANCH  51  52
ATOM     52  C   UNL     1     105.159 124.768 148.607  0.00  0.00    +0.000 C 
BRANCH  52  53
ATOM     53  O   UNL     1     104.681 124.438 148.021  0.00  0.00    +0.000 OA
BRANCH  53  55
ATOM     54  O   UNL     1     103.510 124.710 148.791  0.00  0.00    +0.000 OA
ATOM     55  C   UNL     1     103.861 124.493 148.077  0.00  0.00    +0.000 C 
BRANCH  55  56
ATOM     56  C   UNL     1     103.389 124.331 147.419  0.00  0.00    +0.000 C 
ATOM     57  C   UNL     1     102.714 123.865 147.500  0.00  0.00    +0.000 C 
BRANCH  57  59
ATOM     58  O   UNL     1     100.832 123.214 144.868  0.00  0.00    +0.000 OA
ATOM     59  C   UNL     1     102.243 123.703 146.842  0.00  0.00    +0.000 A 
ATOM     60  C   UNL     1     102.499 123.160 146.276  0.00  0.00    +0.000 A 
ATOM     61  C   UNL     1     101.517 124.082 146.750  0.00  0.00    +0.000 A 
ATOM     62  C   UNL     1     102.029 122.997 145.618  0.00  0.00    +0.000 A 
ATOM     63  C   UNL     1     101.047 123.920 146.093  0.00  0.00    +0.000 A 
ATOM     64  C   UNL     1     101.303 123.377 145.527  0.00  0.00    +0.000 A 
ENDBRANCH  57  59
ENDBRANCH  55  56
ENDBRANCH  53  55
ENDBRANCH  52  53
ENDBRANCH  51  52
ENDBRANCH  42  47
ENDBRANCH  36  42
ENDBRANCH   1  39
TORSDOF 13
ENDMDL
MODEL 7
REMARK VINA RESULT:     -10.2      2.451      3.695
REMARK  Name = 131752764
REMARK  13 active torsions:
REMARK  status: ('A' for Active; 'I' for Inactive)
REMARK    1  A    between atoms: O_1  and  C_23
REMARK    2  A    between atoms: O_1  and  C_25
REMARK    3  A    between atoms: O_4  and  C_29
REMARK    4  A    between atoms: O_4  and  C_40
REMARK    5  A    between atoms: O_11  and  C_33
REMARK    6  A    between atoms: O_11  and  C_47
REMARK    7  A    between atoms: O_12  and  C_39
REMARK    8  A    between atoms: O_12  and  C_46
REMARK    9  A    between atoms: C_32  and  C_33
REMARK   10  A    between atoms: C_38  and  C_41
REMARK   11  A    between atoms: C_42  and  C_50
REMARK   12  A    between atoms: C_47  and  C_52
REMARK   13  A    between atoms: C_57  and  C_59
REMARK                            x       y       z     vdW  Elec       q    Type
REMARK                         _______ _______ _______ _____ _____    ______ ____
ROOT
ATOM      1  O   UNL     1     110.940 128.815 138.893  0.00  0.00    +0.000 OA
ENDROOT
BRANCH   1   5
ATOM      2  O   UNL     1     111.177 128.343 141.010  0.00  0.00    +0.000 OA
ATOM      3  O   UNL     1     111.312 130.301 139.504  0.00  0.00    +0.000 OA
ATOM      4  O   UNL     1     111.644 131.166 140.610  0.00  0.00    +0.000 OA
ATOM      5  C   UNL     1     111.081 128.905 139.700  0.00  0.00    +0.000 A 
ATOM      6  C   UNL     1     111.035 128.253 140.202  0.00  0.00    +0.000 A 
ATOM      7  C   UNL     1     111.267 129.649 140.005  0.00  0.00    +0.000 A 
ATOM      8  C   UNL     1     111.408 129.739 140.813  0.00  0.00    +0.000 A 
ATOM      9  C   UNL     1     111.363 129.086 141.316  0.00  0.00    +0.000 A 
ATOM     10  C   UNL     1     111.702 129.939 142.483  0.00  0.00    +0.000 A 
ATOM     11  C   UNL     1     111.508 129.167 142.159  0.00  0.00    +0.000 A 
ATOM     12  C   UNL     1     111.601 130.519 141.119  0.00  0.00    +0.000 A 
ATOM     13  C   UNL     1     111.749 130.619 141.960  0.00  0.00    +0.000 A 
BRANCH   6  15
ATOM     14  O   UNL     1     110.288 125.279 138.982  0.00  0.00    +0.000 OA
ATOM     15  C   UNL     1     110.849 127.509 139.897  0.00  0.00    +0.000 A 
ATOM     16  C   UNL     1     110.067 127.324 139.712  0.00  0.00    +0.000 A 
ATOM     17  C   UNL     1     111.444 126.951 139.778  0.00  0.00    +0.000 A 
ATOM     18  C   UNL     1     109.879 126.581 139.407  0.00  0.00    +0.000 A 
ATOM     19  C   UNL     1     111.257 126.207 139.473  0.00  0.00    +0.000 A 
ATOM     20  C   UNL     1     110.475 126.022 139.287  0.00  0.00    +0.000 A 
ENDBRANCH   6  15
BRANCH  10  21
ATOM     21  O   UNL     1     111.843 130.026 143.291  0.00  0.00    +0.000 OA
BRANCH  21  30
ATOM     22  O   UNL     1     110.596 130.558 143.747  0.00  0.00    +0.000 OA
ATOM     23  O   UNL     1     110.556 128.890 145.576  0.00  0.00    +0.000 OA
ATOM     24  O   UNL     1     109.324 129.978 145.422  0.00  0.00    +0.000 OA
ATOM     25  O   UNL     1     111.815 128.915 144.510  0.00  0.00    +0.000 OA
ATOM     26  C   UNL     1     110.569 129.446 144.967  0.00  0.00    +0.000 C 
ATOM     27  C   UNL     1     109.954 129.990 144.889  0.00  0.00    +0.000 C 
ATOM     28  C   UNL     1     111.199 129.459 144.434  0.00  0.00    +0.000 C 
ATOM     29  C   UNL     1     109.967 130.546 144.280  0.00  0.00    +0.000 C 
ATOM     30  C   UNL     1     111.212 130.015 143.824  0.00  0.00    +0.000 C 
BRANCH  29  32
ATOM     31  O   UNL     1     109.359 131.638 143.587  0.00  0.00    +0.000 OA
ATOM     32  C   UNL     1     109.351 131.089 144.203  0.00  0.00    +0.000 C 
ENDBRANCH  29  32
ENDBRANCH  21  30
ENDBRANCH  10  21
ENDBRANCH   1   5
BRANCH   1  39
ATOM     33  O   UNL     1     112.304 128.907 138.478  0.00  0.00    +0.000 OA
ATOM     34  O   UNL     1     111.601 130.118 136.436  0.00  0.00    +0.000 OA
ATOM     35  O   UNL     1     113.200 129.806 136.702  0.00  0.00    +0.000 OA
ATOM     36  C   UNL     1     111.271 129.466 137.664  0.00  0.00    +0.000 C 
ATOM     37  C   UNL     1     111.835 129.714 137.117  0.00  0.00    +0.000 C 
ATOM     38  C   UNL     1     112.635 129.559 137.249  0.00  0.00    +0.000 C 
ATOM     39  C   UNL     1     111.505 129.063 138.344  0.00  0.00    +0.000 C 
ATOM     40  C   UNL     1     112.869 129.155 137.929  0.00  0.00    +0.000 C 
ATOM     41  C   UNL     1     113.668 128.999 138.062  0.00  0.00    +0.000 C 
BRANCH  36  42
ATOM     42  O   UNL     1     110.471 129.622 137.532  0.00  0.00    +0.000 OA
BRANCH  42  47
ATOM     43  O   UNL     1     110.422 128.558 136.578  0.00  0.00    +0.000 OA
ATOM     44  O   UNL     1     108.900 129.997 137.195  0.00  0.00    +0.000 OA
ATOM     45  O   UNL     1     108.065 129.122 136.073  0.00  0.00    +0.000 OA
ATOM     46  O   UNL     1     108.801 127.870 135.289  0.00  0.00    +0.000 OA
ATOM     47  C   UNL     1     110.054 129.184 136.971  0.00  0.00    +0.000 C 
ATOM     48  C   UNL     1     109.268 129.371 136.802  0.00  0.00    +0.000 C 
ATOM     49  C   UNL     1     108.851 128.933 136.241  0.00  0.00    +0.000 C 
ATOM     50  C   UNL     1     109.218 128.308 135.849  0.00  0.00    +0.000 C 
ATOM     51  C   UNL     1     110.004 128.120 136.017  0.00  0.00    +0.000 C 
BRANCH  51  52
ATOM     52  C   UNL     1     110.372 127.495 135.626  0.00  0.00    +0.000 C 
BRANCH  52  53
ATOM     53  O   UNL     1     110.687 126.866 136.056  0.00  0.00    +0.000 OA
BRANCH  53  55
ATOM     54  O   UNL     1     110.947 125.966 134.977  0.00  0.00    +0.000 OA
ATOM     55  C   UNL     1     111.180 126.318 135.686  0.00  0.00    +0.000 C 
BRANCH  55  56
ATOM     56  C   UNL     1     111.907 126.122 136.023  0.00  0.00    +0.000 C 
ATOM     57  C   UNL     1     112.117 125.331 136.123  0.00  0.00    +0.000 C 
BRANCH  57  59
ATOM     58  O   UNL     1     115.024 124.546 137.473  0.00  0.00    +0.000 OA
ATOM     59  C   UNL     1     112.844 125.135 136.460  0.00  0.00    +0.000 A 
ATOM     60  C   UNL     1     112.966 124.378 136.764  0.00  0.00    +0.000 A 
ATOM     61  C   UNL     1     113.448 125.696 136.494  0.00  0.00    +0.000 A 
ATOM     62  C   UNL     1     113.693 124.181 137.102  0.00  0.00    +0.000 A 
ATOM     63  C   UNL     1     114.174 125.499 136.831  0.00  0.00    +0.000 A 
ATOM     64  C   UNL     1     114.297 124.742 137.135  0.00  0.00    +0.000 A 
ENDBRANCH  57  59
ENDBRANCH  55  56
ENDBRANCH  53  55
ENDBRANCH  52  53
ENDBRANCH  51  52
ENDBRANCH  42  47
ENDBRANCH  36  42
ENDBRANCH   1  39
TORSDOF 13
ENDMDL
MODEL 8
REMARK VINA RESULT:     -10.2      3.370      5.153
REMARK  Name = 131752764
REMARK  13 active torsions:
REMARK  status: ('A' for Active; 'I' for Inactive)
REMARK    1  A    between atoms: O_1  and  C_23
REMARK    2  A    between atoms: O_1  and  C_25
REMARK    3  A    between atoms: O_4  and  C_29
REMARK    4  A    between atoms: O_4  and  C_40
REMARK    5  A    between atoms: O_11  and  C_33
REMARK    6  A    between atoms: O_11  and  C_47
REMARK    7  A    between atoms: O_12  and  C_39
REMARK    8  A    between atoms: O_12  and  C_46
REMARK    9  A    between atoms: C_32  and  C_33
REMARK   10  A    between atoms: C_38  and  C_41
REMARK   11  A    between atoms: C_42  and  C_50
REMARK   12  A    between atoms: C_47  and  C_52
REMARK   13  A    between atoms: C_57  and  C_59
REMARK                            x       y       z     vdW  Elec       q    Type
REMARK                         _______ _______ _______ _____ _____    ______ ____
ROOT
ATOM      1  O   UNL     1     111.279 128.880 140.857  0.00  0.00    +0.000 OA
ENDROOT
BRANCH   1   5
ATOM      2  O   UNL     1     112.777 130.038 141.941  0.00  0.00    +0.000 OA
ATOM      3  O   UNL     1     110.361 130.133 141.415  0.00  0.00    +0.000 OA
ATOM      4  O   UNL     1     110.220 131.367 142.149  0.00  0.00    +0.000 OA
ATOM      5  C   UNL     1     111.625 129.475 141.312  0.00  0.00    +0.000 A 
ATOM      6  C   UNL     1     112.430 129.443 141.487  0.00  0.00    +0.000 A 
ATOM      7  C   UNL     1     111.166 130.101 141.590  0.00  0.00    +0.000 A 
ATOM      8  C   UNL     1     111.512 130.696 142.045  0.00  0.00    +0.000 A 
ATOM      9  C   UNL     1     112.319 130.665 142.220  0.00  0.00    +0.000 A 
ATOM     10  C   UNL     1     112.218 131.933 142.985  0.00  0.00    +0.000 A 
ATOM     11  C   UNL     1     112.691 131.278 142.692  0.00  0.00    +0.000 A 
ATOM     12  C   UNL     1     111.024 131.343 142.329  0.00  0.00    +0.000 A 
ATOM     13  C   UNL     1     111.380 131.966 142.803  0.00  0.00    +0.000 A 
BRANCH   6  15
ATOM     14  O   UNL     1     114.267 126.937 140.374  0.00  0.00    +0.000 OA
ATOM     15  C   UNL     1     112.890 128.817 141.208  0.00  0.00    +0.000 A 
ATOM     16  C   UNL     1     112.865 128.086 141.590  0.00  0.00    +0.000 A 
ATOM     17  C   UNL     1     113.374 128.921 140.549  0.00  0.00    +0.000 A 
ATOM     18  C   UNL     1     113.323 127.459 141.312  0.00  0.00    +0.000 A 
ATOM     19  C   UNL     1     113.833 128.295 140.270  0.00  0.00    +0.000 A 
ATOM     20  C   UNL     1     113.808 127.564 140.652  0.00  0.00    +0.000 A 
ENDBRANCH   6  15
BRANCH  10  21
ATOM     21  O   UNL     1     112.568 132.527 143.440  0.00  0.00    +0.000 OA
BRANCH  21  30
ATOM     22  O   UNL     1     112.415 131.988 144.755  0.00  0.00    +0.000 OA
ATOM     23  O   UNL     1     111.585 134.179 145.555  0.00  0.00    +0.000 OA
ATOM     24  O   UNL     1     111.709 132.910 146.602  0.00  0.00    +0.000 OA
ATOM     25  O   UNL     1     112.015 133.986 143.973  0.00  0.00    +0.000 OA
ATOM     26  C   UNL     1     111.862 133.449 145.288  0.00  0.00    +0.000 C 
ATOM     27  C   UNL     1     111.924 132.814 145.812  0.00  0.00    +0.000 C 
ATOM     28  C   UNL     1     112.077 133.352 144.498  0.00  0.00    +0.000 C 
ATOM     29  C   UNL     1     112.201 132.084 145.545  0.00  0.00    +0.000 C 
ATOM     30  C   UNL     1     112.353 132.622 144.231  0.00  0.00    +0.000 C 
BRANCH  29  32
ATOM     31  O   UNL     1     111.962 130.710 145.860  0.00  0.00    +0.000 OA
ATOM     32  C   UNL     1     112.262 131.450 146.069  0.00  0.00    +0.000 C 
ENDBRANCH  29  32
ENDBRANCH  21  30
ENDBRANCH  10  21
ENDBRANCH   1   5
BRANCH   1  39
ATOM     33  O   UNL     1     111.171 129.630 139.646  0.00  0.00    +0.000 OA
ATOM     34  O   UNL     1     109.000 128.542 139.165  0.00  0.00    +0.000 OA
ATOM     35  O   UNL     1     109.616 129.655 138.114  0.00  0.00    +0.000 OA
ATOM     36  C   UNL     1     110.139 128.711 140.011  0.00  0.00    +0.000 C 
ATOM     37  C   UNL     1     109.724 128.905 139.325  0.00  0.00    +0.000 C 
ATOM     38  C   UNL     1     110.031 129.461 138.799  0.00  0.00    +0.000 C 
ATOM     39  C   UNL     1     110.862 129.074 140.171  0.00  0.00    +0.000 C 
ATOM     40  C   UNL     1     110.755 129.824 138.960  0.00  0.00    +0.000 C 
ATOM     41  C   UNL     1     111.063 130.381 138.435  0.00  0.00    +0.000 C 
BRANCH  36  42
ATOM     42  O   UNL     1     109.832 128.154 140.537  0.00  0.00    +0.000 OA
BRANCH  42  47
ATOM     43  O   UNL     1     110.271 127.101 139.676  0.00  0.00    +0.000 OA
ATOM     44  O   UNL     1     109.207 127.041 141.581  0.00  0.00    +0.000 OA
ATOM     45  O   UNL     1     109.333 125.431 141.244  0.00  0.00    +0.000 OA
ATOM     46  O   UNL     1     110.085 124.934 139.861  0.00  0.00    +0.000 OA
ATOM     47  C   UNL     1     109.895 127.349 140.368  0.00  0.00    +0.000 C 
ATOM     48  C   UNL     1     109.583 126.792 140.890  0.00  0.00    +0.000 C 
ATOM     49  C   UNL     1     109.646 125.987 140.721  0.00  0.00    +0.000 C 
ATOM     50  C   UNL     1     110.022 125.739 140.030  0.00  0.00    +0.000 C 
ATOM     51  C   UNL     1     110.335 126.296 139.507  0.00  0.00    +0.000 C 
BRANCH  51  52
ATOM     52  C   UNL     1     110.710 126.048 138.817  0.00  0.00    +0.000 C 
BRANCH  52  53
ATOM     53  O   UNL     1     111.482 126.291 138.655  0.00  0.00    +0.000 OA
BRANCH  53  55
ATOM     54  O   UNL     1     111.996 125.409 137.657  0.00  0.00    +0.000 OA
ATOM     55  C   UNL     1     111.805 126.172 137.906  0.00  0.00    +0.000 C 
BRANCH  55  56
ATOM     56  C   UNL     1     111.937 126.814 137.406  0.00  0.00    +0.000 C 
ATOM     57  C   UNL     1     112.680 126.926 137.065  0.00  0.00    +0.000 C 
BRANCH  57  59
ATOM     58  O   UNL     1     113.207 129.494 135.062  0.00  0.00    +0.000 OA
ATOM     59  C   UNL     1     112.812 127.568 136.565  0.00  0.00    +0.000 A 
ATOM     60  C   UNL     1     112.297 127.715 135.938  0.00  0.00    +0.000 A 
ATOM     61  C   UNL     1     113.459 128.063 136.691  0.00  0.00    +0.000 A 
ATOM     62  C   UNL     1     112.428 128.357 135.436  0.00  0.00    +0.000 A 
ATOM     63  C   UNL     1     113.591 128.705 136.190  0.00  0.00    +0.000 A 
ATOM     64  C   UNL     1     113.076 128.852 135.563  0.00  0.00    +0.000 A 
ENDBRANCH  57  59
ENDBRANCH  55  56
ENDBRANCH  53  55
ENDBRANCH  52  53
ENDBRANCH  51  52
ENDBRANCH  42  47
ENDBRANCH  36  42
ENDBRANCH   1  39
TORSDOF 13
ENDMDL
MODEL 9
REMARK VINA RESULT:     -10.2      5.233      8.713
REMARK  Name = 131752764
REMARK  13 active torsions:
REMARK  status: ('A' for Active; 'I' for Inactive)
REMARK    1  A    between atoms: O_1  and  C_23
REMARK    2  A    between atoms: O_1  and  C_25
REMARK    3  A    between atoms: O_4  and  C_29
REMARK    4  A    between atoms: O_4  and  C_40
REMARK    5  A    between atoms: O_11  and  C_33
REMARK    6  A    between atoms: O_11  and  C_47
REMARK    7  A    between atoms: O_12  and  C_39
REMARK    8  A    between atoms: O_12  and  C_46
REMARK    9  A    between atoms: C_32  and  C_33
REMARK   10  A    between atoms: C_38  and  C_41
REMARK   11  A    between atoms: C_42  and  C_50
REMARK   12  A    between atoms: C_47  and  C_52
REMARK   13  A    between atoms: C_57  and  C_59
REMARK                            x       y       z     vdW  Elec       q    Type
REMARK                         _______ _______ _______ _____ _____    ______ ____
ROOT
ATOM      1  O   UNL     1     107.994 129.158 143.357  0.00  0.00    +0.000 OA
ENDROOT
BRANCH   1   5
ATOM      2  O   UNL     1     109.160 131.000 143.420  0.00  0.00    +0.000 OA
ATOM      3  O   UNL     1     109.082 128.798 144.544  0.00  0.00    +0.000 OA
ATOM      4  O   UNL     1     110.206 129.150 145.377  0.00  0.00    +0.000 OA
ATOM      5  C   UNL     1     108.564 129.712 143.576  0.00  0.00    +0.000 A 
ATOM      6  C   UNL     1     108.590 130.446 143.201  0.00  0.00    +0.000 A 
ATOM      7  C   UNL     1     109.108 129.531 144.170  0.00  0.00    +0.000 A 
ATOM      8  C   UNL     1     109.678 130.086 144.388  0.00  0.00    +0.000 A 
ATOM      9  C   UNL     1     109.705 130.821 144.013  0.00  0.00    +0.000 A 
ATOM     10  C   UNL     1     110.863 131.225 144.849  0.00  0.00    +0.000 A 
ATOM     11  C   UNL     1     110.294 131.407 144.232  0.00  0.00    +0.000 A 
ATOM     12  C   UNL     1     110.239 129.886 145.008  0.00  0.00    +0.000 A 
ATOM     13  C   UNL     1     110.836 130.461 145.240  0.00  0.00    +0.000 A 
BRANCH   6  15
ATOM     14  O   UNL     1     106.416 131.167 140.825  0.00  0.00    +0.000 OA
ATOM     15  C   UNL     1     108.046 130.627 142.608  0.00  0.00    +0.000 A 
ATOM     16  C   UNL     1     108.161 130.341 141.842  0.00  0.00    +0.000 A 
ATOM     17  C   UNL     1     107.388 131.092 142.779  0.00  0.00    +0.000 A 
ATOM     18  C   UNL     1     107.619 130.521 141.248  0.00  0.00    +0.000 A 
ATOM     19  C   UNL     1     106.844 131.273 142.185  0.00  0.00    +0.000 A 
ATOM     20  C   UNL     1     106.959 130.987 141.420  0.00  0.00    +0.000 A 
ENDBRANCH   6  15
BRANCH  10  21
ATOM     21  O   UNL     1     111.432 131.782 145.066  0.00  0.00    +0.000 OA
BRANCH  21  30
ATOM     22  O   UNL     1     110.601 132.564 145.927  0.00  0.00    +0.000 OA
ATOM     23  O   UNL     1     112.509 132.888 147.471  0.00  0.00    +0.000 OA
ATOM     24  O   UNL     1     111.043 133.561 147.817  0.00  0.00    +0.000 OA
ATOM     25  O   UNL     1     112.703 131.998 146.096  0.00  0.00    +0.000 OA
ATOM     26  C   UNL     1     111.873 132.780 146.957  0.00  0.00    +0.000 C 
ATOM     27  C   UNL     1     111.140 133.116 147.129  0.00  0.00    +0.000 C 
ATOM     28  C   UNL     1     111.970 132.335 146.269  0.00  0.00    +0.000 C 
ATOM     29  C   UNL     1     110.504 133.008 146.614  0.00  0.00    +0.000 C 
ATOM     30  C   UNL     1     111.334 132.227 145.754  0.00  0.00    +0.000 C 
BRANCH  29  32
ATOM     31  O   UNL     1     109.329 133.701 146.189  0.00  0.00    +0.000 OA
ATOM     32  C   UNL     1     109.771 133.345 146.788  0.00  0.00    +0.000 C 
ENDBRANCH  29  32
ENDBRANCH  21  30
ENDBRANCH  10  21
ENDBRANCH   1   5
BRANCH   1  39
ATOM     33  O   UNL     1     107.150 129.318 144.499  0.00  0.00    +0.000 OA
ATOM     34  O   UNL     1     106.683 126.888 144.496  0.00  0.00    +0.000 OA
ATOM     35  O   UNL     1     105.994 127.859 145.639  0.00  0.00    +0.000 OA
ATOM     36  C   UNL     1     107.338 128.022 143.927  0.00  0.00    +0.000 C 
ATOM     37  C   UNL     1     106.838 127.698 144.497  0.00  0.00    +0.000 C 
ATOM     38  C   UNL     1     106.494 128.183 145.069  0.00  0.00    +0.000 C 
ATOM     39  C   UNL     1     107.493 128.832 143.928  0.00  0.00    +0.000 C 
ATOM     40  C   UNL     1     106.650 128.993 145.070  0.00  0.00    +0.000 C 
ATOM     41  C   UNL     1     106.306 129.479 145.641  0.00  0.00    +0.000 C 
BRANCH  36  42
ATOM     42  O   UNL     1     107.682 127.537 143.355  0.00  0.00    +0.000 OA
BRANCH  42  47
ATOM     43  O   UNL     1     106.449 127.512 142.632  0.00  0.00    +0.000 OA
ATOM     44  O   UNL     1     108.333 126.465 142.284  0.00  0.00    +0.000 OA
ATOM     45  O   UNL     1     107.426 125.903 141.025  0.00  0.00    +0.000 OA
ATOM     46  O   UNL     1     105.868 126.414 140.838  0.00  0.00    +0.000 OA
ATOM     47  C   UNL     1     107.229 127.256 142.726  0.00  0.00    +0.000 C 
ATOM     48  C   UNL     1     107.553 126.720 142.190  0.00  0.00    +0.000 C 
ATOM     49  C   UNL     1     107.100 126.439 141.561  0.00  0.00    +0.000 C 
ATOM     50  C   UNL     1     106.321 126.695 141.467  0.00  0.00    +0.000 C 
ATOM     51  C   UNL     1     105.995 127.231 142.003  0.00  0.00    +0.000 C 
BRANCH  51  52
ATOM     52  C   UNL     1     105.217 127.487 141.910  0.00  0.00    +0.000 C 
BRANCH  52  53
ATOM     53  O   UNL     1     105.052 128.292 141.841  0.00  0.00    +0.000 OA
BRANCH  53  55
ATOM     54  O   UNL     1     103.784 128.269 141.184  0.00  0.00    +0.000 OA
ATOM     55  C   UNL     1     104.271 128.550 141.788  0.00  0.00    +0.000 C 
BRANCH  55  56
ATOM     56  C   UNL     1     103.975 129.091 142.337  0.00  0.00    +0.000 C 
ATOM     57  C   UNL     1     103.581 129.767 142.080  0.00  0.00    +0.000 C 
BRANCH  57  59
ATOM     58  O   UNL     1     102.398 131.929 144.275  0.00  0.00    +0.000 OA
ATOM     59  C   UNL     1     103.285 130.307 142.629  0.00  0.00    +0.000 A 
ATOM     60  C   UNL     1     102.661 130.805 142.423  0.00  0.00    +0.000 A 
ATOM     61  C   UNL     1     103.614 130.350 143.384  0.00  0.00    +0.000 A 
ATOM     62  C   UNL     1     102.364 131.345 142.971  0.00  0.00    +0.000 A 
ATOM     63  C   UNL     1     103.319 130.890 143.933  0.00  0.00    +0.000 A 
ATOM     64  C   UNL     1     102.694 131.388 143.726  0.00  0.00    +0.000 A 
ENDBRANCH  57  59
ENDBRANCH  55  56
ENDBRANCH  53  55
ENDBRANCH  52  53
ENDBRANCH  51  52
ENDBRANCH  42  47
ENDBRANCH  36  42
ENDBRANCH   1  39
TORSDOF 13
ENDMDL
MODEL 10
REMARK VINA RESULT:     -10.2      2.919      3.850
REMARK  Name = 131752764
REMARK  13 active torsions:
REMARK  status: ('A' for Active; 'I' for Inactive)
REMARK    1  A    between atoms: O_1  and  C_23
REMARK    2  A    between atoms: O_1  and  C_25
REMARK    3  A    between atoms: O_4  and  C_29
REMARK    4  A    between atoms: O_4  and  C_40
REMARK    5  A    between atoms: O_11  and  C_33
REMARK    6  A    between atoms: O_11  and  C_47
REMARK    7  A    between atoms: O_12  and  C_39
REMARK    8  A    between atoms: O_12  and  C_46
REMARK    9  A    between atoms: C_32  and  C_33
REMARK   10  A    between atoms: C_38  and  C_41
REMARK   11  A    between atoms: C_42  and  C_50
REMARK   12  A    between atoms: C_47  and  C_52
REMARK   13  A    between atoms: C_57  and  C_59
REMARK                            x       y       z     vdW  Elec       q    Type
REMARK                         _______ _______ _______ _____ _____    ______ ____
ROOT
ATOM      1  O   UNL     1     112.065 129.683 139.111  0.00  0.00    +0.000 OA
ENDROOT
BRANCH   1   5
ATOM      2  O   UNL     1     111.896 129.249 141.243  0.00  0.00    +0.000 OA
ATOM      3  O   UNL     1     111.205 130.993 139.629  0.00  0.00    +0.000 OA
ATOM      4  O   UNL     1     110.562 131.748 140.676  0.00  0.00    +0.000 OA
ATOM      5  C   UNL     1     111.865 129.756 139.908  0.00  0.00    +0.000 A 
ATOM      6  C   UNL     1     112.095 129.176 140.446  0.00  0.00    +0.000 A 
ATOM      7  C   UNL     1     111.435 130.412 140.166  0.00  0.00    +0.000 A 
ATOM      8  C   UNL     1     111.236 130.485 140.963  0.00  0.00    +0.000 A 
ATOM      9  C   UNL     1     111.466 129.904 141.502  0.00  0.00    +0.000 A 
ATOM     10  C   UNL     1     110.816 130.649 142.610  0.00  0.00    +0.000 A 
ATOM     11  C   UNL     1     111.264 129.969 142.335  0.00  0.00    +0.000 A 
ATOM     12  C   UNL     1     110.788 131.172 141.220  0.00  0.00    +0.000 A 
ATOM     13  C   UNL     1     110.577 131.254 142.050  0.00  0.00    +0.000 A 
BRANCH   6  15
ATOM     14  O   UNL     1     113.818 126.557 139.414  0.00  0.00    +0.000 OA
ATOM     15  C   UNL     1     112.526 128.520 140.188  0.00  0.00    +0.000 A 
ATOM     16  C   UNL     1     113.341 128.581 140.075  0.00  0.00    +0.000 A 
ATOM     17  C   UNL     1     112.141 127.806 140.042  0.00  0.00    +0.000 A 
ATOM     18  C   UNL     1     113.772 127.927 139.817  0.00  0.00    +0.000 A 
ATOM     19  C   UNL     1     112.572 127.150 139.784  0.00  0.00    +0.000 A 
ATOM     20  C   UNL     1     113.387 127.211 139.672  0.00  0.00    +0.000 A 
ENDBRANCH   6  15
BRANCH  10  21
ATOM     21  O   UNL     1     110.618 130.720 143.408  0.00  0.00    +0.000 OA
BRANCH  21  30
ATOM     22  O   UNL     1     111.434 131.846 143.739  0.00  0.00    +0.000 OA
ATOM     23  O   UNL     1     112.065 130.759 145.872  0.00  0.00    +0.000 OA
ATOM     24  O   UNL     1     112.670 132.247 145.492  0.00  0.00    +0.000 OA
ATOM     25  O   UNL     1     111.039 129.996 144.829  0.00  0.00    +0.000 OA
ATOM     26  C   UNL     1     111.855 131.121 145.161  0.00  0.00    +0.000 C 
ATOM     27  C   UNL     1     112.157 131.865 144.971  0.00  0.00    +0.000 C 
ATOM     28  C   UNL     1     111.342 130.740 144.640  0.00  0.00    +0.000 C 
ATOM     29  C   UNL     1     111.947 132.227 144.260  0.00  0.00    +0.000 C 
ATOM     30  C   UNL     1     111.131 131.102 143.929  0.00  0.00    +0.000 C 
BRANCH  29  32
ATOM     31  O   UNL     1     111.738 133.582 143.856  0.00  0.00    +0.000 OA
ATOM     32  C   UNL     1     112.249 132.971 144.071  0.00  0.00    +0.000 C 
ENDBRANCH  29  32
ENDBRANCH  21  30
ENDBRANCH  10  21
ENDBRANCH   1   5
BRANCH   1  39
ATOM     33  O   UNL     1     110.752 129.355 138.651  0.00  0.00    +0.000 OA
ATOM     34  O   UNL     1     111.170 130.613 136.561  0.00  0.00    +0.000 OA
ATOM     35  O   UNL     1     109.718 129.866 136.798  0.00  0.00    +0.000 OA
ATOM     36  C   UNL     1     111.617 130.148 137.836  0.00  0.00    +0.000 C 
ATOM     37  C   UNL     1     111.031 130.194 137.258  0.00  0.00    +0.000 C 
ATOM     38  C   UNL     1     110.305 129.820 137.376  0.00  0.00    +0.000 C 
ATOM     39  C   UNL     1     111.478 129.729 138.532  0.00  0.00    +0.000 C 
ATOM     40  C   UNL     1     110.165 129.401 138.072  0.00  0.00    +0.000 C 
ATOM     41  C   UNL     1     109.440 129.027 138.191  0.00  0.00    +0.000 C 
BRANCH  36  42
ATOM     42  O   UNL     1     112.344 130.522 137.718  0.00  0.00    +0.000 OA
BRANCH  42  47
ATOM     43  O   UNL     1     112.749 129.457 136.854  0.00  0.00    +0.000 OA
ATOM     44  O   UNL     1     113.784 131.283 137.457  0.00  0.00    +0.000 OA
ATOM     45  O   UNL     1     114.910 130.600 136.462  0.00  0.00    +0.000 OA
ATOM     46  O   UNL     1     114.595 129.155 135.729  0.00  0.00    +0.000 OA
ATOM     47  C   UNL     1     112.907 130.180 137.221  0.00  0.00    +0.000 C 
ATOM     48  C   UNL     1     113.627 130.560 137.090  0.00  0.00    +0.000 C 
ATOM     49  C   UNL     1     114.190 130.218 136.592  0.00  0.00    +0.000 C 
ATOM     50  C   UNL     1     114.032 129.497 136.226  0.00  0.00    +0.000 C 
ATOM     51  C   UNL     1     113.312 129.116 136.356  0.00  0.00    +0.000 C 
BRANCH  51  52
ATOM     52  C   UNL     1     113.155 128.394 135.990  0.00  0.00    +0.000 C 
BRANCH  52  53
ATOM     53  O   UNL     1     112.770 127.794 136.407  0.00  0.00    +0.000 OA
BRANCH  53  55
ATOM     54  O   UNL     1     111.972 127.344 135.311  0.00  0.00    +0.000 OA
ATOM     55  C   UNL     1     112.398 127.182 135.999  0.00  0.00    +0.000 C 
BRANCH  55  56
ATOM     56  C   UNL     1     112.450 126.408 136.279  0.00  0.00    +0.000 C 
ATOM     57  C   UNL     1     111.779 125.929 136.299  0.00  0.00    +0.000 C 
BRANCH  57  59
ATOM     58  O   UNL     1     111.988 122.832 137.420  0.00  0.00    +0.000 OA
ATOM     59  C   UNL     1     111.832 125.155 136.579  0.00  0.00    +0.000 A 
ATOM     60  C   UNL     1     111.480 124.951 137.297  0.00  0.00    +0.000 A 
ATOM     61  C   UNL     1     112.235 124.584 136.141  0.00  0.00    +0.000 A 
ATOM     62  C   UNL     1     111.532 124.177 137.578  0.00  0.00    +0.000 A 
ATOM     63  C   UNL     1     112.287 123.811 136.421  0.00  0.00    +0.000 A 
ATOM     64  C   UNL     1     111.936 123.607 137.139  0.00  0.00    +0.000 A 
ENDBRANCH  57  59
ENDBRANCH  55  56
ENDBRANCH  53  55
ENDBRANCH  52  53
ENDBRANCH  51  52
ENDBRANCH  42  47
ENDBRANCH  36  42
ENDBRANCH   1  39
TORSDOF 13
ENDMDL
