MODEL 1
REMARK VINA RESULT:      -8.9      0.000      0.000
REMARK  Name = 125273135
REMARK  4 active torsions:
REMARK  status: ('A' for Active; 'I' for Inactive)
REMARK    1  A    between atoms: S_1  and  O_5
REMARK    2  A    between atoms: O_5  and  C_21
REMARK    3  A    between atoms: O_6  and  C_25
REMARK    4  A    between atoms: C_11  and  C_13
REMARK                            x       y       z     vdW  Elec       q    Type
REMARK                         _______ _______ _______ _____ _____    ______ ____
ROOT
ATOM      1  O   UNL     1     104.217 124.203 146.684  0.00  0.00    +0.000 OA
ATOM      2  O   UNL     1     102.797 125.733 148.014  0.00  0.00    +0.000 OA
ATOM      3  O   UNL     1     101.606 125.031 147.602  0.00  0.00    +0.000 OA
ATOM      4  C   UNL     1     104.563 124.814 147.118  0.00  0.00    +0.000 C 
ATOM      5  C   UNL     1     104.090 125.324 147.561  0.00  0.00    +0.000 C 
ATOM      6  C   UNL     1     102.926 124.612 147.137  0.00  0.00    +0.000 A 
ATOM      7  C   UNL     1     103.271 125.223 147.571  0.00  0.00    +0.000 C 
ATOM      8  C   UNL     1     103.399 124.102 146.694  0.00  0.00    +0.000 A 
ATOM      9  C   UNL     1     102.071 124.517 147.156  0.00  0.00    +0.000 A 
ATOM     10  C   UNL     1     103.051 123.461 146.238  0.00  0.00    +0.000 A 
ATOM     11  C   UNL     1     102.199 123.351 146.245  0.00  0.00    +0.000 A 
ATOM     12  C   UNL     1     101.706 123.882 146.707  0.00  0.00    +0.000 A 
ENDROOT
BRANCH   4  14
ATOM     13  O   UNL     1     106.948 125.564 145.732  0.00  0.00    +0.000 OA
ATOM     14  C   UNL     1     105.381 124.916 147.108  0.00  0.00    +0.000 A 
ATOM     15  C   UNL     1     105.755 125.189 146.425  0.00  0.00    +0.000 A 
ATOM     16  C   UNL     1     105.827 124.744 147.781  0.00  0.00    +0.000 A 
ATOM     17  C   UNL     1     106.574 125.291 146.415  0.00  0.00    +0.000 A 
ATOM     18  C   UNL     1     106.645 124.845 147.771  0.00  0.00    +0.000 A 
ATOM     19  C   UNL     1     107.019 125.118 147.088  0.00  0.00    +0.000 A 
BRANCH  19  20
ATOM     20  O   UNL     1     107.838 125.220 147.078  0.00  0.00    +0.000 OA
ATOM     21  C   UNL     1     108.272 125.135 147.774  0.00  0.00    +0.000 C 
ENDBRANCH  19  20
ENDBRANCH   4  14
BRANCH  11  22
ATOM     22  O   UNL     1     101.857 122.739 145.810  0.00  0.00    +0.000 OA
BRANCH  22  23
ATOM     23  S   UNL     1     101.414 122.910 145.135  0.00  0.00    +0.000 S 
ATOM     24  O   UNL     1     100.972 123.081 144.460  0.00  0.00    +0.000 OA
ATOM     25  O   UNL     1     100.719 122.852 145.576  0.00  0.00    +0.000 OA
ATOM     26  O   UNL     1     102.109 122.968 144.694  0.00  0.00    +0.000 OA
ENDBRANCH  22  23
ENDBRANCH  11  22
TORSDOF 4
ENDMDL
MODEL 2
REMARK VINA RESULT:      -8.8      6.730      8.473
REMARK  Name = 125273135
REMARK  4 active torsions:
REMARK  status: ('A' for Active; 'I' for Inactive)
REMARK    1  A    between atoms: S_1  and  O_5
REMARK    2  A    between atoms: O_5  and  C_21
REMARK    3  A    between atoms: O_6  and  C_25
REMARK    4  A    between atoms: C_11  and  C_13
REMARK                            x       y       z     vdW  Elec       q    Type
REMARK                         _______ _______ _______ _____ _____    ______ ____
ROOT
ATOM      1  O   UNL     1     104.603 124.677 139.485  0.00  0.00    +0.000 OA
ATOM      2  O   UNL     1     105.847 122.814 140.537  0.00  0.00    +0.000 OA
ATOM      3  O   UNL     1     106.507 123.726 141.438  0.00  0.00    +0.000 OA
ATOM      4  C   UNL     1     104.489 123.904 139.219  0.00  0.00    +0.000 C 
ATOM      5  C   UNL     1     104.904 123.283 139.570  0.00  0.00    +0.000 C 
ATOM      6  C   UNL     1     105.544 124.208 140.451  0.00  0.00    +0.000 A 
ATOM      7  C   UNL     1     105.432 123.435 140.187  0.00  0.00    +0.000 C 
ATOM      8  C   UNL     1     105.129 124.829 140.100  0.00  0.00    +0.000 A 
ATOM      9  C   UNL     1     106.097 124.353 141.094  0.00  0.00    +0.000 A 
ATOM     10  C   UNL     1     105.238 125.639 140.368  0.00  0.00    +0.000 A 
ATOM     11  C   UNL     1     105.786 125.803 141.009  0.00  0.00    +0.000 A 
ATOM     12  C   UNL     1     106.218 125.156 141.375  0.00  0.00    +0.000 A 
ENDROOT
BRANCH   4  14
ATOM     13  O   UNL     1     101.810 123.746 138.238  0.00  0.00    +0.000 OA
ATOM     14  C   UNL     1     103.962 123.752 138.604  0.00  0.00    +0.000 A 
ATOM     15  C   UNL     1     103.150 123.825 138.729  0.00  0.00    +0.000 A 
ATOM     16  C   UNL     1     104.247 123.526 137.863  0.00  0.00    +0.000 A 
ATOM     17  C   UNL     1     102.622 123.672 138.113  0.00  0.00    +0.000 A 
ATOM     18  C   UNL     1     103.720 123.374 137.247  0.00  0.00    +0.000 A 
ATOM     19  C   UNL     1     102.908 123.447 137.372  0.00  0.00    +0.000 A 
BRANCH  19  20
ATOM     20  O   UNL     1     102.379 123.295 136.756  0.00  0.00    +0.000 OA
ATOM     21  C   UNL     1     102.649 122.943 136.060  0.00  0.00    +0.000 C 
ENDBRANCH  19  20
ENDBRANCH   4  14
BRANCH  11  22
ATOM     22  O   UNL     1     105.897 126.577 141.272  0.00  0.00    +0.000 OA
BRANCH  22  23
ATOM     23  S   UNL     1     105.309 126.951 141.715  0.00  0.00    +0.000 S 
ATOM     24  O   UNL     1     104.721 127.324 142.157  0.00  0.00    +0.000 OA
ATOM     25  O   UNL     1     105.042 127.336 141.036  0.00  0.00    +0.000 OA
ATOM     26  O   UNL     1     105.576 126.565 142.394  0.00  0.00    +0.000 OA
ENDBRANCH  22  23
ENDBRANCH  11  22
TORSDOF 4
ENDMDL
MODEL 3
REMARK VINA RESULT:      -8.7      1.842      5.162
REMARK  Name = 125273135
REMARK  4 active torsions:
REMARK  status: ('A' for Active; 'I' for Inactive)
REMARK    1  A    between atoms: S_1  and  O_5
REMARK    2  A    between atoms: O_5  and  C_21
REMARK    3  A    between atoms: O_6  and  C_25
REMARK    4  A    between atoms: C_11  and  C_13
REMARK                            x       y       z     vdW  Elec       q    Type
REMARK                         _______ _______ _______ _____ _____    ______ ____
ROOT
ATOM      1  O   UNL     1     104.779 124.470 147.225  0.00  0.00    +0.000 OA
ATOM      2  O   UNL     1     105.987 125.026 145.137  0.00  0.00    +0.000 OA
ATOM      3  O   UNL     1     107.171 125.375 145.882  0.00  0.00    +0.000 OA
ATOM      4  C   UNL     1     104.399 124.393 146.496  0.00  0.00    +0.000 C 
ATOM      5  C   UNL     1     104.802 124.578 145.801  0.00  0.00    +0.000 C 
ATOM      6  C   UNL     1     105.962 124.917 146.562  0.00  0.00    +0.000 A 
ATOM      7  C   UNL     1     105.584 124.841 145.833  0.00  0.00    +0.000 C 
ATOM      8  C   UNL     1     105.560 124.732 147.258  0.00  0.00    +0.000 A 
ATOM      9  C   UNL     1     106.777 125.192 146.583  0.00  0.00    +0.000 A 
ATOM     10  C   UNL     1     105.944 124.808 148.023  0.00  0.00    +0.000 A 
ATOM     11  C   UNL     1     106.758 125.081 148.064  0.00  0.00    +0.000 A 
ATOM     12  C   UNL     1     107.177 125.274 147.338  0.00  0.00    +0.000 A 
ENDROOT
BRANCH   4  14
ATOM     13  O   UNL     1     101.638 124.755 147.139  0.00  0.00    +0.000 OA
ATOM     14  C   UNL     1     103.619 124.131 146.464  0.00  0.00    +0.000 A 
ATOM     15  C   UNL     1     103.020 124.574 146.818  0.00  0.00    +0.000 A 
ATOM     16  C   UNL     1     103.435 123.425 146.076  0.00  0.00    +0.000 A 
ATOM     17  C   UNL     1     102.237 124.312 146.785  0.00  0.00    +0.000 A 
ATOM     18  C   UNL     1     102.654 123.163 146.043  0.00  0.00    +0.000 A 
ATOM     19  C   UNL     1     102.055 123.606 146.398  0.00  0.00    +0.000 A 
BRANCH  19  20
ATOM     20  O   UNL     1     101.273 123.344 146.365  0.00  0.00    +0.000 OA
ATOM     21  C   UNL     1     101.062 122.742 145.842  0.00  0.00    +0.000 C 
ENDBRANCH  19  20
ENDBRANCH   4  14
BRANCH  11  22
ATOM     22  O   UNL     1     107.134 125.157 148.794  0.00  0.00    +0.000 OA
BRANCH  22  23
ATOM     23  S   UNL     1     107.406 124.486 149.190  0.00  0.00    +0.000 S 
ATOM     24  O   UNL     1     107.678 123.815 149.586  0.00  0.00    +0.000 OA
ATOM     25  O   UNL     1     108.131 124.550 148.800  0.00  0.00    +0.000 OA
ATOM     26  O   UNL     1     106.682 124.422 149.579  0.00  0.00    +0.000 OA
ENDBRANCH  22  23
ENDBRANCH  11  22
TORSDOF 4
ENDMDL
MODEL 4
REMARK VINA RESULT:      -8.1     13.280     14.900
REMARK  Name = 125273135
REMARK  4 active torsions:
REMARK  status: ('A' for Active; 'I' for Inactive)
REMARK    1  A    between atoms: S_1  and  O_5
REMARK    2  A    between atoms: O_5  and  C_21
REMARK    3  A    between atoms: O_6  and  C_25
REMARK    4  A    between atoms: C_11  and  C_13
REMARK                            x       y       z     vdW  Elec       q    Type
REMARK                         _______ _______ _______ _____ _____    ______ ____
ROOT
ATOM      1  O   UNL     1     113.784 127.846 136.381  0.00  0.00    +0.000 OA
ATOM      2  O   UNL     1     111.491 127.673 135.465  0.00  0.00    +0.000 OA
ATOM      3  O   UNL     1     111.319 126.373 136.066  0.00  0.00    +0.000 OA
ATOM      4  C   UNL     1     113.475 128.461 135.926  0.00  0.00    +0.000 C 
ATOM      5  C   UNL     1     112.710 128.403 135.621  0.00  0.00    +0.000 C 
ATOM      6  C   UNL     1     112.566 127.117 136.226  0.00  0.00    +0.000 A 
ATOM      7  C   UNL     1     112.255 127.731 135.771  0.00  0.00    +0.000 C 
ATOM      8  C   UNL     1     113.330 127.174 136.531  0.00  0.00    +0.000 A 
ATOM      9  C   UNL     1     112.082 126.421 136.375  0.00  0.00    +0.000 A 
ATOM     10  C   UNL     1     113.664 126.541 137.007  0.00  0.00    +0.000 A 
ATOM     11  C   UNL     1     113.196 125.839 137.166  0.00  0.00    +0.000 A 
ATOM     12  C   UNL     1     112.399 125.779 136.848  0.00  0.00    +0.000 A 
ENDROOT
BRANCH   4  14
ATOM     13  O   UNL     1     114.335 131.083 136.670  0.00  0.00    +0.000 OA
ATOM     14  C   UNL     1     113.928 129.133 135.776  0.00  0.00    +0.000 A 
ATOM     15  C   UNL     1     113.905 129.771 136.298  0.00  0.00    +0.000 A 
ATOM     16  C   UNL     1     114.407 129.167 135.104  0.00  0.00    +0.000 A 
ATOM     17  C   UNL     1     114.359 130.444 136.148  0.00  0.00    +0.000 A 
ATOM     18  C   UNL     1     114.861 129.838 134.954  0.00  0.00    +0.000 A 
ATOM     19  C   UNL     1     114.837 130.477 135.476  0.00  0.00    +0.000 A 
BRANCH  19  20
ATOM     20  O   UNL     1     115.291 131.150 135.326  0.00  0.00    +0.000 OA
ATOM     21  C   UNL     1     115.699 131.221 134.613  0.00  0.00    +0.000 C 
ENDBRANCH  19  20
ENDBRANCH   4  14
BRANCH  11  22
ATOM     22  O   UNL     1     113.508 125.226 137.622  0.00  0.00    +0.000 OA
BRANCH  22  23
ATOM     23  S   UNL     1     114.229 124.883 137.413  0.00  0.00    +0.000 S 
ATOM     24  O   UNL     1     114.949 124.540 137.204  0.00  0.00    +0.000 OA
ATOM     25  O   UNL     1     113.845 124.423 136.845  0.00  0.00    +0.000 OA
ATOM     26  O   UNL     1     114.612 125.343 137.981  0.00  0.00    +0.000 OA
ENDBRANCH  22  23
ENDBRANCH  11  22
TORSDOF 4
ENDMDL
MODEL 5
REMARK VINA RESULT:      -8.1      1.132      2.198
REMARK  Name = 125273135
REMARK  4 active torsions:
REMARK  status: ('A' for Active; 'I' for Inactive)
REMARK    1  A    between atoms: S_1  and  O_5
REMARK    2  A    between atoms: O_5  and  C_21
REMARK    3  A    between atoms: O_6  and  C_25
REMARK    4  A    between atoms: C_11  and  C_13
REMARK                            x       y       z     vdW  Elec       q    Type
REMARK                         _______ _______ _______ _____ _____    ______ ____
ROOT
ATOM      1  O   UNL     1     104.028 124.760 147.247  0.00  0.00    +0.000 OA
ATOM      2  O   UNL     1     103.478 123.306 145.321  0.00  0.00    +0.000 OA
ATOM      3  O   UNL     1     102.082 123.309 145.681  0.00  0.00    +0.000 OA
ATOM      4  C   UNL     1     104.626 124.509 146.737  0.00  0.00    +0.000 C 
ATOM      5  C   UNL     1     104.443 124.024 146.095  0.00  0.00    +0.000 C 
ATOM      6  C   UNL     1     103.065 124.043 146.474  0.00  0.00    +0.000 A 
ATOM      7  C   UNL     1     103.662 123.791 145.963  0.00  0.00    +0.000 C 
ATOM      8  C   UNL     1     103.248 124.527 147.116  0.00  0.00    +0.000 A 
ATOM      9  C   UNL     1     102.255 123.793 146.325  0.00  0.00    +0.000 A 
ATOM     10  C   UNL     1     102.634 124.796 147.654  0.00  0.00    +0.000 A 
ATOM     11  C   UNL     1     101.820 124.557 147.522  0.00  0.00    +0.000 A 
ATOM     12  C   UNL     1     101.629 124.052 146.853  0.00  0.00    +0.000 A 
ENDROOT
BRANCH   4  14
ATOM     13  O   UNL     1     107.055 125.675 145.784  0.00  0.00    +0.000 OA
ATOM     14  C   UNL     1     105.406 124.741 146.868  0.00  0.00    +0.000 A 
ATOM     15  C   UNL     1     105.839 125.091 146.260  0.00  0.00    +0.000 A 
ATOM     16  C   UNL     1     105.753 124.624 147.608  0.00  0.00    +0.000 A 
ATOM     17  C   UNL     1     106.621 125.325 146.392  0.00  0.00    +0.000 A 
ATOM     18  C   UNL     1     106.533 124.857 147.739  0.00  0.00    +0.000 A 
ATOM     19  C   UNL     1     106.967 125.207 147.131  0.00  0.00    +0.000 A 
BRANCH  19  20
ATOM     20  O   UNL     1     107.748 125.440 147.262  0.00  0.00    +0.000 OA
ATOM     21  C   UNL     1     108.164 125.139 147.907  0.00  0.00    +0.000 C 
ENDBRANCH  19  20
ENDBRANCH   4  14
BRANCH  11  22
ATOM     22  O   UNL     1     101.225 124.810 148.034  0.00  0.00    +0.000 OA
BRANCH  22  23
ATOM     23  S   UNL     1     101.141 124.458 148.776  0.00  0.00    +0.000 S 
ATOM     24  O   UNL     1     101.058 124.106 149.518  0.00  0.00    +0.000 OA
ATOM     25  O   UNL     1     100.716 123.839 148.434  0.00  0.00    +0.000 OA
ATOM     26  O   UNL     1     101.566 125.078 149.118  0.00  0.00    +0.000 OA
ENDBRANCH  22  23
ENDBRANCH  11  22
TORSDOF 4
ENDMDL
MODEL 6
REMARK VINA RESULT:      -8.0      9.313     10.197
REMARK  Name = 125273135
REMARK  4 active torsions:
REMARK  status: ('A' for Active; 'I' for Inactive)
REMARK    1  A    between atoms: S_1  and  O_5
REMARK    2  A    between atoms: O_5  and  C_21
REMARK    3  A    between atoms: O_6  and  C_25
REMARK    4  A    between atoms: C_11  and  C_13
REMARK                            x       y       z     vdW  Elec       q    Type
REMARK                         _______ _______ _______ _____ _____    ______ ____
ROOT
ATOM      1  O   UNL     1     103.045 132.006 141.159  0.00  0.00    +0.000 OA
ATOM      2  O   UNL     1     100.806 132.360 142.152  0.00  0.00    +0.000 OA
ATOM      3  O   UNL     1     100.923 133.787 141.977  0.00  0.00    +0.000 OA
ATOM      4  C   UNL     1     102.602 131.359 141.417  0.00  0.00    +0.000 C 
ATOM      5  C   UNL     1     101.855 131.477 141.748  0.00  0.00    +0.000 C 
ATOM      6  C   UNL     1     101.996 132.887 141.563  0.00  0.00    +0.000 A 
ATOM      7  C   UNL     1     101.552 132.242 141.821  0.00  0.00    +0.000 C 
ATOM      8  C   UNL     1     102.743 132.769 141.232  0.00  0.00    +0.000 A 
ATOM      9  C   UNL     1     101.669 133.679 141.645  0.00  0.00    +0.000 A 
ATOM     10  C   UNL     1     103.214 133.434 140.960  0.00  0.00    +0.000 A 
ATOM     11  C   UNL     1     102.905 134.232 141.033  0.00  0.00    +0.000 A 
ATOM     12  C   UNL     1     102.126 134.355 141.378  0.00  0.00    +0.000 A 
ENDROOT
BRANCH   4  14
ATOM     13  O   UNL     1     102.820 128.914 139.955  0.00  0.00    +0.000 OA
ATOM     14  C   UNL     1     102.904 130.596 141.344  0.00  0.00    +0.000 A 
ATOM     15  C   UNL     1     102.711 130.137 140.686  0.00  0.00    +0.000 A 
ATOM     16  C   UNL     1     103.399 130.290 141.929  0.00  0.00    +0.000 A 
ATOM     17  C   UNL     1     103.013 129.372 140.613  0.00  0.00    +0.000 A 
ATOM     18  C   UNL     1     103.702 129.527 141.856  0.00  0.00    +0.000 A 
ATOM     19  C   UNL     1     103.509 129.068 141.198  0.00  0.00    +0.000 A 
BRANCH  19  20
ATOM     20  O   UNL     1     103.811 128.303 141.124  0.00  0.00    +0.000 OA
ATOM     21  C   UNL     1     104.471 128.077 141.565  0.00  0.00    +0.000 C 
ENDBRANCH  19  20
ENDBRANCH   4  14
BRANCH  11  22
ATOM     22  O   UNL     1     103.350 134.876 140.774  0.00  0.00    +0.000 OA
BRANCH  22  23
ATOM     23  S   UNL     1     104.077 135.044 141.128  0.00  0.00    +0.000 S 
ATOM     24  O   UNL     1     104.803 135.212 141.482  0.00  0.00    +0.000 OA
ATOM     25  O   UNL     1     104.467 134.678 140.500  0.00  0.00    +0.000 OA
ATOM     26  O   UNL     1     103.686 135.410 141.756  0.00  0.00    +0.000 OA
ENDBRANCH  22  23
ENDBRANCH  11  22
TORSDOF 4
ENDMDL
MODEL 7
REMARK VINA RESULT:      -8.0      1.757      4.772
REMARK  Name = 125273135
REMARK  4 active torsions:
REMARK  status: ('A' for Active; 'I' for Inactive)
REMARK    1  A    between atoms: S_1  and  O_5
REMARK    2  A    between atoms: O_5  and  C_21
REMARK    3  A    between atoms: O_6  and  C_25
REMARK    4  A    between atoms: C_11  and  C_13
REMARK                            x       y       z     vdW  Elec       q    Type
REMARK                         _______ _______ _______ _____ _____    ______ ____
ROOT
ATOM      1  O   UNL     1     104.189 125.042 146.142  0.00  0.00    +0.000 OA
ATOM      2  O   UNL     1     106.038 124.303 147.611  0.00  0.00    +0.000 OA
ATOM      3  O   UNL     1     106.986 125.092 146.863  0.00  0.00    +0.000 OA
ATOM      4  C   UNL     1     104.037 124.524 146.766  0.00  0.00    +0.000 C 
ATOM      5  C   UNL     1     104.654 124.278 147.255  0.00  0.00    +0.000 C 
ATOM      6  C   UNL     1     105.572 125.067 146.497  0.00  0.00    +0.000 A 
ATOM      7  C   UNL     1     105.422 124.549 147.121  0.00  0.00    +0.000 C 
ATOM      8  C   UNL     1     104.956 125.314 146.007  0.00  0.00    +0.000 A 
ATOM      9  C   UNL     1     106.377 125.343 146.368  0.00  0.00    +0.000 A 
ATOM     10  C   UNL     1     105.100 125.853 145.354  0.00  0.00    +0.000 A 
ATOM     11  C   UNL     1     105.897 126.140 145.209  0.00  0.00    +0.000 A 
ATOM     12  C   UNL     1     106.540 125.883 145.720  0.00  0.00    +0.000 A 
ENDROOT
BRANCH   4  14
ATOM     13  O   UNL     1     101.433 124.913 147.876  0.00  0.00    +0.000 OA
ATOM     14  C   UNL     1     103.271 124.252 146.900  0.00  0.00    +0.000 A 
ATOM     15  C   UNL     1     102.736 124.719 147.321  0.00  0.00    +0.000 A 
ATOM     16  C   UNL     1     103.038 123.514 146.614  0.00  0.00    +0.000 A 
ATOM     17  C   UNL     1     101.968 124.447 147.455  0.00  0.00    +0.000 A 
ATOM     18  C   UNL     1     102.271 123.242 146.748  0.00  0.00    +0.000 A 
ATOM     19  C   UNL     1     101.736 123.709 147.169  0.00  0.00    +0.000 A 
BRANCH  19  20
ATOM     20  O   UNL     1     100.968 123.437 147.303  0.00  0.00    +0.000 OA
ATOM     21  C   UNL     1     100.710 122.739 146.948  0.00  0.00    +0.000 C 
ENDBRANCH  19  20
ENDBRANCH   4  14
BRANCH  11  22
ATOM     22  O   UNL     1     106.045 126.658 144.584  0.00  0.00    +0.000 OA
BRANCH  22  23
ATOM     23  S   UNL     1     106.386 126.377 143.887  0.00  0.00    +0.000 S 
ATOM     24  O   UNL     1     106.726 126.096 143.190  0.00  0.00    +0.000 OA
ATOM     25  O   UNL     1     107.131 126.604 144.159  0.00  0.00    +0.000 OA
ATOM     26  O   UNL     1     105.641 126.149 143.615  0.00  0.00    +0.000 OA
ENDBRANCH  22  23
ENDBRANCH  11  22
TORSDOF 4
ENDMDL
MODEL 8
REMARK VINA RESULT:      -7.9     11.811     13.328
REMARK  Name = 125273135
REMARK  4 active torsions:
REMARK  status: ('A' for Active; 'I' for Inactive)
REMARK    1  A    between atoms: S_1  and  O_5
REMARK    2  A    between atoms: O_5  and  C_21
REMARK    3  A    between atoms: O_6  and  C_25
REMARK    4  A    between atoms: C_11  and  C_13
REMARK                            x       y       z     vdW  Elec       q    Type
REMARK                         _______ _______ _______ _____ _____    ______ ____
ROOT
ATOM      1  O   UNL     1     110.619 127.086 136.066  0.00  0.00    +0.000 OA
ATOM      2  O   UNL     1     112.649 128.364 135.454  0.00  0.00    +0.000 OA
ATOM      3  O   UNL     1     111.847 129.473 134.999  0.00  0.00    +0.000 OA
ATOM      4  C   UNL     1     111.366 126.756 136.186  0.00  0.00    +0.000 C 
ATOM      5  C   UNL     1     112.042 127.182 135.982  0.00  0.00    +0.000 C 
ATOM      6  C   UNL     1     111.225 128.267 135.539  0.00  0.00    +0.000 A 
ATOM      7  C   UNL     1     111.972 127.938 135.658  0.00  0.00    +0.000 C 
ATOM      8  C   UNL     1     110.549 127.841 135.743  0.00  0.00    +0.000 A 
ATOM      9  C   UNL     1     111.166 129.056 135.200  0.00  0.00    +0.000 A 
ATOM     10  C   UNL     1     109.765 128.174 135.623  0.00  0.00    +0.000 A 
ATOM     11  C   UNL     1     109.686 128.960 135.286  0.00  0.00    +0.000 A 
ATOM     12  C   UNL     1     110.391 129.404 135.073  0.00  0.00    +0.000 A 
ENDROOT
BRANCH   4  14
ATOM     13  O   UNL     1     111.277 125.016 138.452  0.00  0.00    +0.000 OA
ATOM     14  C   UNL     1     111.437 126.001 136.510  0.00  0.00    +0.000 A 
ATOM     15  C   UNL     1     111.322 125.887 137.319  0.00  0.00    +0.000 A 
ATOM     16  C   UNL     1     111.622 125.359 136.025  0.00  0.00    +0.000 A 
ATOM     17  C   UNL     1     111.392 125.131 137.643  0.00  0.00    +0.000 A 
ATOM     18  C   UNL     1     111.693 124.604 136.349  0.00  0.00    +0.000 A 
ATOM     19  C   UNL     1     111.578 124.490 137.158  0.00  0.00    +0.000 A 
BRANCH  19  20
ATOM     20  O   UNL     1     111.648 123.734 137.482  0.00  0.00    +0.000 OA
ATOM     21  C   UNL     1     111.973 123.122 137.034  0.00  0.00    +0.000 C 
ENDBRANCH  19  20
ENDBRANCH   4  14
BRANCH  11  22
ATOM     22  O   UNL     1     108.938 129.287 135.168  0.00  0.00    +0.000 OA
BRANCH  22  23
ATOM     23  S   UNL     1     108.503 129.568 135.811  0.00  0.00    +0.000 S 
ATOM     24  O   UNL     1     108.069 129.848 136.454  0.00  0.00    +0.000 OA
ATOM     25  O   UNL     1     108.095 128.852 135.848  0.00  0.00    +0.000 OA
ATOM     26  O   UNL     1     108.912 130.284 135.775  0.00  0.00    +0.000 OA
ENDBRANCH  22  23
ENDBRANCH  11  22
TORSDOF 4
ENDMDL
MODEL 9
REMARK VINA RESULT:      -7.9     11.645     12.650
REMARK  Name = 125273135
REMARK  4 active torsions:
REMARK  status: ('A' for Active; 'I' for Inactive)
REMARK    1  A    between atoms: S_1  and  O_5
REMARK    2  A    between atoms: O_5  and  C_21
REMARK    3  A    between atoms: O_6  and  C_25
REMARK    4  A    between atoms: C_11  and  C_13
REMARK                            x       y       z     vdW  Elec       q    Type
REMARK                         _______ _______ _______ _____ _____    ______ ____
ROOT
ATOM      1  O   UNL     1     112.608 126.237 138.347  0.00  0.00    +0.000 OA
ATOM      2  O   UNL     1     114.611 124.995 137.589  0.00  0.00    +0.000 OA
ATOM      3  O   UNL     1     113.830 124.279 136.610  0.00  0.00    +0.000 OA
ATOM      4  C   UNL     1     113.339 126.378 138.702  0.00  0.00    +0.000 C 
ATOM      5  C   UNL     1     114.007 125.964 138.449  0.00  0.00    +0.000 C 
ATOM      6  C   UNL     1     113.211 125.268 137.488  0.00  0.00    +0.000 A 
ATOM      7  C   UNL     1     113.943 125.409 137.842  0.00  0.00    +0.000 C 
ATOM      8  C   UNL     1     112.544 125.682 137.740  0.00  0.00    +0.000 A 
ATOM      9  C   UNL     1     113.158 124.687 136.856  0.00  0.00    +0.000 A 
ATOM     10  C   UNL     1     111.776 125.544 137.379  0.00  0.00    +0.000 A 
ATOM     11  C   UNL     1     111.704 124.967 136.746  0.00  0.00    +0.000 A 
ATOM     12  C   UNL     1     112.399 124.536 136.483  0.00  0.00    +0.000 A 
ENDROOT
BRANCH   4  14
ATOM     13  O   UNL     1     113.548 126.987 141.486  0.00  0.00    +0.000 OA
ATOM     14  C   UNL     1     113.404 126.933 139.309  0.00  0.00    +0.000 A 
ATOM     15  C   UNL     1     113.444 126.682 140.094  0.00  0.00    +0.000 A 
ATOM     16  C   UNL     1     113.428 127.738 139.131  0.00  0.00    +0.000 A 
ATOM     17  C   UNL     1     113.508 127.238 140.701  0.00  0.00    +0.000 A 
ATOM     18  C   UNL     1     113.492 128.293 139.738  0.00  0.00    +0.000 A 
ATOM     19  C   UNL     1     113.532 128.043 140.523  0.00  0.00    +0.000 A 
BRANCH  19  20
ATOM     20  O   UNL     1     113.596 128.598 141.131  0.00  0.00    +0.000 OA
ATOM     21  C   UNL     1     113.672 129.399 140.950  0.00  0.00    +0.000 C 
ENDBRANCH  19  20
ENDBRANCH   4  14
BRANCH  11  22
ATOM     22  O   UNL     1     110.971 124.828 136.394  0.00  0.00    +0.000 OA
BRANCH  22  23
ATOM     23  S   UNL     1     110.659 125.375 135.861  0.00  0.00    +0.000 S 
ATOM     24  O   UNL     1     110.347 125.923 135.327  0.00  0.00    +0.000 OA
ATOM     25  O   UNL     1     110.231 125.727 136.472  0.00  0.00    +0.000 OA
ATOM     26  O   UNL     1     111.087 125.024 135.249  0.00  0.00    +0.000 OA
ENDBRANCH  22  23
ENDBRANCH  11  22
TORSDOF 4
ENDMDL
MODEL 10
REMARK VINA RESULT:      -7.9     11.787     13.038
REMARK  Name = 125273135
REMARK  4 active torsions:
REMARK  status: ('A' for Active; 'I' for Inactive)
REMARK    1  A    between atoms: S_1  and  O_5
REMARK    2  A    between atoms: O_5  and  C_21
REMARK    3  A    between atoms: O_6  and  C_25
REMARK    4  A    between atoms: C_11  and  C_13
REMARK                            x       y       z     vdW  Elec       q    Type
REMARK                         _______ _______ _______ _____ _____    ______ ____
ROOT
ATOM      1  O   UNL     1     110.602 127.313 136.264  0.00  0.00    +0.000 OA
ATOM      2  O   UNL     1     108.138 127.195 136.066  0.00  0.00    +0.000 OA
ATOM      3  O   UNL     1     108.072 128.589 135.703  0.00  0.00    +0.000 OA
ATOM      4  C   UNL     1     110.211 126.602 136.410  0.00  0.00    +0.000 C 
ATOM      5  C   UNL     1     109.389 126.562 136.344  0.00  0.00    +0.000 C 
ATOM      6  C   UNL     1     109.352 127.945 135.986  0.00  0.00    +0.000 A 
ATOM      7  C   UNL     1     108.959 127.235 136.132  0.00  0.00    +0.000 C 
ATOM      8  C   UNL     1     110.173 127.985 136.052  0.00  0.00    +0.000 A 
ATOM      9  C   UNL     1     108.892 128.638 135.766  0.00  0.00    +0.000 A 
ATOM     10  C   UNL     1     110.593 128.720 135.902  0.00  0.00    +0.000 A 
ATOM     11  C   UNL     1     110.151 129.423 135.681  0.00  0.00    +0.000 A 
ATOM     12  C   UNL     1     109.295 129.382 135.613  0.00  0.00    +0.000 A 
ENDROOT
BRANCH   4  14
ATOM     13  O   UNL     1     111.299 124.895 138.427  0.00  0.00    +0.000 OA
ATOM     14  C   UNL     1     110.640 125.930 136.622  0.00  0.00    +0.000 A 
ATOM     15  C   UNL     1     110.754 125.749 137.418  0.00  0.00    +0.000 A 
ATOM     16  C   UNL     1     110.955 125.440 136.038  0.00  0.00    +0.000 A 
ATOM     17  C   UNL     1     111.184 125.076 137.631  0.00  0.00    +0.000 A 
ATOM     18  C   UNL     1     111.384 124.769 136.250  0.00  0.00    +0.000 A 
ATOM     19  C   UNL     1     111.498 124.587 137.046  0.00  0.00    +0.000 A 
BRANCH  19  20
ATOM     20  O   UNL     1     111.928 123.914 137.259  0.00  0.00    +0.000 OA
ATOM     21  C   UNL     1     112.331 123.484 136.682  0.00  0.00    +0.000 C 
ENDBRANCH  19  20
ENDBRANCH   4  14
BRANCH  11  22
ATOM     22  O   UNL     1     110.546 130.132 135.536  0.00  0.00    +0.000 OA
BRANCH  22  23
ATOM     23  S   UNL     1     110.768 130.617 136.165  0.00  0.00    +0.000 S 
ATOM     24  O   UNL     1     110.991 131.102 136.794  0.00  0.00    +0.000 OA
ATOM     25  O   UNL     1     111.507 130.251 136.186  0.00  0.00    +0.000 OA
ATOM     26  O   UNL     1     110.029 130.984 136.144  0.00  0.00    +0.000 OA
ENDBRANCH  22  23
ENDBRANCH  11  22
TORSDOF 4
ENDMDL
