MODEL 1
REMARK VINA RESULT:      -8.0      0.000      0.000
REMARK  Name = 10592359
REMARK  4 active torsions:
REMARK  status: ('A' for Active; 'I' for Inactive)
REMARK    1  A    between atoms: O_2  and  C_10
REMARK    2  A    between atoms: O_3  and  C_13
REMARK    3  A    between atoms: O_6  and  C_21
REMARK    4  A    between atoms: C_9  and  C_12
REMARK                            x       y       z     vdW  Elec       q    Type
REMARK                         _______ _______ _______ _____ _____    ______ ____
ROOT
ATOM      1  O   UNL     1     105.575 124.455 147.390  0.00  0.00    +0.000 OA
ATOM      2  O   UNL     1     106.822 125.703 145.655  0.00  0.00    +0.000 OA
ATOM      3  O   UNL     1     107.860 124.630 149.187  0.00  0.00    +0.000 OA
ATOM      4  C   UNL     1     106.761 125.124 146.960  0.00  0.00    +0.000 A 
ATOM      5  C   UNL     1     106.345 124.708 147.538  0.00  0.00    +0.000 A 
ATOM      6  C   UNL     1     105.219 124.618 146.663  0.00  0.00    +0.000 A 
ATOM      7  C   UNL     1     105.635 125.034 146.085  0.00  0.00    +0.000 A 
ATOM      8  C   UNL     1     106.407 125.287 146.233  0.00  0.00    +0.000 A 
ATOM      9  C   UNL     1     106.705 124.533 148.299  0.00  0.00    +0.000 A 
ATOM     10  C   UNL     1     107.565 125.393 147.102  0.00  0.00    +0.000 A 
ATOM     11  C   UNL     1     107.507 124.794 148.459  0.00  0.00    +0.000 A 
ATOM     12  C   UNL     1     107.940 125.227 147.857  0.00  0.00    +0.000 A 
ENDROOT
BRANCH   6  13
ATOM     13  C   UNL     1     104.448 124.365 146.515  0.00  0.00    +0.000 A 
ATOM     14  C   UNL     1     104.316 123.656 146.114  0.00  0.00    +0.000 A 
ATOM     15  C   UNL     1     103.809 124.821 146.768  0.00  0.00    +0.000 A 
ATOM     16  C   UNL     1     103.546 123.403 145.966  0.00  0.00    +0.000 A 
ATOM     17  C   UNL     1     103.037 124.567 146.620  0.00  0.00    +0.000 A 
ATOM     18  C   UNL     1     102.906 123.859 146.219  0.00  0.00    +0.000 A 
BRANCH  18  19
ATOM     19  O   UNL     1     102.134 123.606 146.070  0.00  0.00    +0.000 OA
ATOM     20  C   UNL     1     101.844 122.928 146.440  0.00  0.00    +0.000 C 
ENDBRANCH  18  19
ENDBRANCH   6  13
BRANCH   7  21
ATOM     21  O   UNL     1     105.280 125.197 145.358  0.00  0.00    +0.000 OA
ATOM     22  C   UNL     1     105.706 125.586 144.769  0.00  0.00    +0.000 C 
ENDBRANCH   7  21
BRANCH   9  23
ATOM     23  O   UNL     1     106.281 124.116 148.872  0.00  0.00    +0.000 OA
ATOM     24  C   UNL     1     106.144 124.456 149.611  0.00  0.00    +0.000 C 
ENDBRANCH   9  23
TORSDOF 4
ENDMDL
MODEL 2
REMARK VINA RESULT:      -7.6      1.201      2.625
REMARK  Name = 10592359
REMARK  4 active torsions:
REMARK  status: ('A' for Active; 'I' for Inactive)
REMARK    1  A    between atoms: O_2  and  C_10
REMARK    2  A    between atoms: O_3  and  C_13
REMARK    3  A    between atoms: O_6  and  C_21
REMARK    4  A    between atoms: C_9  and  C_12
REMARK                            x       y       z     vdW  Elec       q    Type
REMARK                         _______ _______ _______ _____ _____    ______ ____
ROOT
ATOM      1  O   UNL     1     104.406 124.382 146.638  0.00  0.00    +0.000 OA
ATOM      2  O   UNL     1     104.722 124.857 149.047  0.00  0.00    +0.000 OA
ATOM      3  O   UNL     1     107.143 125.214 146.095  0.00  0.00    +0.000 OA
ATOM      4  C   UNL     1     105.236 124.824 147.713  0.00  0.00    +0.000 A 
ATOM      5  C   UNL     1     105.130 124.666 146.911  0.00  0.00    +0.000 A 
ATOM      6  C   UNL     1     103.786 124.256 147.168  0.00  0.00    +0.000 A 
ATOM      7  C   UNL     1     103.891 124.414 147.971  0.00  0.00    +0.000 A 
ATOM      8  C   UNL     1     104.616 124.698 148.244  0.00  0.00    +0.000 A 
ATOM      9  C   UNL     1     105.768 124.793 146.349  0.00  0.00    +0.000 A 
ATOM     10  C   UNL     1     105.986 125.121 148.010  0.00  0.00    +0.000 A 
ATOM     11  C   UNL     1     106.525 125.089 146.627  0.00  0.00    +0.000 A 
ATOM     12  C   UNL     1     106.635 125.254 147.463  0.00  0.00    +0.000 A 
ENDROOT
BRANCH   6  13
ATOM     13  C   UNL     1     103.061 123.972 146.895  0.00  0.00    +0.000 A 
ATOM     14  C   UNL     1     102.434 124.493 146.770  0.00  0.00    +0.000 A 
ATOM     15  C   UNL     1     102.964 123.166 146.748  0.00  0.00    +0.000 A 
ATOM     16  C   UNL     1     101.710 124.209 146.497  0.00  0.00    +0.000 A 
ATOM     17  C   UNL     1     102.238 122.881 146.475  0.00  0.00    +0.000 A 
ATOM     18  C   UNL     1     101.612 123.403 146.350  0.00  0.00    +0.000 A 
BRANCH  18  19
ATOM     19  O   UNL     1     100.886 123.119 146.077  0.00  0.00    +0.000 OA
ATOM     20  C   UNL     1     100.824 122.813 145.313  0.00  0.00    +0.000 C 
ENDBRANCH  18  19
ENDBRANCH   6  13
BRANCH   7  21
ATOM     21  O   UNL     1     103.272 124.288 148.501  0.00  0.00    +0.000 OA
ATOM     22  C   UNL     1     103.393 124.395 149.310  0.00  0.00    +0.000 C 
ENDBRANCH   7  21
BRANCH   9  23
ATOM     23  O   UNL     1     105.654 124.632 145.548  0.00  0.00    +0.000 OA
ATOM     24  C   UNL     1     105.829 125.208 144.983  0.00  0.00    +0.000 C 
ENDBRANCH   9  23
TORSDOF 4
ENDMDL
MODEL 3
REMARK VINA RESULT:      -7.5      1.247      4.369
REMARK  Name = 10592359
REMARK  4 active torsions:
REMARK  status: ('A' for Active; 'I' for Inactive)
REMARK    1  A    between atoms: O_2  and  C_10
REMARK    2  A    between atoms: O_3  and  C_13
REMARK    3  A    between atoms: O_6  and  C_21
REMARK    4  A    between atoms: C_9  and  C_12
REMARK                            x       y       z     vdW  Elec       q    Type
REMARK                         _______ _______ _______ _____ _____    ______ ____
ROOT
ATOM      1  O   UNL     1     104.423 124.144 146.946  0.00  0.00    +0.000 OA
ATOM      2  O   UNL     1     102.809 125.702 147.990  0.00  0.00    +0.000 OA
ATOM      3  O   UNL     1     102.242 122.741 145.620  0.00  0.00    +0.000 OA
ATOM      4  C   UNL     1     103.079 124.582 147.145  0.00  0.00    +0.000 A 
ATOM      5  C   UNL     1     103.617 124.062 146.797  0.00  0.00    +0.000 A 
ATOM      6  C   UNL     1     104.693 124.744 147.443  0.00  0.00    +0.000 A 
ATOM      7  C   UNL     1     104.155 125.264 147.791  0.00  0.00    +0.000 A 
ATOM      8  C   UNL     1     103.347 125.183 147.642  0.00  0.00    +0.000 A 
ATOM      9  C   UNL     1     103.348 123.432 146.277  0.00  0.00    +0.000 A 
ATOM     10  C   UNL     1     102.235 124.507 146.997  0.00  0.00    +0.000 A 
ATOM     11  C   UNL     1     102.509 123.343 146.118  0.00  0.00    +0.000 A 
ATOM     12  C   UNL     1     101.949 123.884 146.480  0.00  0.00    +0.000 A 
ENDROOT
BRANCH   6  13
ATOM     13  C   UNL     1     105.500 124.825 147.593  0.00  0.00    +0.000 A 
ATOM     14  C   UNL     1     105.979 125.238 147.062  0.00  0.00    +0.000 A 
ATOM     15  C   UNL     1     105.829 124.494 148.273  0.00  0.00    +0.000 A 
ATOM     16  C   UNL     1     106.786 125.319 147.211  0.00  0.00    +0.000 A 
ATOM     17  C   UNL     1     106.637 124.575 148.422  0.00  0.00    +0.000 A 
ATOM     18  C   UNL     1     107.114 124.988 147.891  0.00  0.00    +0.000 A 
BRANCH  18  19
ATOM     19  O   UNL     1     107.922 125.069 148.041  0.00  0.00    +0.000 OA
ATOM     20  C   UNL     1     108.278 124.625 148.639  0.00  0.00    +0.000 C 
ENDBRANCH  18  19
ENDBRANCH   6  13
BRANCH   7  21
ATOM     21  O   UNL     1     104.424 125.865 148.289  0.00  0.00    +0.000 OA
ATOM     22  C   UNL     1     103.911 126.468 148.522  0.00  0.00    +0.000 C 
ENDBRANCH   7  21
BRANCH   9  23
ATOM     23  O   UNL     1     103.894 122.918 145.933  0.00  0.00    +0.000 OA
ATOM     24  C   UNL     1     103.842 122.740 145.130  0.00  0.00    +0.000 C 
ENDBRANCH   9  23
TORSDOF 4
ENDMDL
MODEL 4
REMARK VINA RESULT:      -7.5      7.250      9.136
REMARK  Name = 10592359
REMARK  4 active torsions:
REMARK  status: ('A' for Active; 'I' for Inactive)
REMARK    1  A    between atoms: O_2  and  C_10
REMARK    2  A    between atoms: O_3  and  C_13
REMARK    3  A    between atoms: O_6  and  C_21
REMARK    4  A    between atoms: C_9  and  C_12
REMARK                            x       y       z     vdW  Elec       q    Type
REMARK                         _______ _______ _______ _____ _____    ______ ____
ROOT
ATOM      1  O   UNL     1     102.656 130.662 141.492  0.00  0.00    +0.000 OA
ATOM      2  O   UNL     1     103.666 130.160 143.695  0.00  0.00    +0.000 OA
ATOM      3  O   UNL     1     103.820 128.235 140.382  0.00  0.00    +0.000 OA
ATOM      4  C   UNL     1     103.448 129.815 142.325  0.00  0.00    +0.000 A 
ATOM      5  C   UNL     1     103.111 129.982 141.591  0.00  0.00    +0.000 A 
ATOM      6  C   UNL     1     102.536 131.175 142.127  0.00  0.00    +0.000 A 
ATOM      7  C   UNL     1     102.873 131.008 142.861  0.00  0.00    +0.000 A 
ATOM      8  C   UNL     1     103.329 130.327 142.960  0.00  0.00    +0.000 A 
ATOM      9  C   UNL     1     103.229 129.456 140.921  0.00  0.00    +0.000 A 
ATOM     10  C   UNL     1     103.926 129.109 142.441  0.00  0.00    +0.000 A 
ATOM     11  C   UNL     1     103.702 128.746 141.018  0.00  0.00    +0.000 A 
ATOM     12  C   UNL     1     104.053 128.572 141.783  0.00  0.00    +0.000 A 
ENDROOT
BRANCH   6  13
ATOM     13  C   UNL     1     102.080 131.855 142.028  0.00  0.00    +0.000 A 
ATOM     14  C   UNL     1     102.435 132.559 141.784  0.00  0.00    +0.000 A 
ATOM     15  C   UNL     1     101.268 131.832 142.174  0.00  0.00    +0.000 A 
ATOM     16  C   UNL     1     101.979 133.239 141.685  0.00  0.00    +0.000 A 
ATOM     17  C   UNL     1     100.811 132.513 142.075  0.00  0.00    +0.000 A 
ATOM     18  C   UNL     1     101.167 133.216 141.830  0.00  0.00    +0.000 A 
BRANCH  18  19
ATOM     19  O   UNL     1     100.711 133.896 141.732  0.00  0.00    +0.000 OA
ATOM     20  C   UNL     1     100.754 134.506 142.285  0.00  0.00    +0.000 C 
ENDBRANCH  18  19
ENDBRANCH   6  13
BRANCH   7  21
ATOM     21  O   UNL     1     102.754 131.520 143.497  0.00  0.00    +0.000 OA
ATOM     22  C   UNL     1     103.121 131.373 144.220  0.00  0.00    +0.000 C 
ENDBRANCH   7  21
BRANCH   9  23
ATOM     23  O   UNL     1     102.888 129.632 140.191  0.00  0.00    +0.000 OA
ATOM     24  C   UNL     1     102.362 129.099 139.844  0.00  0.00    +0.000 C 
ENDBRANCH   9  23
TORSDOF 4
ENDMDL
MODEL 5
REMARK VINA RESULT:      -7.4     11.169     12.724
REMARK  Name = 10592359
REMARK  4 active torsions:
REMARK  status: ('A' for Active; 'I' for Inactive)
REMARK    1  A    between atoms: O_2  and  C_10
REMARK    2  A    between atoms: O_3  and  C_13
REMARK    3  A    between atoms: O_6  and  C_21
REMARK    4  A    between atoms: C_9  and  C_12
REMARK                            x       y       z     vdW  Elec       q    Type
REMARK                         _______ _______ _______ _____ _____    ______ ____
ROOT
ATOM      1  O   UNL     1     111.669 126.488 136.714  0.00  0.00    +0.000 OA
ATOM      2  O   UNL     1     111.257 124.155 135.996  0.00  0.00    +0.000 OA
ATOM      3  O   UNL     1     109.904 127.467 134.615  0.00  0.00    +0.000 OA
ATOM      4  C   UNL     1     111.029 125.557 135.839  0.00  0.00    +0.000 A 
ATOM      5  C   UNL     1     111.167 126.335 136.079  0.00  0.00    +0.000 A 
ATOM      6  C   UNL     1     112.035 125.864 137.111  0.00  0.00    +0.000 A 
ATOM      7  C   UNL     1     111.897 125.086 136.872  0.00  0.00    +0.000 A 
ATOM      8  C   UNL     1     111.394 124.933 136.236  0.00  0.00    +0.000 A 
ATOM      9  C   UNL     1     110.792 126.994 135.673  0.00  0.00    +0.000 A 
ATOM     10  C   UNL     1     110.508 125.385 135.178  0.00  0.00    +0.000 A 
ATOM     11  C   UNL     1     110.268 126.841 135.010  0.00  0.00    +0.000 A 
ATOM     12  C   UNL     1     110.125 126.031 134.761  0.00  0.00    +0.000 A 
ENDROOT
BRANCH   6  13
ATOM     13  C   UNL     1     112.537 126.016 137.747  0.00  0.00    +0.000 A 
ATOM     14  C   UNL     1     113.350 126.086 137.624  0.00  0.00    +0.000 A 
ATOM     15  C   UNL     1     112.227 126.100 138.507  0.00  0.00    +0.000 A 
ATOM     16  C   UNL     1     113.852 126.239 138.260  0.00  0.00    +0.000 A 
ATOM     17  C   UNL     1     112.729 126.253 139.144  0.00  0.00    +0.000 A 
ATOM     18  C   UNL     1     113.542 126.322 139.019  0.00  0.00    +0.000 A 
BRANCH  18  19
ATOM     19  O   UNL     1     114.045 126.475 139.656  0.00  0.00    +0.000 OA
ATOM     20  C   UNL     1     113.859 127.073 140.194  0.00  0.00    +0.000 C 
ENDBRANCH  18  19
ENDBRANCH   6  13
BRANCH   7  21
ATOM     21  O   UNL     1     112.262 124.462 137.268  0.00  0.00    +0.000 OA
ATOM     22  C   UNL     1     112.144 123.686 137.014  0.00  0.00    +0.000 C 
ENDBRANCH   7  21
BRANCH   9  23
ATOM     23  O   UNL     1     110.936 127.768 135.920  0.00  0.00    +0.000 OA
ATOM     24  C   UNL     1     111.200 128.330 135.377  0.00  0.00    +0.000 C 
ENDBRANCH   9  23
TORSDOF 4
ENDMDL
MODEL 6
REMARK VINA RESULT:      -7.3     12.559     13.413
REMARK  Name = 10592359
REMARK  4 active torsions:
REMARK  status: ('A' for Active; 'I' for Inactive)
REMARK    1  A    between atoms: O_2  and  C_10
REMARK    2  A    between atoms: O_3  and  C_13
REMARK    3  A    between atoms: O_6  and  C_21
REMARK    4  A    between atoms: C_9  and  C_12
REMARK                            x       y       z     vdW  Elec       q    Type
REMARK                         _______ _______ _______ _____ _____    ______ ____
ROOT
ATOM      1  O   UNL     1     112.972 126.384 136.725  0.00  0.00    +0.000 OA
ATOM      2  O   UNL     1     110.865 126.150 135.447  0.00  0.00    +0.000 OA
ATOM      3  O   UNL     1     113.026 123.511 137.200  0.00  0.00    +0.000 OA
ATOM      4  C   UNL     1     111.928 125.562 136.200  0.00  0.00    +0.000 A 
ATOM      5  C   UNL     1     112.630 125.640 136.626  0.00  0.00    +0.000 A 
ATOM      6  C   UNL     1     112.612 127.050 136.398  0.00  0.00    +0.000 A 
ATOM      7  C   UNL     1     111.910 126.972 135.972  0.00  0.00    +0.000 A 
ATOM      8  C   UNL     1     111.568 126.228 135.873  0.00  0.00    +0.000 A 
ATOM      9  C   UNL     1     113.015 124.953 136.971  0.00  0.00    +0.000 A 
ATOM     10  C   UNL     1     111.562 124.792 136.090  0.00  0.00    +0.000 A 
ATOM     11  C   UNL     1     112.664 124.176 136.872  0.00  0.00    +0.000 A 
ATOM     12  C   UNL     1     111.933 124.094 136.428  0.00  0.00    +0.000 A 
ENDROOT
BRANCH   6  13
ATOM     13  C   UNL     1     112.953 127.794 136.497  0.00  0.00    +0.000 A 
ATOM     14  C   UNL     1     112.756 128.256 137.152  0.00  0.00    +0.000 A 
ATOM     15  C   UNL     1     113.493 128.077 135.941  0.00  0.00    +0.000 A 
ATOM     16  C   UNL     1     113.097 129.000 137.250  0.00  0.00    +0.000 A 
ATOM     17  C   UNL     1     113.835 128.822 136.040  0.00  0.00    +0.000 A 
ATOM     18  C   UNL     1     113.637 129.283 136.694  0.00  0.00    +0.000 A 
BRANCH  18  19
ATOM     19  O   UNL     1     113.979 130.028 136.793  0.00  0.00    +0.000 OA
ATOM     20  C   UNL     1     113.514 130.707 136.737  0.00  0.00    +0.000 C 
ENDBRANCH  18  19
ENDBRANCH   6  13
BRANCH   7  21
ATOM     21  O   UNL     1     111.549 127.638 135.645  0.00  0.00    +0.000 OA
ATOM     22  C   UNL     1     110.874 127.555 135.177  0.00  0.00    +0.000 C 
ENDBRANCH   7  21
BRANCH   9  23
ATOM     23  O   UNL     1     113.717 125.041 137.396  0.00  0.00    +0.000 OA
ATOM     24  C   UNL     1     114.380 124.594 137.192  0.00  0.00    +0.000 C 
ENDBRANCH   9  23
TORSDOF 4
ENDMDL
MODEL 7
REMARK VINA RESULT:      -7.2      9.933     11.770
REMARK  Name = 10592359
REMARK  4 active torsions:
REMARK  status: ('A' for Active; 'I' for Inactive)
REMARK    1  A    between atoms: O_2  and  C_10
REMARK    2  A    between atoms: O_3  and  C_13
REMARK    3  A    between atoms: O_6  and  C_21
REMARK    4  A    between atoms: C_9  and  C_12
REMARK                            x       y       z     vdW  Elec       q    Type
REMARK                         _______ _______ _______ _____ _____    ______ ____
ROOT
ATOM      1  O   UNL     1     112.104 126.231 138.092  0.00  0.00    +0.000 OA
ATOM      2  O   UNL     1     114.505 125.661 137.896  0.00  0.00    +0.000 OA
ATOM      3  O   UNL     1     112.532 127.185 140.809  0.00  0.00    +0.000 OA
ATOM      4  C   UNL     1     113.414 126.179 138.660  0.00  0.00    +0.000 A 
ATOM      5  C   UNL     1     112.614 126.369 138.725  0.00  0.00    +0.000 A 
ATOM      6  C   UNL     1     112.394 125.903 137.392  0.00  0.00    +0.000 A 
ATOM      7  C   UNL     1     113.194 125.713 137.327  0.00  0.00    +0.000 A 
ATOM      8  C   UNL     1     113.705 125.851 137.961  0.00  0.00    +0.000 A 
ATOM      9  C   UNL     1     112.299 126.711 139.448  0.00  0.00    +0.000 A 
ATOM     10  C   UNL     1     113.955 126.318 139.313  0.00  0.00    +0.000 A 
ATOM     11  C   UNL     1     112.825 126.857 140.111  0.00  0.00    +0.000 A 
ATOM     12  C   UNL     1     113.659 126.660 140.043  0.00  0.00    +0.000 A 
ENDROOT
BRANCH   6  13
ATOM     13  C   UNL     1     111.885 125.765 136.759  0.00  0.00    +0.000 A 
ATOM     14  C   UNL     1     111.530 125.025 136.668  0.00  0.00    +0.000 A 
ATOM     15  C   UNL     1     111.729 126.366 136.216  0.00  0.00    +0.000 A 
ATOM     16  C   UNL     1     111.020 124.887 136.034  0.00  0.00    +0.000 A 
ATOM     17  C   UNL     1     111.219 126.228 135.582  0.00  0.00    +0.000 A 
ATOM     18  C   UNL     1     110.865 125.489 135.491  0.00  0.00    +0.000 A 
BRANCH  18  19
ATOM     19  O   UNL     1     110.355 125.351 134.857  0.00  0.00    +0.000 OA
ATOM     20  C   UNL     1     109.702 125.841 134.738  0.00  0.00    +0.000 C 
ENDBRANCH  18  19
ENDBRANCH   6  13
BRANCH   7  21
ATOM     21  O   UNL     1     113.485 125.385 136.628  0.00  0.00    +0.000 OA
ATOM     22  C   UNL     1     114.274 125.149 136.580  0.00  0.00    +0.000 C 
ENDBRANCH   7  21
BRANCH   9  23
ATOM     23  O   UNL     1     111.498 126.898 139.504  0.00  0.00    +0.000 OA
ATOM     24  C   UNL     1     111.048 126.598 140.128  0.00  0.00    +0.000 C 
ENDBRANCH   9  23
TORSDOF 4
ENDMDL
MODEL 8
REMARK VINA RESULT:      -7.2      6.591      8.279
REMARK  Name = 10592359
REMARK  4 active torsions:
REMARK  status: ('A' for Active; 'I' for Inactive)
REMARK    1  A    between atoms: O_2  and  C_10
REMARK    2  A    between atoms: O_3  and  C_13
REMARK    3  A    between atoms: O_6  and  C_21
REMARK    4  A    between atoms: C_9  and  C_12
REMARK                            x       y       z     vdW  Elec       q    Type
REMARK                         _______ _______ _______ _____ _____    ______ ____
ROOT
ATOM      1  O   UNL     1     103.335 130.223 142.364  0.00  0.00    +0.000 OA
ATOM      2  O   UNL     1     103.344 128.738 140.384  0.00  0.00    +0.000 OA
ATOM      3  O   UNL     1     105.266 128.496 143.694  0.00  0.00    +0.000 OA
ATOM      4  C   UNL     1     103.813 129.054 141.697  0.00  0.00    +0.000 A 
ATOM      5  C   UNL     1     103.810 129.549 142.357  0.00  0.00    +0.000 A 
ATOM      6  C   UNL     1     102.862 130.403 141.712  0.00  0.00    +0.000 A 
ATOM      7  C   UNL     1     102.865 129.908 141.052  0.00  0.00    +0.000 A 
ATOM      8  C   UNL     1     103.341 129.233 141.044  0.00  0.00    +0.000 A 
ATOM      9  C   UNL     1     104.297 129.373 143.042  0.00  0.00    +0.000 A 
ATOM     10  C   UNL     1     104.304 128.349 141.677  0.00  0.00    +0.000 A 
ATOM     11  C   UNL     1     104.794 128.673 143.040  0.00  0.00    +0.000 A 
ATOM     12  C   UNL     1     104.798 128.157 142.353  0.00  0.00    +0.000 A 
ENDROOT
BRANCH   6  13
ATOM     13  C   UNL     1     102.387 131.076 141.719  0.00  0.00    +0.000 A 
ATOM     14  C   UNL     1     102.685 131.796 141.446  0.00  0.00    +0.000 A 
ATOM     15  C   UNL     1     101.612 131.032 142.000  0.00  0.00    +0.000 A 
ATOM     16  C   UNL     1     102.210 132.469 141.453  0.00  0.00    +0.000 A 
ATOM     17  C   UNL     1     101.136 131.706 142.008  0.00  0.00    +0.000 A 
ATOM     18  C   UNL     1     101.436 132.425 141.734  0.00  0.00    +0.000 A 
BRANCH  18  19
ATOM     19  O   UNL     1     100.960 133.099 141.742  0.00  0.00    +0.000 OA
ATOM     20  C   UNL     1     101.297 133.841 141.872  0.00  0.00    +0.000 C 
ENDBRANCH  18  19
ENDBRANCH   6  13
BRANCH   7  21
ATOM     21  O   UNL     1     102.393 130.086 140.399  0.00  0.00    +0.000 OA
ATOM     22  C   UNL     1     102.272 129.521 139.810  0.00  0.00    +0.000 C 
ENDBRANCH   7  21
BRANCH   9  23
ATOM     23  O   UNL     1     104.288 129.875 143.698  0.00  0.00    +0.000 OA
ATOM     24  C   UNL     1     104.997 130.163 144.005  0.00  0.00    +0.000 C 
ENDBRANCH   9  23
TORSDOF 4
ENDMDL
MODEL 9
REMARK VINA RESULT:      -7.2      9.638     11.923
REMARK  Name = 10592359
REMARK  4 active torsions:
REMARK  status: ('A' for Active; 'I' for Inactive)
REMARK    1  A    between atoms: O_2  and  C_10
REMARK    2  A    between atoms: O_3  and  C_13
REMARK    3  A    between atoms: O_6  and  C_21
REMARK    4  A    between atoms: C_9  and  C_12
REMARK                            x       y       z     vdW  Elec       q    Type
REMARK                         _______ _______ _______ _____ _____    ______ ____
ROOT
ATOM      1  O   UNL     1     113.274 126.107 138.409  0.00  0.00    +0.000 OA
ATOM      2  O   UNL     1     110.903 125.486 138.750  0.00  0.00    +0.000 OA
ATOM      3  O   UNL     1     113.492 124.169 136.246  0.00  0.00    +0.000 OA
ATOM      4  C   UNL     1     112.138 125.320 138.050  0.00  0.00    +0.000 A 
ATOM      5  C   UNL     1     112.928 125.527 137.936  0.00  0.00    +0.000 A 
ATOM      6  C   UNL     1     112.831 126.481 138.996  0.00  0.00    +0.000 A 
ATOM      7  C   UNL     1     112.040 126.274 139.109  0.00  0.00    +0.000 A 
ATOM      8  C   UNL     1     111.693 125.693 138.636  0.00  0.00    +0.000 A 
ATOM      9  C   UNL     1     113.401 125.145 137.328  0.00  0.00    +0.000 A 
ATOM     10  C   UNL     1     111.765 124.717 137.563  0.00  0.00    +0.000 A 
ATOM     11  C   UNL     1     113.045 124.541 136.832  0.00  0.00    +0.000 A 
ATOM     12  C   UNL     1     112.222 124.325 136.950  0.00  0.00    +0.000 A 
ENDROOT
BRANCH   6  13
ATOM     13  C   UNL     1     113.177 127.060 139.469  0.00  0.00    +0.000 A 
ATOM     14  C   UNL     1     113.557 126.849 140.170  0.00  0.00    +0.000 A 
ATOM     15  C   UNL     1     113.144 127.853 139.240  0.00  0.00    +0.000 A 
ATOM     16  C   UNL     1     113.903 127.429 140.643  0.00  0.00    +0.000 A 
ATOM     17  C   UNL     1     113.491 128.434 139.714  0.00  0.00    +0.000 A 
ATOM     18  C   UNL     1     113.870 128.221 140.415  0.00  0.00    +0.000 A 
BRANCH  18  19
ATOM     19  O   UNL     1     114.217 128.802 140.888  0.00  0.00    +0.000 OA
ATOM     20  C   UNL     1     113.861 129.543 140.959  0.00  0.00    +0.000 C 
ENDBRANCH  18  19
ENDBRANCH   6  13
BRANCH   7  21
ATOM     21  O   UNL     1     111.596 126.646 139.696  0.00  0.00    +0.000 OA
ATOM     22  C   UNL     1     110.802 126.450 139.800  0.00  0.00    +0.000 C 
ENDBRANCH   7  21
BRANCH   9  23
ATOM     23  O   UNL     1     114.191 125.359 137.221  0.00  0.00    +0.000 OA
ATOM     24  C   UNL     1     114.780 124.782 137.243  0.00  0.00    +0.000 C 
ENDBRANCH   9  23
TORSDOF 4
ENDMDL
MODEL 10
REMARK VINA RESULT:      -7.2     12.030     12.851
REMARK  Name = 10592359
REMARK  4 active torsions:
REMARK  status: ('A' for Active; 'I' for Inactive)
REMARK    1  A    between atoms: O_2  and  C_10
REMARK    2  A    between atoms: O_3  and  C_13
REMARK    3  A    between atoms: O_6  and  C_21
REMARK    4  A    between atoms: C_9  and  C_12
REMARK                            x       y       z     vdW  Elec       q    Type
REMARK                         _______ _______ _______ _____ _____    ______ ____
ROOT
ATOM      1  O   UNL     1     111.903 126.019 136.292  0.00  0.00    +0.000 OA
ATOM      2  O   UNL     1     113.925 127.438 136.445  0.00  0.00    +0.000 OA
ATOM      3  O   UNL     1     113.487 123.660 136.930  0.00  0.00    +0.000 OA
ATOM      4  C   UNL     1     113.306 126.153 136.525  0.00  0.00    +0.000 A 
ATOM      5  C   UNL     1     112.632 125.679 136.474  0.00  0.00    +0.000 A 
ATOM      6  C   UNL     1     111.847 126.831 136.161  0.00  0.00    +0.000 A 
ATOM      7  C   UNL     1     112.520 127.304 136.212  0.00  0.00    +0.000 A 
ATOM      8  C   UNL     1     113.251 126.965 136.394  0.00  0.00    +0.000 A 
ATOM      9  C   UNL     1     112.677 124.831 136.609  0.00  0.00    +0.000 A 
ATOM     10  C   UNL     1     114.071 125.811 136.714  0.00  0.00    +0.000 A 
ATOM     11  C   UNL     1     113.434 124.472 136.799  0.00  0.00    +0.000 A 
ATOM     12  C   UNL     1     114.136 124.965 136.852  0.00  0.00    +0.000 A 
ENDROOT
BRANCH   6  13
ATOM     13  C   UNL     1     111.118 127.171 135.978  0.00  0.00    +0.000 A 
ATOM     14  C   UNL     1     110.632 127.455 136.582  0.00  0.00    +0.000 A 
ATOM     15  C   UNL     1     110.874 127.226 135.192  0.00  0.00    +0.000 A 
ATOM     16  C   UNL     1     109.903 127.794 136.400  0.00  0.00    +0.000 A 
ATOM     17  C   UNL     1     110.144 127.566 135.009  0.00  0.00    +0.000 A 
ATOM     18  C   UNL     1     109.659 127.850 135.613  0.00  0.00    +0.000 A 
BRANCH  18  19
ATOM     19  O   UNL     1     108.929 128.189 135.431  0.00  0.00    +0.000 OA
ATOM     20  C   UNL     1     108.701 128.896 135.790  0.00  0.00    +0.000 C 
ENDBRANCH  18  19
ENDBRANCH   6  13
BRANCH   7  21
ATOM     21  O   UNL     1     112.465 128.117 136.080  0.00  0.00    +0.000 OA
ATOM     22  C   UNL     1     113.147 128.582 136.076  0.00  0.00    +0.000 C 
ENDBRANCH   7  21
BRANCH   9  23
ATOM     23  O   UNL     1     111.998 124.366 136.556  0.00  0.00    +0.000 OA
ATOM     24  C   UNL     1     111.805 123.848 137.168  0.00  0.00    +0.000 C 
ENDBRANCH   9  23
TORSDOF 4
ENDMDL
