MODEL 1
REMARK VINA RESULT:     -10.0      0.000      0.000
REMARK  Name = 44257945
REMARK  2 active torsions:
REMARK  status: ('A' for Active; 'I' for Inactive)
REMARK    1  A    between atoms: C_11  and  C_15
REMARK    2  A    between atoms: C_24  and  C_26
REMARK                            x       y       z     vdW  Elec       q    Type
REMARK                         _______ _______ _______ _____ _____    ______ ____
ROOT
ATOM      1  O   UNL     1     110.748 127.231 136.454  0.00  0.00    +0.000 OA
ATOM      2  O   UNL     1     108.289 128.662 135.928  0.00  0.00    +0.000 OA
ATOM      3  O   UNL     1     110.681 130.110 136.519  0.00  0.00    +0.000 OA
ATOM      4  O   UNL     1     108.281 127.219 135.886  0.00  0.00    +0.000 OA
ATOM      5  C   UNL     1     109.484 129.386 136.223  0.00  0.00    +0.000 A 
ATOM      6  C   UNL     1     109.093 128.668 136.113  0.00  0.00    +0.000 A 
ATOM      7  C   UNL     1     110.288 129.392 136.409  0.00  0.00    +0.000 A 
ATOM      8  C   UNL     1     109.504 127.957 136.188  0.00  0.00    +0.000 A 
ATOM      9  C   UNL     1     110.308 127.964 136.373  0.00  0.00    +0.000 A 
ATOM     10  C   UNL     1     110.701 128.682 136.483  0.00  0.00    +0.000 A 
ATOM     11  C   UNL     1     109.085 127.217 136.070  0.00  0.00    +0.000 A 
ATOM     12  C   UNL     1     110.346 126.480 136.340  0.00  0.00    +0.000 A 
ATOM     13  C   UNL     1     109.509 126.473 136.147  0.00  0.00    +0.000 A 
ENDROOT
BRANCH   5  18
ATOM     14  O   UNL     1     109.032 130.475 135.418  0.00  0.00    +0.000 OA
ATOM     15  O   UNL     1     108.743 130.050 137.539  0.00  0.00    +0.000 OA
ATOM     16  O   UNL     1     107.920 131.473 137.391  0.00  0.00    +0.000 OA
ATOM     17  O   UNL     1     107.838 132.230 135.928  0.00  0.00    +0.000 OA
ATOM     18  C   UNL     1     109.073 130.097 136.149  0.00  0.00    +0.000 C 
ATOM     19  C   UNL     1     108.702 130.429 136.807  0.00  0.00    +0.000 C 
ATOM     20  C   UNL     1     108.291 131.140 136.733  0.00  0.00    +0.000 C 
ATOM     21  C   UNL     1     108.620 131.187 135.343  0.00  0.00    +0.000 C 
ATOM     22  C   UNL     1     108.250 131.519 136.001  0.00  0.00    +0.000 C 
ATOM     23  C   UNL     1     108.579 131.565 134.612  0.00  0.00    +0.000 C 
ENDBRANCH   5  18
BRANCH  12  26
ATOM     24  O   UNL     1     111.516 124.459 137.988  0.00  0.00    +0.000 OA
ATOM     25  O   UNL     1     112.006 123.644 136.641  0.00  0.00    +0.000 OA
ATOM     26  C   UNL     1     110.761 125.770 136.415  0.00  0.00    +0.000 A 
ATOM     27  C   UNL     1     110.931 125.469 137.164  0.00  0.00    +0.000 A 
ATOM     28  C   UNL     1     111.006 125.363 135.741  0.00  0.00    +0.000 A 
ATOM     29  C   UNL     1     111.346 124.760 137.239  0.00  0.00    +0.000 A 
ATOM     30  C   UNL     1     111.422 124.654 135.816  0.00  0.00    +0.000 A 
ATOM     31  C   UNL     1     111.591 124.353 136.565  0.00  0.00    +0.000 A 
ENDBRANCH  12  26
TORSDOF 2
ENDMDL
MODEL 2
REMARK VINA RESULT:     -10.0      9.635     11.188
REMARK  Name = 44257945
REMARK  2 active torsions:
REMARK  status: ('A' for Active; 'I' for Inactive)
REMARK    1  A    between atoms: C_11  and  C_15
REMARK    2  A    between atoms: C_24  and  C_26
REMARK                            x       y       z     vdW  Elec       q    Type
REMARK                         _______ _______ _______ _____ _____    ______ ____
ROOT
ATOM      1  O   UNL     1     106.218 127.229 144.747  0.00  0.00    +0.000 OA
ATOM      2  O   UNL     1     106.515 124.654 146.034  0.00  0.00    +0.000 OA
ATOM      3  O   UNL     1     106.775 127.051 147.569  0.00  0.00    +0.000 OA
ATOM      4  O   UNL     1     106.236 124.701 144.618  0.00  0.00    +0.000 OA
ATOM      5  C   UNL     1     106.645 125.852 146.801  0.00  0.00    +0.000 A 
ATOM      6  C   UNL     1     106.510 125.478 146.079  0.00  0.00    +0.000 A 
ATOM      7  C   UNL     1     106.640 126.676 146.846  0.00  0.00    +0.000 A 
ATOM      8  C   UNL     1     106.369 125.927 145.401  0.00  0.00    +0.000 A 
ATOM      9  C   UNL     1     106.363 126.750 145.445  0.00  0.00    +0.000 A 
ATOM     10  C   UNL     1     106.499 127.125 146.169  0.00  0.00    +0.000 A 
ATOM     11  C   UNL     1     106.229 125.525 144.654  0.00  0.00    +0.000 A 
ATOM     12  C   UNL     1     106.076 126.845 143.992  0.00  0.00    +0.000 A 
ATOM     13  C   UNL     1     106.081 125.987 143.945  0.00  0.00    +0.000 A 
ENDROOT
BRANCH   5  18
ATOM     14  O   UNL     1     106.154 125.135 147.935  0.00  0.00    +0.000 OA
ATOM     15  O   UNL     1     108.193 125.491 147.242  0.00  0.00    +0.000 OA
ATOM     16  O   UNL     1     108.477 124.594 148.598  0.00  0.00    +0.000 OA
ATOM     17  O   UNL     1     107.212 124.058 149.512  0.00  0.00    +0.000 OA
ATOM     18  C   UNL     1     106.786 125.403 147.479  0.00  0.00    +0.000 C 
ATOM     19  C   UNL     1     107.560 125.223 147.699  0.00  0.00    +0.000 C 
ATOM     20  C   UNL     1     107.703 124.774 148.377  0.00  0.00    +0.000 C 
ATOM     21  C   UNL     1     106.295 124.687 148.613  0.00  0.00    +0.000 C 
ATOM     22  C   UNL     1     107.069 124.506 148.834  0.00  0.00    +0.000 C 
ATOM     23  C   UNL     1     105.664 124.418 149.070  0.00  0.00    +0.000 C 
ENDBRANCH   5  18
BRANCH  12  26
ATOM     24  O   UNL     1     107.004 128.000 141.548  0.00  0.00    +0.000 OA
ATOM     25  O   UNL     1     105.512 128.655 141.290  0.00  0.00    +0.000 OA
ATOM     26  C   UNL     1     105.935 127.298 143.316  0.00  0.00    +0.000 A 
ATOM     27  C   UNL     1     106.540 127.423 142.769  0.00  0.00    +0.000 A 
ATOM     28  C   UNL     1     105.189 127.625 143.187  0.00  0.00    +0.000 A 
ATOM     29  C   UNL     1     106.399 127.875 142.094  0.00  0.00    +0.000 A 
ATOM     30  C   UNL     1     105.047 128.077 142.512  0.00  0.00    +0.000 A 
ATOM     31  C   UNL     1     105.653 128.202 141.966  0.00  0.00    +0.000 A 
ENDBRANCH  12  26
TORSDOF 2
ENDMDL
MODEL 3
REMARK VINA RESULT:     -10.0      4.044      5.258
REMARK  Name = 44257945
REMARK  2 active torsions:
REMARK  status: ('A' for Active; 'I' for Inactive)
REMARK    1  A    between atoms: C_11  and  C_15
REMARK    2  A    between atoms: C_24  and  C_26
REMARK                            x       y       z     vdW  Elec       q    Type
REMARK                         _______ _______ _______ _____ _____    ______ ____
ROOT
ATOM      1  O   UNL     1     113.117 126.221 138.870  0.00  0.00    +0.000 OA
ATOM      2  O   UNL     1     112.901 129.104 139.003  0.00  0.00    +0.000 OA
ATOM      3  O   UNL     1     114.252 127.680 141.080  0.00  0.00    +0.000 OA
ATOM      4  O   UNL     1     112.319 128.410 137.879  0.00  0.00    +0.000 OA
ATOM      5  C   UNL     1     113.576 128.392 140.041  0.00  0.00    +0.000 A 
ATOM      6  C   UNL     1     113.162 128.392 139.328  0.00  0.00    +0.000 A 
ATOM      7  C   UNL     1     113.837 127.680 140.366  0.00  0.00    +0.000 A 
ATOM      8  C   UNL     1     113.009 127.680 138.939  0.00  0.00    +0.000 A 
ATOM      9  C   UNL     1     113.270 126.969 139.264  0.00  0.00    +0.000 A 
ATOM     10  C   UNL     1     113.684 126.968 139.978  0.00  0.00    +0.000 A 
ATOM     11  C   UNL     1     112.577 127.694 138.197  0.00  0.00    +0.000 A 
ATOM     12  C   UNL     1     112.686 126.215 138.126  0.00  0.00    +0.000 A 
ATOM     13  C   UNL     1     112.414 126.956 137.787  0.00  0.00    +0.000 A 
ENDROOT
BRANCH   5  18
ATOM     14  O   UNL     1     114.404 129.539 140.243  0.00  0.00    +0.000 OA
ATOM     15  O   UNL     1     112.531 128.943 141.193  0.00  0.00    +0.000 OA
ATOM     16  O   UNL     1     112.836 130.365 141.971  0.00  0.00    +0.000 OA
ATOM     17  O   UNL     1     114.186 131.237 141.598  0.00  0.00    +0.000 OA
ATOM     18  C   UNL     1     113.729 129.104 140.430  0.00  0.00    +0.000 C 
ATOM     19  C   UNL     1     113.207 129.379 141.006  0.00  0.00    +0.000 C 
ATOM     20  C   UNL     1     113.359 130.090 141.395  0.00  0.00    +0.000 C 
ATOM     21  C   UNL     1     114.557 130.251 140.632  0.00  0.00    +0.000 C 
ATOM     22  C   UNL     1     114.034 130.526 141.208  0.00  0.00    +0.000 C 
ATOM     23  C   UNL     1     115.231 130.686 140.445  0.00  0.00    +0.000 C 
ENDBRANCH   5  18
BRANCH  12  26
ATOM     24  O   UNL     1     113.545 124.099 136.406  0.00  0.00    +0.000 OA
ATOM     25  O   UNL     1     112.080 123.360 136.584  0.00  0.00    +0.000 OA
ATOM     26  C   UNL     1     112.535 125.501 137.740  0.00  0.00    +0.000 A 
ATOM     27  C   UNL     1     113.115 125.156 137.266  0.00  0.00    +0.000 A 
ATOM     28  C   UNL     1     111.802 125.131 137.829  0.00  0.00    +0.000 A 
ATOM     29  C   UNL     1     112.964 124.443 136.881  0.00  0.00    +0.000 A 
ATOM     30  C   UNL     1     111.650 124.418 137.444  0.00  0.00    +0.000 A 
ATOM     31  C   UNL     1     112.232 124.074 136.970  0.00  0.00    +0.000 A 
ENDBRANCH  12  26
TORSDOF 2
ENDMDL
MODEL 4
REMARK VINA RESULT:      -9.9      9.325     10.122
REMARK  Name = 44257945
REMARK  2 active torsions:
REMARK  status: ('A' for Active; 'I' for Inactive)
REMARK    1  A    between atoms: C_11  and  C_15
REMARK    2  A    between atoms: C_24  and  C_26
REMARK                            x       y       z     vdW  Elec       q    Type
REMARK                         _______ _______ _______ _____ _____    ______ ____
ROOT
ATOM      1  O   UNL     1     106.464 125.388 146.160  0.00  0.00    +0.000 OA
ATOM      2  O   UNL     1     106.617 127.899 144.731  0.00  0.00    +0.000 OA
ATOM      3  O   UNL     1     105.611 125.571 143.414  0.00  0.00    +0.000 OA
ATOM      4  O   UNL     1     107.055 127.850 146.105  0.00  0.00    +0.000 OA
ATOM      5  C   UNL     1     106.114 126.735 144.073  0.00  0.00    +0.000 A 
ATOM      6  C   UNL     1     106.424 127.097 144.746  0.00  0.00    +0.000 A 
ATOM      7  C   UNL     1     105.921 125.934 144.088  0.00  0.00    +0.000 A 
ATOM      8  C   UNL     1     106.541 126.658 145.435  0.00  0.00    +0.000 A 
ATOM      9  C   UNL     1     106.347 125.856 145.450  0.00  0.00    +0.000 A 
ATOM     10  C   UNL     1     106.037 125.494 144.776  0.00  0.00    +0.000 A 
ATOM     11  C   UNL     1     106.864 127.047 146.129  0.00  0.00    +0.000 A 
ATOM     12  C   UNL     1     106.786 125.760 146.865  0.00  0.00    +0.000 A 
ATOM     13  C   UNL     1     106.988 126.595 146.850  0.00  0.00    +0.000 A 
ENDROOT
BRANCH   5  18
ATOM     14  O   UNL     1     105.292 127.586 143.271  0.00  0.00    +0.000 OA
ATOM     15  O   UNL     1     107.294 126.790 142.921  0.00  0.00    +0.000 OA
ATOM     16  O   UNL     1     107.062 127.668 141.543  0.00  0.00    +0.000 OA
ATOM     17  O   UNL     1     105.650 128.491 141.317  0.00  0.00    +0.000 OA
ATOM     18  C   UNL     1     105.997 127.175 143.384  0.00  0.00    +0.000 C 
ATOM     19  C   UNL     1     106.587 127.202 142.808  0.00  0.00    +0.000 C 
ATOM     20  C   UNL     1     106.472 127.640 142.119  0.00  0.00    +0.000 C 
ATOM     21  C   UNL     1     105.175 128.025 142.582  0.00  0.00    +0.000 C 
ATOM     22  C   UNL     1     105.765 128.052 142.006  0.00  0.00    +0.000 C 
ATOM     23  C   UNL     1     104.470 128.436 142.469  0.00  0.00    +0.000 C 
ENDBRANCH   5  18
BRANCH  12  26
ATOM     24  O   UNL     1     105.722 124.410 149.149  0.00  0.00    +0.000 OA
ATOM     25  O   UNL     1     107.248 123.989 149.612  0.00  0.00    +0.000 OA
ATOM     26  C   UNL     1     106.902 125.317 147.552  0.00  0.00    +0.000 A 
ATOM     27  C   UNL     1     106.254 125.085 148.008  0.00  0.00    +0.000 A 
ATOM     28  C   UNL     1     107.665 125.107 147.784  0.00  0.00    +0.000 A 
ATOM     29  C   UNL     1     106.369 124.643 148.694  0.00  0.00    +0.000 A 
ATOM     30  C   UNL     1     107.781 124.664 148.470  0.00  0.00    +0.000 A 
ATOM     31  C   UNL     1     107.133 124.432 148.925  0.00  0.00    +0.000 A 
ENDBRANCH  12  26
TORSDOF 2
ENDMDL
MODEL 5
REMARK VINA RESULT:      -9.9      4.170      6.961
REMARK  Name = 44257945
REMARK  2 active torsions:
REMARK  status: ('A' for Active; 'I' for Inactive)
REMARK    1  A    between atoms: C_11  and  C_15
REMARK    2  A    between atoms: C_24  and  C_26
REMARK                            x       y       z     vdW  Elec       q    Type
REMARK                         _______ _______ _______ _____ _____    ______ ____
ROOT
ATOM      1  O   UNL     1     113.196 128.928 139.698  0.00  0.00    +0.000 OA
ATOM      2  O   UNL     1     113.941 126.149 139.390  0.00  0.00    +0.000 OA
ATOM      3  O   UNL     1     112.584 127.503 137.270  0.00  0.00    +0.000 OA
ATOM      4  O   UNL     1     114.266 126.827 140.621  0.00  0.00    +0.000 OA
ATOM      5  C   UNL     1     113.263 126.826 138.330  0.00  0.00    +0.000 A 
ATOM      6  C   UNL     1     113.592 126.832 139.086  0.00  0.00    +0.000 A 
ATOM      7  C   UNL     1     112.914 127.509 138.027  0.00  0.00    +0.000 A 
ATOM      8  C   UNL     1     113.572 127.521 139.540  0.00  0.00    +0.000 A 
ATOM      9  C   UNL     1     113.223 128.204 139.236  0.00  0.00    +0.000 A 
ATOM     10  C   UNL     1     112.894 128.198 138.479  0.00  0.00    +0.000 A 
ATOM     11  C   UNL     1     113.919 127.515 140.326  0.00  0.00    +0.000 A 
ATOM     12  C   UNL     1     113.538 128.941 140.487  0.00  0.00    +0.000 A 
ATOM     13  C   UNL     1     113.901 128.230 140.803  0.00  0.00    +0.000 A 
ENDROOT
BRANCH   5  18
ATOM     14  O   UNL     1     113.940 125.969 137.409  0.00  0.00    +0.000 OA
ATOM     15  O   UNL     1     111.984 125.783 138.360  0.00  0.00    +0.000 OA
ATOM     16  O   UNL     1     112.022 124.405 137.454  0.00  0.00    +0.000 OA
ATOM     17  O   UNL     1     113.339 124.069 136.517  0.00  0.00    +0.000 OA
ATOM     18  C   UNL     1     113.282 126.137 137.877  0.00  0.00    +0.000 C 
ATOM     19  C   UNL     1     112.643 125.615 137.892  0.00  0.00    +0.000 C 
ATOM     20  C   UNL     1     112.662 124.926 137.439  0.00  0.00    +0.000 C 
ATOM     21  C   UNL     1     113.960 125.280 136.955  0.00  0.00    +0.000 C 
ATOM     22  C   UNL     1     113.320 124.758 136.970  0.00  0.00    +0.000 C 
ATOM     23  C   UNL     1     114.617 125.112 136.487  0.00  0.00    +0.000 C 
ENDBRANCH   5  18
BRANCH  12  26
ATOM     24  O   UNL     1     114.707 131.434 141.254  0.00  0.00    +0.000 OA
ATOM     25  O   UNL     1     113.450 131.705 142.288  0.00  0.00    +0.000 OA
ATOM     26  C   UNL     1     113.516 129.632 140.937  0.00  0.00    +0.000 A 
ATOM     27  C   UNL     1     114.122 130.188 140.871  0.00  0.00    +0.000 A 
ATOM     28  C   UNL     1     112.887 129.768 141.454  0.00  0.00    +0.000 A 
ATOM     29  C   UNL     1     114.100 130.878 141.321  0.00  0.00    +0.000 A 
ATOM     30  C   UNL     1     112.865 130.458 141.905  0.00  0.00    +0.000 A 
ATOM     31  C   UNL     1     113.472 131.013 141.838  0.00  0.00    +0.000 A 
ENDBRANCH  12  26
TORSDOF 2
ENDMDL
MODEL 6
REMARK VINA RESULT:      -9.7      1.112      1.466
REMARK  Name = 44257945
REMARK  2 active torsions:
REMARK  status: ('A' for Active; 'I' for Inactive)
REMARK    1  A    between atoms: C_11  and  C_15
REMARK    2  A    between atoms: C_24  and  C_26
REMARK                            x       y       z     vdW  Elec       q    Type
REMARK                         _______ _______ _______ _____ _____    ______ ____
ROOT
ATOM      1  O   UNL     1     110.844 126.817 136.865  0.00  0.00    +0.000 OA
ATOM      2  O   UNL     1     110.198 129.039 135.128  0.00  0.00    +0.000 OA
ATOM      3  O   UNL     1     109.232 129.006 137.817  0.00  0.00    +0.000 OA
ATOM      4  O   UNL     1     111.009 127.962 134.612  0.00  0.00    +0.000 OA
ATOM      5  C   UNL     1     109.716 129.023 136.472  0.00  0.00    +0.000 A 
ATOM      6  C   UNL     1     110.143 128.668 135.863  0.00  0.00    +0.000 A 
ATOM      7  C   UNL     1     109.660 128.652 137.207  0.00  0.00    +0.000 A 
ATOM      8  C   UNL     1     110.516 127.943 135.987  0.00  0.00    +0.000 A 
ATOM      9  C   UNL     1     110.461 127.572 136.722  0.00  0.00    +0.000 A 
ATOM     10  C   UNL     1     110.033 127.927 137.332  0.00  0.00    +0.000 A 
ATOM     11  C   UNL     1     110.959 127.584 135.344  0.00  0.00    +0.000 A 
ATOM     12  C   UNL     1     111.292 126.442 136.233  0.00  0.00    +0.000 A 
ATOM     13  C   UNL     1     111.349 126.828 135.468  0.00  0.00    +0.000 A 
ENDROOT
BRANCH   5  18
ATOM     14  O   UNL     1     109.753 130.451 136.477  0.00  0.00    +0.000 OA
ATOM     15  O   UNL     1     108.146 129.066 135.964  0.00  0.00    +0.000 OA
ATOM     16  O   UNL     1     107.399 130.516 135.715  0.00  0.00    +0.000 OA
ATOM     17  O   UNL     1     108.222 131.923 135.974  0.00  0.00    +0.000 OA
ATOM     18  C   UNL     1     109.343 129.748 136.347  0.00  0.00    +0.000 C 
ATOM     19  C   UNL     1     108.558 129.770 136.094  0.00  0.00    +0.000 C 
ATOM     20  C   UNL     1     108.184 130.494 135.969  0.00  0.00    +0.000 C 
ATOM     21  C   UNL     1     109.380 131.177 136.352  0.00  0.00    +0.000 C 
ATOM     22  C   UNL     1     108.596 131.198 136.098  0.00  0.00    +0.000 C 
ATOM     23  C   UNL     1     109.791 131.880 136.481  0.00  0.00    +0.000 C 
ENDBRANCH   5  18
BRANCH  12  26
ATOM     24  O   UNL     1     113.583 124.945 137.056  0.00  0.00    +0.000 OA
ATOM     25  O   UNL     1     112.777 123.540 136.747  0.00  0.00    +0.000 OA
ATOM     26  C   UNL     1     111.663 125.716 136.362  0.00  0.00    +0.000 A 
ATOM     27  C   UNL     1     112.438 125.693 136.645  0.00  0.00    +0.000 A 
ATOM     28  C   UNL     1     111.260 125.014 136.207  0.00  0.00    +0.000 A 
ATOM     29  C   UNL     1     112.809 124.969 136.773  0.00  0.00    +0.000 A 
ATOM     30  C   UNL     1     111.630 124.288 136.335  0.00  0.00    +0.000 A 
ATOM     31  C   UNL     1     112.405 124.266 136.618  0.00  0.00    +0.000 A 
ENDBRANCH  12  26
TORSDOF 2
ENDMDL
MODEL 7
REMARK VINA RESULT:      -9.7      7.050      9.557
REMARK  Name = 44257945
REMARK  2 active torsions:
REMARK  status: ('A' for Active; 'I' for Inactive)
REMARK    1  A    between atoms: C_11  and  C_15
REMARK    2  A    between atoms: C_24  and  C_26
REMARK                            x       y       z     vdW  Elec       q    Type
REMARK                         _______ _______ _______ _____ _____    ______ ____
ROOT
ATOM      1  O   UNL     1     103.666 129.965 142.339  0.00  0.00    +0.000 OA
ATOM      2  O   UNL     1     104.655 127.560 141.070  0.00  0.00    +0.000 OA
ATOM      3  O   UNL     1     105.683 128.353 143.616  0.00  0.00    +0.000 OA
ATOM      4  O   UNL     1     103.644 128.340 140.397  0.00  0.00    +0.000 OA
ATOM      5  C   UNL     1     105.169 127.956 142.342  0.00  0.00    +0.000 A 
ATOM      6  C   UNL     1     104.664 128.088 141.704  0.00  0.00    +0.000 A 
ATOM      7  C   UNL     1     105.178 128.484 142.976  0.00  0.00    +0.000 A 
ATOM      8  C   UNL     1     104.168 128.747 141.698  0.00  0.00    +0.000 A 
ATOM      9  C   UNL     1     104.177 129.275 142.332  0.00  0.00    +0.000 A 
ATOM     10  C   UNL     1     104.682 129.144 142.972  0.00  0.00    +0.000 A 
ATOM     11  C   UNL     1     103.647 128.873 141.027  0.00  0.00    +0.000 A 
ATOM     12  C   UNL     1     103.137 130.108 141.676  0.00  0.00    +0.000 A 
ATOM     13  C   UNL     1     103.128 129.558 141.016  0.00  0.00    +0.000 A 
ENDROOT
BRANCH   5  18
ATOM     14  O   UNL     1     105.404 126.586 142.673  0.00  0.00    +0.000 OA
ATOM     15  O   UNL     1     106.686 128.062 141.703  0.00  0.00    +0.000 OA
ATOM     16  O   UNL     1     107.680 126.744 141.714  0.00  0.00    +0.000 OA
ATOM     17  O   UNL     1     107.156 125.321 142.364  0.00  0.00    +0.000 OA
ATOM     18  C   UNL     1     105.665 127.297 142.348  0.00  0.00    +0.000 C 
ATOM     19  C   UNL     1     106.424 127.350 142.028  0.00  0.00    +0.000 C 
ATOM     20  C   UNL     1     106.921 126.692 142.033  0.00  0.00    +0.000 C 
ATOM     21  C   UNL     1     105.900 125.927 142.679  0.00  0.00    +0.000 C 
ATOM     22  C   UNL     1     106.659 125.980 142.359  0.00  0.00    +0.000 C 
ATOM     23  C   UNL     1     105.638 125.216 143.004  0.00  0.00    +0.000 C 
ENDBRANCH   5  18
BRANCH  12  26
ATOM     24  O   UNL     1     102.737 132.900 141.215  0.00  0.00    +0.000 OA
ATOM     25  O   UNL     1     101.158 132.748 141.669  0.00  0.00    +0.000 OA
ATOM     26  C   UNL     1     102.642 130.768 141.674  0.00  0.00    +0.000 A 
ATOM     27  C   UNL     1     102.937 131.504 141.445  0.00  0.00    +0.000 A 
ATOM     28  C   UNL     1     101.853 130.692 141.901  0.00  0.00    +0.000 A 
ATOM     29  C   UNL     1     102.442 132.164 141.444  0.00  0.00    +0.000 A 
ATOM     30  C   UNL     1     101.358 131.352 141.900  0.00  0.00    +0.000 A 
ATOM     31  C   UNL     1     101.653 132.088 141.671  0.00  0.00    +0.000 A 
ENDBRANCH  12  26
TORSDOF 2
ENDMDL
MODEL 8
REMARK VINA RESULT:      -9.7      1.265      5.804
REMARK  Name = 44257945
REMARK  2 active torsions:
REMARK  status: ('A' for Active; 'I' for Inactive)
REMARK    1  A    between atoms: C_11  and  C_15
REMARK    2  A    between atoms: C_24  and  C_26
REMARK                            x       y       z     vdW  Elec       q    Type
REMARK                         _______ _______ _______ _____ _____    ______ ____
ROOT
ATOM      1  O   UNL     1     110.116 128.093 135.362  0.00  0.00    +0.000 OA
ATOM      2  O   UNL     1     112.020 126.966 137.227  0.00  0.00    +0.000 OA
ATOM      3  O   UNL     1     110.938 125.341 135.140  0.00  0.00    +0.000 OA
ATOM      4  O   UNL     1     111.634 128.349 137.372  0.00  0.00    +0.000 OA
ATOM      5  C   UNL     1     111.479 126.154 136.184  0.00  0.00    +0.000 A 
ATOM      6  C   UNL     1     111.526 126.880 136.571  0.00  0.00    +0.000 A 
ATOM      7  C   UNL     1     110.985 126.068 135.528  0.00  0.00    +0.000 A 
ATOM      8  C   UNL     1     111.080 127.520 136.305  0.00  0.00    +0.000 A 
ATOM      9  C   UNL     1     110.586 127.434 135.650  0.00  0.00    +0.000 A 
ATOM     10  C   UNL     1     110.539 126.707 135.261  0.00  0.00    +0.000 A 
ATOM     11  C   UNL     1     111.138 128.271 136.718  0.00  0.00    +0.000 A 
ATOM     12  C   UNL     1     110.161 128.853 135.762  0.00  0.00    +0.000 A 
ATOM     13  C   UNL     1     110.675 128.942 136.445  0.00  0.00    +0.000 A 
ENDROOT
BRANCH   5  18
ATOM     14  O   UNL     1     112.707 125.422 136.203  0.00  0.00    +0.000 OA
ATOM     15  O   UNL     1     110.808 125.053 137.213  0.00  0.00    +0.000 OA
ATOM     16  O   UNL     1     111.699 123.771 137.747  0.00  0.00    +0.000 OA
ATOM     17  O   UNL     1     113.263 123.590 137.251  0.00  0.00    +0.000 OA
ATOM     18  C   UNL     1     111.926 125.513 136.450  0.00  0.00    +0.000 C 
ATOM     19  C   UNL     1     111.590 124.963 136.965  0.00  0.00    +0.000 C 
ATOM     20  C   UNL     1     112.035 124.322 137.232  0.00  0.00    +0.000 C 
ATOM     21  C   UNL     1     113.153 124.782 136.469  0.00  0.00    +0.000 C 
ATOM     22  C   UNL     1     112.817 124.231 136.984  0.00  0.00    +0.000 C 
ATOM     23  C   UNL     1     113.934 124.691 136.221  0.00  0.00    +0.000 C 
ENDBRANCH   5  18
BRANCH  12  26
ATOM     24  O   UNL     1     107.795 130.451 135.900  0.00  0.00    +0.000 OA
ATOM     25  O   UNL     1     108.370 131.405 134.683  0.00  0.00    +0.000 OA
ATOM     26  C   UNL     1     109.713 129.491 135.493  0.00  0.00    +0.000 A 
ATOM     27  C   UNL     1     108.978 129.652 135.831  0.00  0.00    +0.000 A 
ATOM     28  C   UNL     1     110.000 129.968 134.884  0.00  0.00    +0.000 A 
ATOM     29  C   UNL     1     108.530 130.290 135.561  0.00  0.00    +0.000 A 
ATOM     30  C   UNL     1     109.553 130.607 134.614  0.00  0.00    +0.000 A 
ATOM     31  C   UNL     1     108.818 130.767 134.953  0.00  0.00    +0.000 A 
ENDBRANCH  12  26
TORSDOF 2
ENDMDL
