MODEL 1
REMARK VINA RESULT:      -8.9      0.000      0.000
REMARK  Name = 131838980
REMARK  7 active torsions:
REMARK  status: ('A' for Active; 'I' for Inactive)
REMARK    1  A    between atoms: O_2  and  C_15
REMARK    2  A    between atoms: O_2  and  C_17
REMARK    3  A    between atoms: C_14  and  C_16
REMARK    4  A    between atoms: C_19  and  C_22
REMARK    5  A    between atoms: C_21  and  C_22
REMARK    6  A    between atoms: C_21  and  C_25
REMARK    7  A    between atoms: C_25  and  C_26
REMARK                            x       y       z     vdW  Elec       q    Type
REMARK                         _______ _______ _______ _____ _____    ______ ____
ROOT
ATOM      1  O   UNL     1     106.396 128.521 141.398  0.00  0.00    +0.000 OA
ATOM      2  C   UNL     1     105.764 127.767 143.670  0.00  0.00    +0.000 A 
ATOM      3  C   UNL     1     105.191 127.819 143.078  0.00  0.00    +0.000 A 
ATOM      4  C   UNL     1     105.402 128.070 142.321  0.00  0.00    +0.000 A 
ATOM      5  C   UNL     1     106.547 127.967 143.504  0.00  0.00    +0.000 A 
ATOM      6  C   UNL     1     106.185 128.270 142.156  0.00  0.00    +0.000 A 
ATOM      7  C   UNL     1     106.757 128.218 142.747  0.00  0.00    +0.000 A 
ENDROOT
BRANCH   4   9
ATOM      8  O   UNL     1     104.794 127.545 141.139  0.00  0.00    +0.000 OA
ATOM      9  C   UNL     1     104.829 128.121 141.730  0.00  0.00    +0.000 C 
BRANCH   9  10
ATOM     10  C   UNL     1     104.291 128.747 141.728  0.00  0.00    +0.000 C 
BRANCH  10  11
ATOM     11  C   UNL     1     103.699 128.781 141.156  0.00  0.00    +0.000 C 
BRANCH  11  13
ATOM     12  O   UNL     1     102.707 129.012 139.858  0.00  0.00    +0.000 OA
ATOM     13  C   UNL     1     103.162 129.407 141.154  0.00  0.00    +0.000 A 
ATOM     14  C   UNL     1     102.666 129.523 140.505  0.00  0.00    +0.000 A 
ATOM     15  C   UNL     1     103.120 129.918 141.800  0.00  0.00    +0.000 A 
ATOM     16  C   UNL     1     102.128 130.148 140.502  0.00  0.00    +0.000 A 
ATOM     17  C   UNL     1     102.583 130.544 141.798  0.00  0.00    +0.000 A 
ATOM     18  C   UNL     1     102.087 130.660 141.149  0.00  0.00    +0.000 A 
ENDBRANCH  11  13
ENDBRANCH  10  11
ENDBRANCH   9  10
ENDBRANCH   4   9
BRANCH   2  19
ATOM     19  O   UNL     1     105.554 127.516 144.426  0.00  0.00    +0.000 OA
BRANCH  19  28
ATOM     20  O   UNL     1     105.620 126.108 144.200  0.00  0.00    +0.000 OA
ATOM     21  O   UNL     1     106.672 125.801 146.421  0.00  0.00    +0.000 OA
ATOM     22  O   UNL     1     106.387 124.494 145.454  0.00  0.00    +0.000 OA
ATOM     23  O   UNL     1     106.255 127.312 145.906  0.00  0.00    +0.000 OA
ATOM     24  C   UNL     1     106.321 125.903 145.680  0.00  0.00    +0.000 C 
ATOM     25  C   UNL     1     106.179 125.249 145.197  0.00  0.00    +0.000 C 
ATOM     26  C   UNL     1     106.113 126.659 145.424  0.00  0.00    +0.000 C 
ATOM     27  C   UNL     1     105.829 125.352 144.458  0.00  0.00    +0.000 C 
ATOM     28  C   UNL     1     105.763 126.761 144.684  0.00  0.00    +0.000 C 
BRANCH  27  31
ATOM     29  O   UNL     1     104.983 124.273 144.054  0.00  0.00    +0.000 OA
ATOM     30  O   UNL     1     106.245 124.471 143.413  0.00  0.00    +0.000 OA
ATOM     31  C   UNL     1     105.686 124.699 143.974  0.00  0.00    +0.000 C 
ENDBRANCH  27  31
ENDBRANCH  19  28
ENDBRANCH   2  19
TORSDOF 7
ENDMDL
MODEL 2
REMARK VINA RESULT:      -8.8      8.374     10.789
REMARK  Name = 131838980
REMARK  7 active torsions:
REMARK  status: ('A' for Active; 'I' for Inactive)
REMARK    1  A    between atoms: O_2  and  C_15
REMARK    2  A    between atoms: O_2  and  C_17
REMARK    3  A    between atoms: C_14  and  C_16
REMARK    4  A    between atoms: C_19  and  C_22
REMARK    5  A    between atoms: C_21  and  C_22
REMARK    6  A    between atoms: C_21  and  C_25
REMARK    7  A    between atoms: C_25  and  C_26
REMARK                            x       y       z     vdW  Elec       q    Type
REMARK                         _______ _______ _______ _____ _____    ______ ____
ROOT
ATOM      1  O   UNL     1     110.213 125.052 135.554  0.00  0.00    +0.000 OA
ATOM      2  C   UNL     1     110.931 127.378 135.104  0.00  0.00    +0.000 A 
ATOM      3  C   UNL     1     111.245 126.966 135.747  0.00  0.00    +0.000 A 
ATOM      4  C   UNL     1     111.006 126.191 135.897  0.00  0.00    +0.000 A 
ATOM      5  C   UNL     1     110.378 127.014 134.612  0.00  0.00    +0.000 A 
ATOM      6  C   UNL     1     110.452 125.828 135.404  0.00  0.00    +0.000 A 
ATOM      7  C   UNL     1     110.139 126.239 134.762  0.00  0.00    +0.000 A 
ENDROOT
BRANCH   4   9
ATOM      8  O   UNL     1     110.843 125.608 137.192  0.00  0.00    +0.000 OA
ATOM      9  C   UNL     1     111.319 125.780 136.539  0.00  0.00    +0.000 C 
BRANCH   9  10
ATOM     10  C   UNL     1     112.109 125.539 136.530  0.00  0.00    +0.000 C 
BRANCH  10  11
ATOM     11  C   UNL     1     112.500 125.381 137.238  0.00  0.00    +0.000 C 
BRANCH  11  13
ATOM     12  O   UNL     1     113.466 125.881 138.478  0.00  0.00    +0.000 OA
ATOM     13  C   UNL     1     113.304 125.197 137.234  0.00  0.00    +0.000 A 
ATOM     14  C   UNL     1     113.788 125.447 137.854  0.00  0.00    +0.000 A 
ATOM     15  C   UNL     1     113.625 124.763 136.610  0.00  0.00    +0.000 A 
ATOM     16  C   UNL     1     114.592 125.263 137.850  0.00  0.00    +0.000 A 
ATOM     17  C   UNL     1     114.430 124.579 136.606  0.00  0.00    +0.000 A 
ATOM     18  C   UNL     1     114.913 124.829 137.226  0.00  0.00    +0.000 A 
ENDBRANCH  11  13
ENDBRANCH  10  11
ENDBRANCH   9  10
ENDBRANCH   4   9
BRANCH   2  19
ATOM     19  O   UNL     1     111.170 128.153 134.954  0.00  0.00    +0.000 OA
BRANCH  19  28
ATOM     20  O   UNL     1     110.024 128.810 135.496  0.00  0.00    +0.000 OA
ATOM     21  O   UNL     1     111.480 130.582 136.428  0.00  0.00    +0.000 OA
ATOM     22  O   UNL     1     109.847 130.648 136.659  0.00  0.00    +0.000 OA
ATOM     23  O   UNL     1     112.141 129.334 135.576  0.00  0.00    +0.000 OA
ATOM     24  C   UNL     1     110.994 129.991 136.117  0.00  0.00    +0.000 C 
ATOM     25  C   UNL     1     110.178 130.025 136.233  0.00  0.00    +0.000 C 
ATOM     26  C   UNL     1     111.325 129.367 135.691  0.00  0.00    +0.000 C 
ATOM     27  C   UNL     1     109.693 129.434 135.923  0.00  0.00    +0.000 C 
ATOM     28  C   UNL     1     110.840 128.777 135.381  0.00  0.00    +0.000 C 
BRANCH  27  31
ATOM     29  O   UNL     1     108.393 129.813 135.465  0.00  0.00    +0.000 OA
ATOM     30  O   UNL     1     108.544 129.155 136.724  0.00  0.00    +0.000 OA
ATOM     31  C   UNL     1     108.877 129.467 136.038  0.00  0.00    +0.000 C 
ENDBRANCH  27  31
ENDBRANCH  19  28
ENDBRANCH   2  19
TORSDOF 7
ENDMDL
MODEL 3
REMARK VINA RESULT:      -8.8      8.521     11.030
REMARK  Name = 131838980
REMARK  7 active torsions:
REMARK  status: ('A' for Active; 'I' for Inactive)
REMARK    1  A    between atoms: O_2  and  C_15
REMARK    2  A    between atoms: O_2  and  C_17
REMARK    3  A    between atoms: C_14  and  C_16
REMARK    4  A    between atoms: C_19  and  C_22
REMARK    5  A    between atoms: C_21  and  C_22
REMARK    6  A    between atoms: C_21  and  C_25
REMARK    7  A    between atoms: C_25  and  C_26
REMARK                            x       y       z     vdW  Elec       q    Type
REMARK                         _______ _______ _______ _____ _____    ______ ____
ROOT
ATOM      1  O   UNL     1     113.713 129.233 135.764  0.00  0.00    +0.000 OA
ATOM      2  C   UNL     1     111.505 128.395 135.022  0.00  0.00    +0.000 A 
ATOM      3  C   UNL     1     111.874 128.060 135.681  0.00  0.00    +0.000 A 
ATOM      4  C   UNL     1     112.610 128.339 135.928  0.00  0.00    +0.000 A 
ATOM      5  C   UNL     1     111.873 129.008 134.612  0.00  0.00    +0.000 A 
ATOM      6  C   UNL     1     112.977 128.954 135.517  0.00  0.00    +0.000 A 
ATOM      7  C   UNL     1     112.608 129.288 134.859  0.00  0.00    +0.000 A 
ENDROOT
BRANCH   4   9
ATOM      8  O   UNL     1     112.965 128.399 137.311  0.00  0.00    +0.000 OA
ATOM      9  C   UNL     1     112.978 128.005 136.585  0.00  0.00    +0.000 C 
BRANCH   9  10
ATOM     10  C   UNL     1     113.359 127.276 136.519  0.00  0.00    +0.000 C 
BRANCH  10  11
ATOM     11  C   UNL     1     113.495 126.819 137.192  0.00  0.00    +0.000 C 
BRANCH  11  13
ATOM     12  O   UNL     1     113.194 125.618 138.283  0.00  0.00    +0.000 OA
ATOM     13  C   UNL     1     113.887 126.096 137.127  0.00  0.00    +0.000 A 
ATOM     14  C   UNL     1     113.737 125.495 137.673  0.00  0.00    +0.000 A 
ATOM     15  C   UNL     1     114.429 125.972 136.518  0.00  0.00    +0.000 A 
ATOM     16  C   UNL     1     114.128 124.772 137.610  0.00  0.00    +0.000 A 
ATOM     17  C   UNL     1     114.821 125.249 136.454  0.00  0.00    +0.000 A 
ATOM     18  C   UNL     1     114.671 124.649 137.000  0.00  0.00    +0.000 A 
ENDBRANCH  11  13
ENDBRANCH  10  11
ENDBRANCH   9  10
ENDBRANCH   4   9
BRANCH   2  19
ATOM     19  O   UNL     1     110.770 128.115 134.775  0.00  0.00    +0.000 OA
BRANCH  19  28
ATOM     20  O   UNL     1     109.959 129.244 135.101  0.00  0.00    +0.000 OA
ATOM     21  O   UNL     1     108.249 127.736 136.068  0.00  0.00    +0.000 OA
ATOM     22  O   UNL     1     108.007 129.369 136.072  0.00  0.00    +0.000 OA
ATOM     23  O   UNL     1     109.631 127.110 135.420  0.00  0.00    +0.000 OA
ATOM     24  C   UNL     1     108.819 128.239 135.746  0.00  0.00    +0.000 C 
ATOM     25  C   UNL     1     108.698 129.055 135.748  0.00  0.00    +0.000 C 
ATOM     26  C   UNL     1     109.510 127.926 135.422  0.00  0.00    +0.000 C 
ATOM     27  C   UNL     1     109.267 129.558 135.426  0.00  0.00    +0.000 C 
ATOM     28  C   UNL     1     110.079 128.428 135.100  0.00  0.00    +0.000 C 
BRANCH  27  31
ATOM     29  O   UNL     1     109.371 130.822 136.084  0.00  0.00    +0.000 OA
ATOM     30  O   UNL     1     108.802 130.742 134.775  0.00  0.00    +0.000 OA
ATOM     31  C   UNL     1     109.146 130.374 135.428  0.00  0.00    +0.000 C 
ENDBRANCH  27  31
ENDBRANCH  19  28
ENDBRANCH   2  19
TORSDOF 7
ENDMDL
MODEL 4
REMARK VINA RESULT:      -8.7      8.224     10.552
REMARK  Name = 131838980
REMARK  7 active torsions:
REMARK  status: ('A' for Active; 'I' for Inactive)
REMARK    1  A    between atoms: O_2  and  C_15
REMARK    2  A    between atoms: O_2  and  C_17
REMARK    3  A    between atoms: C_14  and  C_16
REMARK    4  A    between atoms: C_19  and  C_22
REMARK    5  A    between atoms: C_21  and  C_22
REMARK    6  A    between atoms: C_21  and  C_25
REMARK    7  A    between atoms: C_25  and  C_26
REMARK                            x       y       z     vdW  Elec       q    Type
REMARK                         _______ _______ _______ _____ _____    ______ ____
ROOT
ATOM      1  O   UNL     1     113.329 128.264 137.819  0.00  0.00    +0.000 OA
ATOM      2  C   UNL     1     111.750 128.937 136.035  0.00  0.00    +0.000 A 
ATOM      3  C   UNL     1     112.196 128.247 135.953  0.00  0.00    +0.000 A 
ATOM      4  C   UNL     1     112.722 128.022 136.547  0.00  0.00    +0.000 A 
ATOM      5  C   UNL     1     111.831 129.401 136.711  0.00  0.00    +0.000 A 
ATOM      6  C   UNL     1     112.802 128.488 137.224  0.00  0.00    +0.000 A 
ATOM      7  C   UNL     1     112.357 129.177 137.306  0.00  0.00    +0.000 A 
ENDROOT
BRANCH   4   9
ATOM      8  O   UNL     1     113.961 127.379 136.243  0.00  0.00    +0.000 OA
ATOM      9  C   UNL     1     113.167 127.334 136.465  0.00  0.00    +0.000 C 
BRANCH   9  10
ATOM     10  C   UNL     1     112.820 126.598 136.606  0.00  0.00    +0.000 C 
BRANCH  10  11
ATOM     11  C   UNL     1     113.251 125.907 136.475  0.00  0.00    +0.000 C 
BRANCH  11  13
ATOM     12  O   UNL     1     114.128 124.598 136.964  0.00  0.00    +0.000 OA
ATOM     13  C   UNL     1     112.885 125.171 136.552  0.00  0.00    +0.000 A 
ATOM     14  C   UNL     1     113.323 124.517 136.797  0.00  0.00    +0.000 A 
ATOM     15  C   UNL     1     112.082 125.090 136.386  0.00  0.00    +0.000 A 
ATOM     16  C   UNL     1     112.959 123.781 136.875  0.00  0.00    +0.000 A 
ATOM     17  C   UNL     1     111.716 124.355 136.463  0.00  0.00    +0.000 A 
ATOM     18  C   UNL     1     112.154 123.700 136.708  0.00  0.00    +0.000 A 
ENDBRANCH  11  13
ENDBRANCH  10  11
ENDBRANCH   9  10
ENDBRANCH   4   9
BRANCH   2  19
ATOM     19  O   UNL     1     111.224 129.160 135.441  0.00  0.00    +0.000 OA
BRANCH  19  28
ATOM     20  O   UNL     1     110.139 128.303 135.794  0.00  0.00    +0.000 OA
ATOM     21  O   UNL     1     108.538 130.130 135.314  0.00  0.00    +0.000 OA
ATOM     22  O   UNL     1     107.986 128.662 135.828  0.00  0.00    +0.000 OA
ATOM     23  O   UNL     1     110.158 130.378 135.120  0.00  0.00    +0.000 OA
ATOM     24  C   UNL     1     109.072 129.521 135.474  0.00  0.00    +0.000 C 
ATOM     25  C   UNL     1     108.795 128.787 135.731  0.00  0.00    +0.000 C 
ATOM     26  C   UNL     1     109.881 129.645 135.377  0.00  0.00    +0.000 C 
ATOM     27  C   UNL     1     109.328 128.178 135.891  0.00  0.00    +0.000 C 
ATOM     28  C   UNL     1     110.415 129.036 135.537  0.00  0.00    +0.000 C 
BRANCH  27  31
ATOM     29  O   UNL     1     108.913 126.842 135.601  0.00  0.00    +0.000 OA
ATOM     30  O   UNL     1     108.915 127.313 136.950  0.00  0.00    +0.000 OA
ATOM     31  C   UNL     1     109.052 127.445 136.148  0.00  0.00    +0.000 C 
ENDBRANCH  27  31
ENDBRANCH  19  28
ENDBRANCH   2  19
TORSDOF 7
ENDMDL
MODEL 5
REMARK VINA RESULT:      -8.7      8.445     10.767
REMARK  Name = 131838980
REMARK  7 active torsions:
REMARK  status: ('A' for Active; 'I' for Inactive)
REMARK    1  A    between atoms: O_2  and  C_15
REMARK    2  A    between atoms: O_2  and  C_17
REMARK    3  A    between atoms: C_14  and  C_16
REMARK    4  A    between atoms: C_19  and  C_22
REMARK    5  A    between atoms: C_21  and  C_22
REMARK    6  A    between atoms: C_21  and  C_25
REMARK    7  A    between atoms: C_25  and  C_26
REMARK                            x       y       z     vdW  Elec       q    Type
REMARK                         _______ _______ _______ _____ _____    ______ ____
ROOT
ATOM      1  O   UNL     1     110.684 124.812 135.073  0.00  0.00    +0.000 OA
ATOM      2  C   UNL     1     109.606 126.856 135.964  0.00  0.00    +0.000 A 
ATOM      3  C   UNL     1     110.172 126.458 136.414  0.00  0.00    +0.000 A 
ATOM      4  C   UNL     1     110.532 125.777 136.117  0.00  0.00    +0.000 A 
ATOM      5  C   UNL     1     109.400 126.572 135.218  0.00  0.00    +0.000 A 
ATOM      6  C   UNL     1     110.324 125.494 135.370  0.00  0.00    +0.000 A 
ATOM      7  C   UNL     1     109.759 125.891 134.921  0.00  0.00    +0.000 A 
ENDROOT
BRANCH   4   9
ATOM      8  O   UNL     1     110.860 124.829 137.135  0.00  0.00    +0.000 OA
ATOM      9  C   UNL     1     111.097 125.380 136.567  0.00  0.00    +0.000 C 
BRANCH   9  10
ATOM     10  C   UNL     1     111.899 125.532 136.450  0.00  0.00    +0.000 C 
BRANCH  10  11
ATOM     11  C   UNL     1     112.464 125.147 136.911  0.00  0.00    +0.000 C 
BRANCH  11  13
ATOM     12  O   UNL     1     113.540 123.904 137.055  0.00  0.00    +0.000 OA
ATOM     13  C   UNL     1     113.267 125.280 136.778  0.00  0.00    +0.000 A 
ATOM     14  C   UNL     1     113.805 124.658 136.849  0.00  0.00    +0.000 A 
ATOM     15  C   UNL     1     113.533 126.033 136.572  0.00  0.00    +0.000 A 
ATOM     16  C   UNL     1     114.609 124.790 136.716  0.00  0.00    +0.000 A 
ATOM     17  C   UNL     1     114.336 126.166 136.439  0.00  0.00    +0.000 A 
ATOM     18  C   UNL     1     114.874 125.545 136.511  0.00  0.00    +0.000 A 
ENDBRANCH  11  13
ENDBRANCH  10  11
ENDBRANCH   9  10
ENDBRANCH   4   9
BRANCH   2  19
ATOM     19  O   UNL     1     109.248 127.536 136.261  0.00  0.00    +0.000 OA
BRANCH  19  28
ATOM     20  O   UNL     1     110.256 128.465 135.863  0.00  0.00    +0.000 OA
ATOM     21  O   UNL     1     108.507 130.121 135.294  0.00  0.00    +0.000 OA
ATOM     22  O   UNL     1     110.100 130.498 135.085  0.00  0.00    +0.000 OA
ATOM     23  O   UNL     1     108.081 128.640 135.882  0.00  0.00    +0.000 OA
ATOM     24  C   UNL     1     109.090 129.569 135.484  0.00  0.00    +0.000 C 
ATOM     25  C   UNL     1     109.887 129.758 135.379  0.00  0.00    +0.000 C 
ATOM     26  C   UNL     1     108.877 128.829 135.777  0.00  0.00    +0.000 C 
ATOM     27  C   UNL     1     110.470 129.206 135.568  0.00  0.00    +0.000 C 
ATOM     28  C   UNL     1     109.460 128.277 135.967  0.00  0.00    +0.000 C 
BRANCH  27  31
ATOM     29  O   UNL     1     111.701 129.710 136.091  0.00  0.00    +0.000 OA
ATOM     30  O   UNL     1     111.628 129.267 134.735  0.00  0.00    +0.000 OA
ATOM     31  C   UNL     1     111.266 129.394 135.464  0.00  0.00    +0.000 C 
ENDBRANCH  27  31
ENDBRANCH  19  28
ENDBRANCH   2  19
TORSDOF 7
ENDMDL
MODEL 6
REMARK VINA RESULT:      -8.5      8.690     10.069
REMARK  Name = 131838980
REMARK  7 active torsions:
REMARK  status: ('A' for Active; 'I' for Inactive)
REMARK    1  A    between atoms: O_2  and  C_15
REMARK    2  A    between atoms: O_2  and  C_17
REMARK    3  A    between atoms: C_14  and  C_16
REMARK    4  A    between atoms: C_19  and  C_22
REMARK    5  A    between atoms: C_21  and  C_22
REMARK    6  A    between atoms: C_21  and  C_25
REMARK    7  A    between atoms: C_25  and  C_26
REMARK                            x       y       z     vdW  Elec       q    Type
REMARK                         _______ _______ _______ _____ _____    ______ ____
ROOT
ATOM      1  O   UNL     1     113.360 123.861 136.634  0.00  0.00    +0.000 OA
ATOM      2  C   UNL     1     113.593 125.899 138.020  0.00  0.00    +0.000 A 
ATOM      3  C   UNL     1     112.842 125.616 137.824  0.00  0.00    +0.000 A 
ATOM      4  C   UNL     1     112.765 124.937 137.362  0.00  0.00    +0.000 A 
ATOM      5  C   UNL     1     114.265 125.501 137.754  0.00  0.00    +0.000 A 
ATOM      6  C   UNL     1     113.438 124.540 137.097  0.00  0.00    +0.000 A 
ATOM      7  C   UNL     1     114.187 124.822 137.292  0.00  0.00    +0.000 A 
ENDROOT
BRANCH   4   9
ATOM      8  O   UNL     1     111.674 124.047 137.609  0.00  0.00    +0.000 OA
ATOM      9  C   UNL     1     112.015 124.656 137.166  0.00  0.00    +0.000 C 
BRANCH   9  10
ATOM     10  C   UNL     1     111.605 124.981 136.528  0.00  0.00    +0.000 C 
BRANCH  10  11
ATOM     11  C   UNL     1     110.829 125.242 136.626  0.00  0.00    +0.000 C 
BRANCH  11  13
ATOM     12  O   UNL     1     109.738 126.432 136.968  0.00  0.00    +0.000 OA
ATOM     13  C   UNL     1     110.445 125.638 136.012  0.00  0.00    +0.000 A 
ATOM     14  C   UNL     1     109.900 126.233 136.183  0.00  0.00    +0.000 A 
ATOM     15  C   UNL     1     110.607 125.440 135.228  0.00  0.00    +0.000 A 
ATOM     16  C   UNL     1     109.516 126.630 135.570  0.00  0.00    +0.000 A 
ATOM     17  C   UNL     1     110.223 125.836 134.614  0.00  0.00    +0.000 A 
ATOM     18  C   UNL     1     109.678 126.431 134.785  0.00  0.00    +0.000 A 
ENDBRANCH  11  13
ENDBRANCH  10  11
ENDBRANCH   9  10
ENDBRANCH   4   9
BRANCH   2  19
ATOM     19  O   UNL     1     113.671 126.577 138.482  0.00  0.00    +0.000 OA
BRANCH  19  28
ATOM     20  O   UNL     1     113.524 127.532 137.431  0.00  0.00    +0.000 OA
ATOM     21  O   UNL     1     112.214 128.993 138.941  0.00  0.00    +0.000 OA
ATOM     22  O   UNL     1     112.505 129.462 137.385  0.00  0.00    +0.000 OA
ATOM     23  O   UNL     1     112.798 127.550 139.488  0.00  0.00    +0.000 OA
ATOM     24  C   UNL     1     112.651 128.506 138.437  0.00  0.00    +0.000 C 
ATOM     25  C   UNL     1     112.796 128.741 137.659  0.00  0.00    +0.000 C 
ATOM     26  C   UNL     1     112.942 127.785 138.711  0.00  0.00    +0.000 C 
ATOM     27  C   UNL     1     113.233 128.254 137.156  0.00  0.00    +0.000 C 
ATOM     28  C   UNL     1     113.379 127.298 138.208  0.00  0.00    +0.000 C 
BRANCH  27  31
ATOM     29  O   UNL     1     112.830 128.313 135.786  0.00  0.00    +0.000 OA
ATOM     30  O   UNL     1     114.069 128.896 136.193  0.00  0.00    +0.000 OA
ATOM     31  C   UNL     1     113.378 128.488 136.379  0.00  0.00    +0.000 C 
ENDBRANCH  27  31
ENDBRANCH  19  28
ENDBRANCH   2  19
TORSDOF 7
ENDMDL
MODEL 7
REMARK VINA RESULT:      -8.4      7.823      9.950
REMARK  Name = 131838980
REMARK  7 active torsions:
REMARK  status: ('A' for Active; 'I' for Inactive)
REMARK    1  A    between atoms: O_2  and  C_15
REMARK    2  A    between atoms: O_2  and  C_17
REMARK    3  A    between atoms: C_14  and  C_16
REMARK    4  A    between atoms: C_19  and  C_22
REMARK    5  A    between atoms: C_21  and  C_22
REMARK    6  A    between atoms: C_21  and  C_25
REMARK    7  A    between atoms: C_25  and  C_26
REMARK                            x       y       z     vdW  Elec       q    Type
REMARK                         _______ _______ _______ _____ _____    ______ ____
ROOT
ATOM      1  O   UNL     1     111.714 126.044 140.013  0.00  0.00    +0.000 OA
ATOM      2  C   UNL     1     113.388 127.678 140.825  0.00  0.00    +0.000 A 
ATOM      3  C   UNL     1     113.305 127.539 140.015  0.00  0.00    +0.000 A 
ATOM      4  C   UNL     1     112.747 126.995 139.744  0.00  0.00    +0.000 A 
ATOM      5  C   UNL     1     112.913 127.272 141.363  0.00  0.00    +0.000 A 
ATOM      6  C   UNL     1     112.273 126.589 140.284  0.00  0.00    +0.000 A 
ATOM      7  C   UNL     1     112.355 126.727 141.092  0.00  0.00    +0.000 A 
ENDROOT
BRANCH   4   9
ATOM      8  O   UNL     1     112.028 127.183 138.524  0.00  0.00    +0.000 OA
ATOM      9  C   UNL     1     112.665 126.856 138.936  0.00  0.00    +0.000 C 
BRANCH   9  10
ATOM     10  C   UNL     1     113.218 126.392 138.538  0.00  0.00    +0.000 C 
BRANCH  10  11
ATOM     11  C   UNL     1     113.275 126.430 137.716  0.00  0.00    +0.000 C 
BRANCH  11  13
ATOM     12  O   UNL     1     113.907 126.931 136.277  0.00  0.00    +0.000 OA
ATOM     13  C   UNL     1     113.817 125.953 137.316  0.00  0.00    +0.000 A 
ATOM     14  C   UNL     1     114.134 126.204 136.597  0.00  0.00    +0.000 A 
ATOM     15  C   UNL     1     114.044 125.228 137.636  0.00  0.00    +0.000 A 
ATOM     16  C   UNL     1     114.676 125.729 136.196  0.00  0.00    +0.000 A 
ATOM     17  C   UNL     1     114.587 124.752 137.236  0.00  0.00    +0.000 A 
ATOM     18  C   UNL     1     114.903 125.002 136.516  0.00  0.00    +0.000 A 
ENDBRANCH  11  13
ENDBRANCH  10  11
ENDBRANCH   9  10
ENDBRANCH   4   9
BRANCH   2  19
ATOM     19  O   UNL     1     113.945 128.222 141.095  0.00  0.00    +0.000 OA
BRANCH  19  28
ATOM     20  O   UNL     1     113.036 129.183 141.633  0.00  0.00    +0.000 OA
ATOM     21  O   UNL     1     114.459 131.014 140.765  0.00  0.00    +0.000 OA
ATOM     22  O   UNL     1     113.075 131.365 141.593  0.00  0.00    +0.000 OA
ATOM     23  O   UNL     1     114.893 129.442 140.516  0.00  0.00    +0.000 OA
ATOM     24  C   UNL     1     113.985 130.403 141.054  0.00  0.00    +0.000 C 
ATOM     25  C   UNL     1     113.293 130.580 141.469  0.00  0.00    +0.000 C 
ATOM     26  C   UNL     1     114.202 129.618 140.930  0.00  0.00    +0.000 C 
ATOM     27  C   UNL     1     112.819 129.970 141.758  0.00  0.00    +0.000 C 
ATOM     28  C   UNL     1     113.728 129.008 141.219  0.00  0.00    +0.000 C 
BRANCH  27  31
ATOM     29  O   UNL     1     112.139 130.180 142.997  0.00  0.00    +0.000 OA
ATOM     30  O   UNL     1     111.426 130.286 141.763  0.00  0.00    +0.000 OA
ATOM     31  C   UNL     1     112.127 130.145 142.172  0.00  0.00    +0.000 C 
ENDBRANCH  27  31
ENDBRANCH  19  28
ENDBRANCH   2  19
TORSDOF 7
ENDMDL
MODEL 8
REMARK VINA RESULT:      -8.4      4.676      6.338
REMARK  Name = 131838980
REMARK  7 active torsions:
REMARK  status: ('A' for Active; 'I' for Inactive)
REMARK    1  A    between atoms: O_2  and  C_15
REMARK    2  A    between atoms: O_2  and  C_17
REMARK    3  A    between atoms: C_14  and  C_16
REMARK    4  A    between atoms: C_19  and  C_22
REMARK    5  A    between atoms: C_21  and  C_22
REMARK    6  A    between atoms: C_21  and  C_25
REMARK    7  A    between atoms: C_25  and  C_26
REMARK                            x       y       z     vdW  Elec       q    Type
REMARK                         _______ _______ _______ _____ _____    ______ ____
ROOT
ATOM      1  O   UNL     1     102.461 126.998 148.589  0.00  0.00    +0.000 OA
ATOM      2  C   UNL     1     104.575 125.712 148.527  0.00  0.00    +0.000 A 
ATOM      3  C   UNL     1     103.851 125.316 148.546  0.00  0.00    +0.000 A 
ATOM      4  C   UNL     1     103.147 125.744 148.566  0.00  0.00    +0.000 A 
ATOM      5  C   UNL     1     104.594 126.537 148.530  0.00  0.00    +0.000 A 
ATOM      6  C   UNL     1     103.166 126.569 148.569  0.00  0.00    +0.000 A 
ATOM      7  C   UNL     1     103.889 126.965 148.550  0.00  0.00    +0.000 A 
ENDROOT
BRANCH   4   9
ATOM      8  O   UNL     1     101.953 125.378 149.263  0.00  0.00    +0.000 OA
ATOM      9  C   UNL     1     102.424 125.348 148.584  0.00  0.00    +0.000 C 
BRANCH   9  10
ATOM     10  C   UNL     1     102.170 124.921 147.925  0.00  0.00    +0.000 C 
BRANCH  10  11
ATOM     11  C   UNL     1     101.572 124.359 148.003  0.00  0.00    +0.000 C 
BRANCH  11  13
ATOM     12  O   UNL     1     100.748 122.948 148.234  0.00  0.00    +0.000 OA
ATOM     13  C   UNL     1     101.348 123.902 147.354  0.00  0.00    +0.000 A 
ATOM     14  C   UNL     1     100.936 123.197 147.469  0.00  0.00    +0.000 A 
ATOM     15  C   UNL     1     101.534 124.150 146.590  0.00  0.00    +0.000 A 
ATOM     16  C   UNL     1     100.711 122.739 146.821  0.00  0.00    +0.000 A 
ATOM     17  C   UNL     1     101.310 123.693 145.940  0.00  0.00    +0.000 A 
ATOM     18  C   UNL     1     100.898 122.988 146.056  0.00  0.00    +0.000 A 
ENDBRANCH  11  13
ENDBRANCH  10  11
ENDBRANCH   9  10
ENDBRANCH   4   9
BRANCH   2  19
ATOM     19  O   UNL     1     105.279 125.284 148.507  0.00  0.00    +0.000 OA
BRANCH  19  28
ATOM     20  O   UNL     1     105.308 125.054 147.098  0.00  0.00    +0.000 OA
ATOM     21  O   UNL     1     107.765 125.361 147.098  0.00  0.00    +0.000 OA
ATOM     22  O   UNL     1     106.974 125.028 145.688  0.00  0.00    +0.000 OA
ATOM     23  O   UNL     1     106.916 125.488 148.507  0.00  0.00    +0.000 OA
ATOM     24  C   UNL     1     106.945 125.258 147.098  0.00  0.00    +0.000 C 
ATOM     25  C   UNL     1     106.551 125.092 146.392  0.00  0.00    +0.000 C 
ATOM     26  C   UNL     1     106.522 125.322 147.802  0.00  0.00    +0.000 C 
ATOM     27  C   UNL     1     105.732 124.990 146.392  0.00  0.00    +0.000 C 
ATOM     28  C   UNL     1     105.703 125.220 147.802  0.00  0.00    +0.000 C 
BRANCH  27  31
ATOM     29  O   UNL     1     105.078 125.442 145.205  0.00  0.00    +0.000 OA
ATOM     30  O   UNL     1     105.199 124.042 145.466  0.00  0.00    +0.000 OA
ATOM     31  C   UNL     1     105.337 124.824 145.688  0.00  0.00    +0.000 C 
ENDBRANCH  27  31
ENDBRANCH  19  28
ENDBRANCH   2  19
TORSDOF 7
ENDMDL
MODEL 9
REMARK VINA RESULT:      -8.3      8.630     11.061
REMARK  Name = 131838980
REMARK  7 active torsions:
REMARK  status: ('A' for Active; 'I' for Inactive)
REMARK    1  A    between atoms: O_2  and  C_15
REMARK    2  A    between atoms: O_2  and  C_17
REMARK    3  A    between atoms: C_14  and  C_16
REMARK    4  A    between atoms: C_19  and  C_22
REMARK    5  A    between atoms: C_21  and  C_22
REMARK    6  A    between atoms: C_21  and  C_25
REMARK    7  A    between atoms: C_25  and  C_26
REMARK                            x       y       z     vdW  Elec       q    Type
REMARK                         _______ _______ _______ _____ _____    ______ ____
ROOT
ATOM      1  O   UNL     1     114.196 128.835 134.984  0.00  0.00    +0.000 OA
ATOM      2  C   UNL     1     113.662 129.910 137.149  0.00  0.00    +0.000 A 
ATOM      3  C   UNL     1     113.399 129.143 136.993  0.00  0.00    +0.000 A 
ATOM      4  C   UNL     1     113.577 128.785 136.272  0.00  0.00    +0.000 A 
ATOM      5  C   UNL     1     114.102 130.318 136.583  0.00  0.00    +0.000 A 
ATOM      6  C   UNL     1     114.017 129.194 135.706  0.00  0.00    +0.000 A 
ATOM      7  C   UNL     1     114.280 129.960 135.862  0.00  0.00    +0.000 A 
ENDROOT
BRANCH   4   9
ATOM      8  O   UNL     1     112.638 127.899 135.658  0.00  0.00    +0.000 OA
ATOM      9  C   UNL     1     113.315 128.019 136.116  0.00  0.00    +0.000 C 
BRANCH   9  10
ATOM     10  C   UNL     1     113.728 127.371 136.418  0.00  0.00    +0.000 C 
BRANCH  10  11
ATOM     11  C   UNL     1     113.334 126.662 136.563  0.00  0.00    +0.000 C 
BRANCH  11  13
ATOM     12  O   UNL     1     112.728 125.658 137.724  0.00  0.00    +0.000 OA
ATOM     13  C   UNL     1     113.760 125.993 136.792  0.00  0.00    +0.000 A 
ATOM     14  C   UNL     1     113.457 125.491 137.372  0.00  0.00    +0.000 A 
ATOM     15  C   UNL     1     114.487 125.825 136.441  0.00  0.00    +0.000 A 
ATOM     16  C   UNL     1     113.881 124.822 137.602  0.00  0.00    +0.000 A 
ATOM     17  C   UNL     1     114.912 125.156 136.670  0.00  0.00    +0.000 A 
ATOM     18  C   UNL     1     114.609 124.655 137.251  0.00  0.00    +0.000 A 
ENDBRANCH  11  13
ENDBRANCH  10  11
ENDBRANCH   9  10
ENDBRANCH   4   9
BRANCH   2  19
ATOM     19  O   UNL     1     113.484 130.268 137.870  0.00  0.00    +0.000 OA
BRANCH  19  28
ATOM     20  O   UNL     1     112.341 131.010 137.442  0.00  0.00    +0.000 OA
ATOM     21  O   UNL     1     111.207 130.498 139.582  0.00  0.00    +0.000 OA
ATOM     22  O   UNL     1     110.442 131.411 138.439  0.00  0.00    +0.000 OA
ATOM     23  O   UNL     1     112.728 129.927 139.296  0.00  0.00    +0.000 OA
ATOM     24  C   UNL     1     111.585 130.669 138.868  0.00  0.00    +0.000 C 
ATOM     25  C   UNL     1     111.202 131.125 138.297  0.00  0.00    +0.000 C 
ATOM     26  C   UNL     1     112.345 130.383 138.726  0.00  0.00    +0.000 C 
ATOM     27  C   UNL     1     111.580 131.296 137.584  0.00  0.00    +0.000 C 
ATOM     28  C   UNL     1     112.723 130.554 138.013  0.00  0.00    +0.000 C 
BRANCH  27  31
ATOM     29  O   UNL     1     110.704 131.389 136.459  0.00  0.00    +0.000 OA
ATOM     30  O   UNL     1     111.308 132.568 136.995  0.00  0.00    +0.000 OA
ATOM     31  C   UNL     1     111.197 131.752 137.013  0.00  0.00    +0.000 C 
ENDBRANCH  27  31
ENDBRANCH  19  28
ENDBRANCH   2  19
TORSDOF 7
ENDMDL
MODEL 10
REMARK VINA RESULT:      -8.2      2.972      6.151
REMARK  Name = 131838980
REMARK  7 active torsions:
REMARK  status: ('A' for Active; 'I' for Inactive)
REMARK    1  A    between atoms: O_2  and  C_15
REMARK    2  A    between atoms: O_2  and  C_17
REMARK    3  A    between atoms: C_14  and  C_16
REMARK    4  A    between atoms: C_19  and  C_22
REMARK    5  A    between atoms: C_21  and  C_22
REMARK    6  A    between atoms: C_21  and  C_25
REMARK    7  A    between atoms: C_25  and  C_26
REMARK                            x       y       z     vdW  Elec       q    Type
REMARK                         _______ _______ _______ _____ _____    ______ ____
ROOT
ATOM      1  O   UNL     1     106.467 128.226 146.792  0.00  0.00    +0.000 OA
ATOM      2  C   UNL     1     105.691 126.742 144.969  0.00  0.00    +0.000 A 
ATOM      3  C   UNL     1     106.242 126.466 145.519  0.00  0.00    +0.000 A 
ATOM      4  C   UNL     1     106.500 126.961 146.126  0.00  0.00    +0.000 A 
ATOM      5  C   UNL     1     105.400 127.511 145.027  0.00  0.00    +0.000 A 
ATOM      6  C   UNL     1     106.208 127.731 146.183  0.00  0.00    +0.000 A 
ATOM      7  C   UNL     1     105.659 128.006 145.634  0.00  0.00    +0.000 A 
ENDROOT
BRANCH   4   9
ATOM      8  O   UNL     1     107.831 126.953 146.648  0.00  0.00    +0.000 OA
ATOM      9  C   UNL     1     107.050 126.686 146.676  0.00  0.00    +0.000 C 
BRANCH   9  10
ATOM     10  C   UNL     1     106.820 126.144 147.254  0.00  0.00    +0.000 C 
BRANCH  10  11
ATOM     11  C   UNL     1     107.390 125.704 147.656  0.00  0.00    +0.000 C 
BRANCH  11  13
ATOM     12  O   UNL     1     108.498 124.705 148.362  0.00  0.00    +0.000 OA
ATOM     13  C   UNL     1     107.171 125.236 148.300  0.00  0.00    +0.000 A 
ATOM     14  C   UNL     1     107.725 124.737 148.653  0.00  0.00    +0.000 A 
ATOM     15  C   UNL     1     106.401 125.267 148.591  0.00  0.00    +0.000 A 
ATOM     16  C   UNL     1     107.508 124.268 149.297  0.00  0.00    +0.000 A 
ATOM     17  C   UNL     1     106.182 124.799 149.234  0.00  0.00    +0.000 A 
ATOM     18  C   UNL     1     106.736 124.299 149.587  0.00  0.00    +0.000 A 
ENDBRANCH  11  13
ENDBRANCH  10  11
ENDBRANCH   9  10
ENDBRANCH   4   9
BRANCH   2  19
ATOM     19  O   UNL     1     105.433 126.247 144.362  0.00  0.00    +0.000 OA
BRANCH  19  28
ATOM     20  O   UNL     1     106.355 126.739 143.389  0.00  0.00    +0.000 OA
ATOM     21  O   UNL     1     106.457 124.493 142.351  0.00  0.00    +0.000 OA
ATOM     22  O   UNL     1     107.346 125.734 141.723  0.00  0.00    +0.000 OA
ATOM     23  O   UNL     1     105.501 124.751 143.670  0.00  0.00    +0.000 OA
ATOM     24  C   UNL     1     106.423 125.242 142.697  0.00  0.00    +0.000 C 
ATOM     25  C   UNL     1     106.868 125.862 142.383  0.00  0.00    +0.000 C 
ATOM     26  C   UNL     1     105.945 125.370 143.356  0.00  0.00    +0.000 C 
ATOM     27  C   UNL     1     106.834 126.610 142.728  0.00  0.00    +0.000 C 
ATOM     28  C   UNL     1     105.911 126.119 143.702  0.00  0.00    +0.000 C 
BRANCH  27  31
ATOM     29  O   UNL     1     108.054 127.351 142.669  0.00  0.00    +0.000 OA
ATOM     30  O   UNL     1     106.947 127.730 141.849  0.00  0.00    +0.000 OA
ATOM     31  C   UNL     1     107.278 127.231 142.415  0.00  0.00    +0.000 C 
ENDBRANCH  27  31
ENDBRANCH  19  28
ENDBRANCH   2  19
TORSDOF 7
ENDMDL
