MODEL 1
REMARK VINA RESULT:      -7.3      0.000      0.000
REMARK  Name = 24750458
REMARK  6 active torsions:
REMARK  status: ('A' for Active; 'I' for Inactive)
REMARK    1  A    between atoms: O_2  and  C_12
REMARK    2  A    between atoms: O_3  and  C_18
REMARK    3  A    between atoms: O_4  and  C_19
REMARK    4  A    between atoms: O_5  and  C_20
REMARK    5  A    between atoms: O_6  and  C_21
REMARK    6  A    between atoms: C_10  and  C_11
REMARK                            x       y       z     vdW  Elec       q    Type
REMARK                         _______ _______ _______ _____ _____    ______ ____
ROOT
ATOM      1  O   UNL     1     112.743 126.483 136.786  0.00  0.00    +0.000 OA
ATOM      2  O   UNL     1     115.004 125.600 136.302  0.00  0.00    +0.000 OA
ATOM      3  C   UNL     1     112.873 125.669 136.770  0.00  0.00    +0.000 A 
ATOM      4  C   UNL     1     113.627 125.375 136.608  0.00  0.00    +0.000 A 
ATOM      5  C   UNL     1     113.366 127.004 136.641  0.00  0.00    +0.000 A 
ATOM      6  C   UNL     1     112.215 125.137 136.922  0.00  0.00    +0.000 A 
ATOM      7  C   UNL     1     114.250 125.895 136.463  0.00  0.00    +0.000 A 
ATOM      8  C   UNL     1     114.121 126.709 136.479  0.00  0.00    +0.000 A 
ATOM      9  C   UNL     1     113.775 124.528 136.589  0.00  0.00    +0.000 A 
ATOM     10  C   UNL     1     112.344 124.288 136.907  0.00  0.00    +0.000 A 
ATOM     11  C   UNL     1     113.130 123.981 136.739  0.00  0.00    +0.000 A 
ENDROOT
BRANCH   5  12
ATOM     12  C   UNL     1     113.237 127.818 136.657  0.00  0.00    +0.000 A 
ATOM     13  C   UNL     1     113.059 128.221 135.959  0.00  0.00    +0.000 A 
ATOM     14  C   UNL     1     113.284 128.230 137.370  0.00  0.00    +0.000 A 
ATOM     15  C   UNL     1     113.154 129.044 137.386  0.00  0.00    +0.000 A 
ATOM     16  C   UNL     1     112.929 129.036 135.975  0.00  0.00    +0.000 A 
ATOM     17  C   UNL     1     112.977 129.447 136.688  0.00  0.00    +0.000 A 
BRANCH  15  18
ATOM     18  O   UNL     1     113.202 129.456 138.099  0.00  0.00    +0.000 OA
ATOM     19  C   UNL     1     113.051 129.066 138.812  0.00  0.00    +0.000 C 
ENDBRANCH  15  18
BRANCH  16  20
ATOM     20  O   UNL     1     112.752 129.439 135.278  0.00  0.00    +0.000 OA
ATOM     21  C   UNL     1     112.335 129.058 134.676  0.00  0.00    +0.000 C 
ENDBRANCH  16  20
BRANCH  17  22
ATOM     22  O   UNL     1     112.847 130.262 136.704  0.00  0.00    +0.000 OA
ATOM     23  C   UNL     1     113.482 130.782 136.621  0.00  0.00    +0.000 C 
ENDBRANCH  17  22
ENDBRANCH   5  12
BRANCH   6  24
ATOM     24  O   UNL     1     111.465 125.441 137.083  0.00  0.00    +0.000 OA
ATOM     25  C   UNL     1     110.865 125.373 136.521  0.00  0.00    +0.000 C 
ENDBRANCH   6  24
BRANCH  10  26
ATOM     26  O   UNL     1     111.719 123.770 137.053  0.00  0.00    +0.000 OA
ATOM     27  C   UNL     1     111.871 122.978 137.226  0.00  0.00    +0.000 C 
ENDBRANCH  10  26
TORSDOF 6
ENDMDL
MODEL 2
REMARK VINA RESULT:      -7.1      1.076      4.474
REMARK  Name = 24750458
REMARK  6 active torsions:
REMARK  status: ('A' for Active; 'I' for Inactive)
REMARK    1  A    between atoms: O_2  and  C_12
REMARK    2  A    between atoms: O_3  and  C_18
REMARK    3  A    between atoms: O_4  and  C_19
REMARK    4  A    between atoms: O_5  and  C_20
REMARK    5  A    between atoms: O_6  and  C_21
REMARK    6  A    between atoms: C_10  and  C_11
REMARK                            x       y       z     vdW  Elec       q    Type
REMARK                         _______ _______ _______ _____ _____    ______ ____
ROOT
ATOM      1  O   UNL     1     112.595 127.457 137.225  0.00  0.00    +0.000 OA
ATOM      2  O   UNL     1     114.060 128.531 135.544  0.00  0.00    +0.000 OA
ATOM      3  C   UNL     1     112.725 128.271 137.252  0.00  0.00    +0.000 A 
ATOM      4  C   UNL     1     113.214 128.629 136.691  0.00  0.00    +0.000 A 
ATOM      5  C   UNL     1     112.953 127.000 136.638  0.00  0.00    +0.000 A 
ATOM      6  C   UNL     1     112.346 128.735 137.868  0.00  0.00    +0.000 A 
ATOM      7  C   UNL     1     113.572 128.173 136.104  0.00  0.00    +0.000 A 
ATOM      8  C   UNL     1     113.442 127.359 136.077  0.00  0.00    +0.000 A 
ATOM      9  C   UNL     1     113.357 129.477 136.708  0.00  0.00    +0.000 A 
ATOM     10  C   UNL     1     112.478 129.583 137.901  0.00  0.00    +0.000 A 
ATOM     11  C   UNL     1     112.987 129.957 137.317  0.00  0.00    +0.000 A 
ENDROOT
BRANCH   5  12
ATOM     12  C   UNL     1     112.823 126.187 136.612  0.00  0.00    +0.000 A 
ATOM     13  C   UNL     1     112.125 125.891 136.285  0.00  0.00    +0.000 A 
ATOM     14  C   UNL     1     113.390 125.667 136.912  0.00  0.00    +0.000 A 
ATOM     15  C   UNL     1     113.259 124.854 136.885  0.00  0.00    +0.000 A 
ATOM     16  C   UNL     1     111.995 125.076 136.258  0.00  0.00    +0.000 A 
ATOM     17  C   UNL     1     112.562 124.558 136.558  0.00  0.00    +0.000 A 
BRANCH  15  18
ATOM     18  O   UNL     1     113.826 124.334 137.185  0.00  0.00    +0.000 OA
ATOM     19  C   UNL     1     114.590 124.605 137.344  0.00  0.00    +0.000 C 
ENDBRANCH  15  18
BRANCH  16  20
ATOM     20  O   UNL     1     111.298 124.781 135.932  0.00  0.00    +0.000 OA
ATOM     21  C   UNL     1     110.785 125.286 135.527  0.00  0.00    +0.000 C 
ENDBRANCH  16  20
BRANCH  17  22
ATOM     22  O   UNL     1     112.431 123.743 136.531  0.00  0.00    +0.000 OA
ATOM     23  C   UNL     1     112.028 123.371 137.146  0.00  0.00    +0.000 C 
ENDBRANCH  17  22
ENDBRANCH   5  12
BRANCH   6  24
ATOM     24  O   UNL     1     111.860 128.368 138.424  0.00  0.00    +0.000 OA
ATOM     25  C   UNL     1     112.112 128.294 139.206  0.00  0.00    +0.000 C 
ENDBRANCH   6  24
BRANCH  10  26
ATOM     26  O   UNL     1     112.119 130.037 138.489  0.00  0.00    +0.000 OA
ATOM     27  C   UNL     1     112.031 130.851 138.385  0.00  0.00    +0.000 C 
ENDBRANCH  10  26
TORSDOF 6
ENDMDL
MODEL 3
REMARK VINA RESULT:      -7.1     11.027     13.014
REMARK  Name = 24750458
REMARK  6 active torsions:
REMARK  status: ('A' for Active; 'I' for Inactive)
REMARK    1  A    between atoms: O_2  and  C_12
REMARK    2  A    between atoms: O_3  and  C_18
REMARK    3  A    between atoms: O_4  and  C_19
REMARK    4  A    between atoms: O_5  and  C_20
REMARK    5  A    between atoms: O_6  and  C_21
REMARK    6  A    between atoms: C_10  and  C_11
REMARK                            x       y       z     vdW  Elec       q    Type
REMARK                         _______ _______ _______ _____ _____    ______ ____
ROOT
ATOM      1  O   UNL     1     102.986 132.231 141.322  0.00  0.00    +0.000 OA
ATOM      2  O   UNL     1     100.717 132.653 142.216  0.00  0.00    +0.000 OA
ATOM      3  C   UNL     1     102.676 132.995 141.317  0.00  0.00    +0.000 A 
ATOM      4  C   UNL     1     101.919 133.136 141.615  0.00  0.00    +0.000 A 
ATOM      5  C   UNL     1     102.539 131.606 141.625  0.00  0.00    +0.000 A 
ATOM      6  C   UNL     1     103.151 133.637 140.998  0.00  0.00    +0.000 A 
ATOM      7  C   UNL     1     101.473 132.512 141.918  0.00  0.00    +0.000 A 
ATOM      8  C   UNL     1     101.782 131.747 141.923  0.00  0.00    +0.000 A 
ATOM      9  C   UNL     1     101.585 133.928 141.615  0.00  0.00    +0.000 A 
ATOM     10  C   UNL     1     102.834 134.435 140.990  0.00  0.00    +0.000 A 
ATOM     11  C   UNL     1     102.046 134.582 141.300  0.00  0.00    +0.000 A 
ENDROOT
BRANCH   5  12
ATOM     12  C   UNL     1     102.849 130.842 141.630  0.00  0.00    +0.000 A 
ATOM     13  C   UNL     1     103.249 130.564 142.296  0.00  0.00    +0.000 A 
ATOM     14  C   UNL     1     102.758 130.355 140.971  0.00  0.00    +0.000 A 
ATOM     15  C   UNL     1     103.067 129.591 140.976  0.00  0.00    +0.000 A 
ATOM     16  C   UNL     1     103.559 129.799 142.302  0.00  0.00    +0.000 A 
ATOM     17  C   UNL     1     103.468 129.313 141.642  0.00  0.00    +0.000 A 
BRANCH  15  18
ATOM     18  O   UNL     1     102.976 129.103 140.316  0.00  0.00    +0.000 OA
ATOM     19  C   UNL     1     102.377 129.257 139.770  0.00  0.00    +0.000 C 
ENDBRANCH  15  18
BRANCH  16  20
ATOM     20  O   UNL     1     103.959 129.521 142.966  0.00  0.00    +0.000 OA
ATOM     21  C   UNL     1     103.967 129.968 143.661  0.00  0.00    +0.000 C 
ENDBRANCH  16  20
BRANCH  17  22
ATOM     22  O   UNL     1     103.778 128.547 141.647  0.00  0.00    +0.000 OA
ATOM     23  C   UNL     1     104.581 128.427 141.504  0.00  0.00    +0.000 C 
ENDBRANCH  17  22
ENDBRANCH   5  12
BRANCH   6  24
ATOM     24  O   UNL     1     103.907 133.486 140.702  0.00  0.00    +0.000 OA
ATOM     25  C   UNL     1     104.050 133.544 139.892  0.00  0.00    +0.000 C 
ENDBRANCH   6  24
BRANCH  10  26
ATOM     26  O   UNL     1     103.283 135.057 140.686  0.00  0.00    +0.000 OA
ATOM     27  C   UNL     1     103.070 135.837 140.849  0.00  0.00    +0.000 C 
ENDBRANCH  10  26
TORSDOF 6
ENDMDL
MODEL 4
REMARK VINA RESULT:      -7.1      1.090      2.242
REMARK  Name = 24750458
REMARK  6 active torsions:
REMARK  status: ('A' for Active; 'I' for Inactive)
REMARK    1  A    between atoms: O_2  and  C_12
REMARK    2  A    between atoms: O_3  and  C_18
REMARK    3  A    between atoms: O_4  and  C_19
REMARK    4  A    between atoms: O_5  and  C_20
REMARK    5  A    between atoms: O_6  and  C_21
REMARK    6  A    between atoms: C_10  and  C_11
REMARK                            x       y       z     vdW  Elec       q    Type
REMARK                         _______ _______ _______ _____ _____    ______ ____
ROOT
ATOM      1  O   UNL     1     112.875 126.832 136.539  0.00  0.00    +0.000 OA
ATOM      2  O   UNL     1     110.691 126.915 135.377  0.00  0.00    +0.000 OA
ATOM      3  C   UNL     1     112.448 126.138 136.416  0.00  0.00    +0.000 A 
ATOM      4  C   UNL     1     111.719 126.166 136.028  0.00  0.00    +0.000 A 
ATOM      5  C   UNL     1     112.576 127.555 136.276  0.00  0.00    +0.000 A 
ATOM      6  C   UNL     1     112.771 125.392 136.695  0.00  0.00    +0.000 A 
ATOM      7  C   UNL     1     111.419 126.887 135.765  0.00  0.00    +0.000 A 
ATOM      8  C   UNL     1     111.847 127.582 135.888  0.00  0.00    +0.000 A 
ATOM      9  C   UNL     1     111.264 125.449 135.893  0.00  0.00    +0.000 A 
ATOM     10  C   UNL     1     112.330 124.666 136.569  0.00  0.00    +0.000 A 
ATOM     11  C   UNL     1     111.571 124.694 136.165  0.00  0.00    +0.000 A 
ENDROOT
BRANCH   5  12
ATOM     12  C   UNL     1     113.003 128.248 136.399  0.00  0.00    +0.000 A 
ATOM     13  C   UNL     1     112.936 128.652 137.116  0.00  0.00    +0.000 A 
ATOM     14  C   UNL     1     113.499 128.540 135.807  0.00  0.00    +0.000 A 
ATOM     15  C   UNL     1     113.926 129.234 135.931  0.00  0.00    +0.000 A 
ATOM     16  C   UNL     1     113.364 129.347 137.240  0.00  0.00    +0.000 A 
ATOM     17  C   UNL     1     113.859 129.637 136.647  0.00  0.00    +0.000 A 
BRANCH  15  18
ATOM     18  O   UNL     1     114.421 129.525 135.339  0.00  0.00    +0.000 OA
ATOM     19  C   UNL     1     114.752 129.008 134.786  0.00  0.00    +0.000 C 
ENDBRANCH  15  18
BRANCH  16  20
ATOM     20  O   UNL     1     113.297 129.750 137.955  0.00  0.00    +0.000 OA
ATOM     21  C   UNL     1     113.107 129.338 138.645  0.00  0.00    +0.000 C 
ENDBRANCH  16  20
BRANCH  17  22
ATOM     22  O   UNL     1     114.287 130.332 136.771  0.00  0.00    +0.000 OA
ATOM     23  C   UNL     1     113.955 131.061 136.573  0.00  0.00    +0.000 C 
ENDBRANCH  17  22
ENDBRANCH   5  12
BRANCH   6  24
ATOM     24  O   UNL     1     113.499 125.374 137.081  0.00  0.00    +0.000 OA
ATOM     25  C   UNL     1     114.155 125.042 136.707  0.00  0.00    +0.000 C 
ENDBRANCH   6  24
BRANCH  10  26
ATOM     26  O   UNL     1     112.632 123.945 136.833  0.00  0.00    +0.000 OA
ATOM     27  C   UNL     1     112.128 123.301 136.941  0.00  0.00    +0.000 C 
ENDBRANCH  10  26
TORSDOF 6
ENDMDL
MODEL 5
REMARK VINA RESULT:      -7.0     12.680     14.111
REMARK  Name = 24750458
REMARK  6 active torsions:
REMARK  status: ('A' for Active; 'I' for Inactive)
REMARK    1  A    between atoms: O_2  and  C_12
REMARK    2  A    between atoms: O_3  and  C_18
REMARK    3  A    between atoms: O_4  and  C_19
REMARK    4  A    between atoms: O_5  and  C_20
REMARK    5  A    between atoms: O_6  and  C_21
REMARK    6  A    between atoms: C_10  and  C_11
REMARK                            x       y       z     vdW  Elec       q    Type
REMARK                         _______ _______ _______ _____ _____    ______ ____
ROOT
ATOM      1  O   UNL     1     103.889 124.393 146.865  0.00  0.00    +0.000 OA
ATOM      2  O   UNL     1     102.193 125.039 148.548  0.00  0.00    +0.000 OA
ATOM      3  C   UNL     1     103.099 124.184 146.755  0.00  0.00    +0.000 A 
ATOM      4  C   UNL     1     102.533 124.400 147.316  0.00  0.00    +0.000 A 
ATOM      5  C   UNL     1     104.115 124.817 147.535  0.00  0.00    +0.000 A 
ATOM      6  C   UNL     1     102.876 123.742 146.052  0.00  0.00    +0.000 A 
ATOM      7  C   UNL     1     102.758 124.824 147.987  0.00  0.00    +0.000 A 
ATOM      8  C   UNL     1     103.549 125.033 148.097  0.00  0.00    +0.000 A 
ATOM      9  C   UNL     1     101.706 124.188 147.213  0.00  0.00    +0.000 A 
ATOM     10  C   UNL     1     102.055 123.522 145.932  0.00  0.00    +0.000 A 
ATOM     11  C   UNL     1     101.466 123.746 146.517  0.00  0.00    +0.000 A 
ENDROOT
BRANCH   5  12
ATOM     12  C   UNL     1     104.905 125.026 147.645  0.00  0.00    +0.000 A 
ATOM     13  C   UNL     1     105.212 125.690 147.264  0.00  0.00    +0.000 A 
ATOM     14  C   UNL     1     105.388 124.571 148.136  0.00  0.00    +0.000 A 
ATOM     15  C   UNL     1     106.178 124.780 148.246  0.00  0.00    +0.000 A 
ATOM     16  C   UNL     1     106.004 125.899 147.374  0.00  0.00    +0.000 A 
ATOM     17  C   UNL     1     106.486 125.444 147.865  0.00  0.00    +0.000 A 
BRANCH  15  18
ATOM     18  O   UNL     1     106.661 124.325 148.736  0.00  0.00    +0.000 OA
ATOM     19  C   UNL     1     106.376 124.059 149.464  0.00  0.00    +0.000 C 
ENDBRANCH  15  18
BRANCH  16  20
ATOM     20  O   UNL     1     106.311 126.562 146.994  0.00  0.00    +0.000 OA
ATOM     21  C   UNL     1     105.805 127.160 146.732  0.00  0.00    +0.000 C 
ENDBRANCH  16  20
BRANCH  17  22
ATOM     22  O   UNL     1     107.277 125.653 147.975  0.00  0.00    +0.000 OA
ATOM     23  C   UNL     1     107.862 125.313 147.503  0.00  0.00    +0.000 C 
ENDBRANCH  17  22
ENDBRANCH   5  12
BRANCH   6  24
ATOM     24  O   UNL     1     103.449 123.531 145.496  0.00  0.00    +0.000 OA
ATOM     25  C   UNL     1     103.665 122.740 145.409  0.00  0.00    +0.000 C 
ENDBRANCH   6  24
BRANCH  10  26
ATOM     26  O   UNL     1     101.832 123.098 145.260  0.00  0.00    +0.000 OA
ATOM     27  C   UNL     1     101.033 122.971 145.098  0.00  0.00    +0.000 C 
ENDBRANCH  10  26
TORSDOF 6
ENDMDL
MODEL 6
REMARK VINA RESULT:      -6.9      1.050      4.676
REMARK  Name = 24750458
REMARK  6 active torsions:
REMARK  status: ('A' for Active; 'I' for Inactive)
REMARK    1  A    between atoms: O_2  and  C_12
REMARK    2  A    between atoms: O_3  and  C_18
REMARK    3  A    between atoms: O_4  and  C_19
REMARK    4  A    between atoms: O_5  and  C_20
REMARK    5  A    between atoms: O_6  and  C_21
REMARK    6  A    between atoms: C_10  and  C_11
REMARK                            x       y       z     vdW  Elec       q    Type
REMARK                         _______ _______ _______ _____ _____    ______ ____
ROOT
ATOM      1  O   UNL     1     113.320 127.683 136.535  0.00  0.00    +0.000 OA
ATOM      2  O   UNL     1     112.565 128.583 138.713  0.00  0.00    +0.000 OA
ATOM      3  C   UNL     1     113.436 128.480 136.714  0.00  0.00    +0.000 A 
ATOM      4  C   UNL     1     113.184 128.780 137.441  0.00  0.00    +0.000 A 
ATOM      5  C   UNL     1     112.953 127.186 137.081  0.00  0.00    +0.000 A 
ATOM      6  C   UNL     1     113.820 128.988 136.136  0.00  0.00    +0.000 A 
ATOM      7  C   UNL     1     112.817 128.283 137.987  0.00  0.00    +0.000 A 
ATOM      8  C   UNL     1     112.701 127.486 137.808  0.00  0.00    +0.000 A 
ATOM      9  C   UNL     1     113.299 129.609 137.640  0.00  0.00    +0.000 A 
ATOM     10  C   UNL     1     113.943 129.818 136.317  0.00  0.00    +0.000 A 
ATOM     11  C   UNL     1     113.681 130.131 137.074  0.00  0.00    +0.000 A 
ENDROOT
BRANCH   5  12
ATOM     12  C   UNL     1     112.837 126.390 136.902  0.00  0.00    +0.000 A 
ATOM     13  C   UNL     1     112.144 126.149 136.524  0.00  0.00    +0.000 A 
ATOM     14  C   UNL     1     113.413 125.833 137.100  0.00  0.00    +0.000 A 
ATOM     15  C   UNL     1     113.297 125.037 136.920  0.00  0.00    +0.000 A 
ATOM     16  C   UNL     1     112.028 125.351 136.344  0.00  0.00    +0.000 A 
ATOM     17  C   UNL     1     112.605 124.796 136.543  0.00  0.00    +0.000 A 
BRANCH  15  18
ATOM     18  O   UNL     1     113.874 124.481 137.118  0.00  0.00    +0.000 OA
ATOM     19  C   UNL     1     114.649 124.725 137.268  0.00  0.00    +0.000 C 
ENDBRANCH  15  18
BRANCH  16  20
ATOM     20  O   UNL     1     111.336 125.110 135.967  0.00  0.00    +0.000 OA
ATOM     21  C   UNL     1     110.916 125.642 135.496  0.00  0.00    +0.000 C 
ENDBRANCH  16  20
BRANCH  17  22
ATOM     22  O   UNL     1     112.488 123.998 136.363  0.00  0.00    +0.000 OA
ATOM     23  C   UNL     1     112.110 123.505 136.905  0.00  0.00    +0.000 C 
ENDBRANCH  17  22
ENDBRANCH   5  12
BRANCH   6  24
ATOM     24  O   UNL     1     114.068 128.679 135.412  0.00  0.00    +0.000 OA
ATOM     25  C   UNL     1     113.713 128.934 134.713  0.00  0.00    +0.000 C 
ENDBRANCH   6  24
BRANCH  10  26
ATOM     26  O   UNL     1     114.311 130.313 135.769  0.00  0.00    +0.000 OA
ATOM     27  C   UNL     1     114.616 131.040 136.010  0.00  0.00    +0.000 C 
ENDBRANCH  10  26
TORSDOF 6
ENDMDL
MODEL 7
REMARK VINA RESULT:      -6.9     12.709     14.392
REMARK  Name = 24750458
REMARK  6 active torsions:
REMARK  status: ('A' for Active; 'I' for Inactive)
REMARK    1  A    between atoms: O_2  and  C_12
REMARK    2  A    between atoms: O_3  and  C_18
REMARK    3  A    between atoms: O_4  and  C_19
REMARK    4  A    between atoms: O_5  and  C_20
REMARK    5  A    between atoms: O_6  and  C_21
REMARK    6  A    between atoms: C_10  and  C_11
REMARK                            x       y       z     vdW  Elec       q    Type
REMARK                         _______ _______ _______ _____ _____    ______ ____
ROOT
ATOM      1  O   UNL     1     105.010 124.594 147.527  0.00  0.00    +0.000 OA
ATOM      2  O   UNL     1     105.345 126.356 145.822  0.00  0.00    +0.000 OA
ATOM      3  C   UNL     1     105.750 124.945 147.438  0.00  0.00    +0.000 A 
ATOM      4  C   UNL     1     105.862 125.533 146.869  0.00  0.00    +0.000 A 
ATOM      5  C   UNL     1     104.380 124.829 147.048  0.00  0.00    +0.000 A 
ATOM      6  C   UNL     1     106.398 124.691 147.943  0.00  0.00    +0.000 A 
ATOM      7  C   UNL     1     105.233 125.769 146.390  0.00  0.00    +0.000 A 
ATOM      8  C   UNL     1     104.492 125.417 146.479  0.00  0.00    +0.000 A 
ATOM      9  C   UNL     1     106.629 125.907 146.767  0.00  0.00    +0.000 A 
ATOM     10  C   UNL     1     107.171 125.054 147.855  0.00  0.00    +0.000 A 
ATOM     11  C   UNL     1     107.288 125.666 147.263  0.00  0.00    +0.000 A 
ENDROOT
BRANCH   5  12
ATOM     12  C   UNL     1     103.640 124.478 147.137  0.00  0.00    +0.000 A 
ATOM     13  C   UNL     1     103.116 124.758 147.710  0.00  0.00    +0.000 A 
ATOM     14  C   UNL     1     103.421 123.846 146.653  0.00  0.00    +0.000 A 
ATOM     15  C   UNL     1     102.681 123.494 146.742  0.00  0.00    +0.000 A 
ATOM     16  C   UNL     1     102.375 124.406 147.800  0.00  0.00    +0.000 A 
ATOM     17  C   UNL     1     102.158 123.774 147.315  0.00  0.00    +0.000 A 
BRANCH  15  18
ATOM     18  O   UNL     1     102.462 122.862 146.259  0.00  0.00    +0.000 OA
ATOM     19  C   UNL     1     102.851 122.739 145.540  0.00  0.00    +0.000 C 
ENDBRANCH  15  18
BRANCH  16  20
ATOM     20  O   UNL     1     101.852 124.686 148.372  0.00  0.00    +0.000 OA
ATOM     21  C   UNL     1     101.848 125.487 148.571  0.00  0.00    +0.000 C 
ENDBRANCH  16  20
BRANCH  17  22
ATOM     22  O   UNL     1     101.416 123.423 147.405  0.00  0.00    +0.000 OA
ATOM     23  C   UNL     1     101.321 122.787 147.922  0.00  0.00    +0.000 C 
ENDBRANCH  17  22
ENDBRANCH   5  12
BRANCH   6  24
ATOM     24  O   UNL     1     106.276 124.103 148.509  0.00  0.00    +0.000 OA
ATOM     25  C   UNL     1     106.317 124.289 149.311  0.00  0.00    +0.000 C 
ENDBRANCH   6  24
BRANCH  10  26
ATOM     26  O   UNL     1     107.798 124.816 148.335  0.00  0.00    +0.000 OA
ATOM     27  C   UNL     1     108.576 124.954 148.097  0.00  0.00    +0.000 C 
ENDBRANCH  10  26
TORSDOF 6
ENDMDL
MODEL 8
REMARK VINA RESULT:      -6.8     11.931     13.231
REMARK  Name = 24750458
REMARK  6 active torsions:
REMARK  status: ('A' for Active; 'I' for Inactive)
REMARK    1  A    between atoms: O_2  and  C_12
REMARK    2  A    between atoms: O_3  and  C_18
REMARK    3  A    between atoms: O_4  and  C_19
REMARK    4  A    between atoms: O_5  and  C_20
REMARK    5  A    between atoms: O_6  and  C_21
REMARK    6  A    between atoms: C_10  and  C_11
REMARK                            x       y       z     vdW  Elec       q    Type
REMARK                         _______ _______ _______ _____ _____    ______ ____
ROOT
ATOM      1  O   UNL     1     104.057 124.774 146.632  0.00  0.00    +0.000 OA
ATOM      2  O   UNL     1     104.167 122.777 145.174  0.00  0.00    +0.000 OA
ATOM      3  C   UNL     1     103.438 124.230 146.631  0.00  0.00    +0.000 A 
ATOM      4  C   UNL     1     103.474 123.564 146.144  0.00  0.00    +0.000 A 
ATOM      5  C   UNL     1     104.714 124.653 146.147  0.00  0.00    +0.000 A 
ATOM      6  C   UNL     1     102.759 124.368 147.140  0.00  0.00    +0.000 A 
ATOM      7  C   UNL     1     104.130 123.443 145.660  0.00  0.00    +0.000 A 
ATOM      8  C   UNL     1     104.751 123.987 145.661  0.00  0.00    +0.000 A 
ATOM      9  C   UNL     1     102.835 122.990 146.134  0.00  0.00    +0.000 A 
ATOM     10  C   UNL     1     102.111 123.805 147.143  0.00  0.00    +0.000 A 
ATOM     11  C   UNL     1     102.149 123.111 146.637  0.00  0.00    +0.000 A 
ENDROOT
BRANCH   5  12
ATOM     12  C   UNL     1     105.334 125.197 146.148  0.00  0.00    +0.000 A 
ATOM     13  C   UNL     1     105.329 125.829 145.618  0.00  0.00    +0.000 A 
ATOM     14  C   UNL     1     105.960 125.110 146.679  0.00  0.00    +0.000 A 
ATOM     15  C   UNL     1     106.579 125.653 146.680  0.00  0.00    +0.000 A 
ATOM     16  C   UNL     1     105.949 126.374 145.619  0.00  0.00    +0.000 A 
ATOM     17  C   UNL     1     106.574 126.286 146.150  0.00  0.00    +0.000 A 
BRANCH  15  18
ATOM     18  O   UNL     1     107.205 125.566 147.211  0.00  0.00    +0.000 OA
ATOM     19  C   UNL     1     107.189 124.959 147.771  0.00  0.00    +0.000 C 
ENDBRANCH  15  18
BRANCH  16  20
ATOM     20  O   UNL     1     105.944 127.005 145.090  0.00  0.00    +0.000 OA
ATOM     21  C   UNL     1     105.589 126.921 144.349  0.00  0.00    +0.000 C 
ENDBRANCH  16  20
BRANCH  17  22
ATOM     22  O   UNL     1     107.195 126.830 146.151  0.00  0.00    +0.000 OA
ATOM     23  C   UNL     1     107.142 127.513 146.610  0.00  0.00    +0.000 C 
ENDBRANCH  17  22
ENDBRANCH   5  12
BRANCH   6  24
ATOM     24  O   UNL     1     102.732 125.037 147.623  0.00  0.00    +0.000 OA
ATOM     25  C   UNL     1     102.818 124.958 148.439  0.00  0.00    +0.000 C 
ENDBRANCH   6  24
BRANCH  10  26
ATOM     26  O   UNL     1     101.455 123.929 147.629  0.00  0.00    +0.000 OA
ATOM     27  C   UNL     1     100.786 123.453 147.548  0.00  0.00    +0.000 C 
ENDBRANCH  10  26
TORSDOF 6
ENDMDL
MODEL 9
REMARK VINA RESULT:      -4.9     12.012     13.786
REMARK  Name = 24750458
REMARK  6 active torsions:
REMARK  status: ('A' for Active; 'I' for Inactive)
REMARK    1  A    between atoms: O_2  and  C_12
REMARK    2  A    between atoms: O_3  and  C_18
REMARK    3  A    between atoms: O_4  and  C_19
REMARK    4  A    between atoms: O_5  and  C_20
REMARK    5  A    between atoms: O_6  and  C_21
REMARK    6  A    between atoms: C_10  and  C_11
REMARK                            x       y       z     vdW  Elec       q    Type
REMARK                         _______ _______ _______ _____ _____    ______ ____
ROOT
ATOM      1  O   UNL     1     104.977 125.448 146.588  0.00  0.00    +0.000 OA
ATOM      2  O   UNL     1     106.507 124.515 148.294  0.00  0.00    +0.000 OA
ATOM      3  C   UNL     1     105.708 125.804 146.723  0.00  0.00    +0.000 A 
ATOM      4  C   UNL     1     106.219 125.492 147.293  0.00  0.00    +0.000 A 
ATOM      5  C   UNL     1     104.754 124.782 147.020  0.00  0.00    +0.000 A 
ATOM      6  C   UNL     1     105.928 126.498 146.266  0.00  0.00    +0.000 A 
ATOM      7  C   UNL     1     105.997 124.826 147.725  0.00  0.00    +0.000 A 
ATOM      8  C   UNL     1     105.265 124.470 147.589  0.00  0.00    +0.000 A 
ATOM      9  C   UNL     1     106.984 125.853 147.444  0.00  0.00    +0.000 A 
ATOM     10  C   UNL     1     106.689 126.872 146.404  0.00  0.00    +0.000 A 
ATOM     11  C   UNL     1     107.220 126.548 146.997  0.00  0.00    +0.000 A 
ENDROOT
BRANCH   5  12
ATOM     12  C   UNL     1     104.023 124.426 146.884  0.00  0.00    +0.000 A 
ATOM     13  C   UNL     1     103.962 123.797 146.354  0.00  0.00    +0.000 A 
ATOM     14  C   UNL     1     103.351 124.700 147.277  0.00  0.00    +0.000 A 
ATOM     15  C   UNL     1     102.620 124.345 147.141  0.00  0.00    +0.000 A 
ATOM     16  C   UNL     1     103.230 123.441 146.218  0.00  0.00    +0.000 A 
ATOM     17  C   UNL     1     102.559 123.715 146.612  0.00  0.00    +0.000 A 
BRANCH  15  18
ATOM     18  O   UNL     1     101.948 124.618 147.534  0.00  0.00    +0.000 OA
ATOM     19  C   UNL     1     101.981 125.320 147.969  0.00  0.00    +0.000 C 
ENDBRANCH  15  18
BRANCH  16  20
ATOM     20  O   UNL     1     103.170 122.812 145.689  0.00  0.00    +0.000 OA
ATOM     21  C   UNL     1     103.709 122.741 145.068  0.00  0.00    +0.000 C 
ENDBRANCH  16  20
BRANCH  17  22
ATOM     22  O   UNL     1     101.827 123.359 146.475  0.00  0.00    +0.000 OA
ATOM     23  C   UNL     1     101.574 122.739 146.957  0.00  0.00    +0.000 C 
ENDBRANCH  17  22
ENDBRANCH   5  12
BRANCH   6  24
ATOM     24  O   UNL     1     105.411 126.802 145.700  0.00  0.00    +0.000 OA
ATOM     25  C   UNL     1     105.591 126.731 144.898  0.00  0.00    +0.000 C 
ENDBRANCH   6  24
BRANCH  10  26
ATOM     26  O   UNL     1     106.908 127.539 145.970  0.00  0.00    +0.000 OA
ATOM     27  C   UNL     1     107.530 128.014 146.230  0.00  0.00    +0.000 C 
ENDBRANCH  10  26
TORSDOF 6
ENDMDL
