MODEL 1
REMARK VINA RESULT:      -8.9      0.000      0.000
REMARK  Name = 44259988
REMARK  6 active torsions:
REMARK  status: ('A' for Active; 'I' for Inactive)
REMARK    1  A    between atoms: O_2  and  C_18
REMARK    2  A    between atoms: O_2  and  C_20
REMARK    3  A    between atoms: O_9  and  C_27
REMARK    4  A    between atoms: O_12  and  C_32
REMARK    5  A    between atoms: C_17  and  C_19
REMARK    6  A    between atoms: C_21  and  C_25
REMARK                            x       y       z     vdW  Elec       q    Type
REMARK                         _______ _______ _______ _____ _____    ______ ____
ROOT
ATOM      1  O   UNL     1     105.673 124.528 147.755  0.00  0.00    +0.000 OA
ATOM      2  O   UNL     1     107.034 125.713 146.060  0.00  0.00    +0.000 OA
ATOM      3  O   UNL     1     108.187 125.689 146.927  0.00  0.00    +0.000 OA
ATOM      4  O   UNL     1     107.958 124.443 149.559  0.00  0.00    +0.000 OA
ATOM      5  C   UNL     1     105.791 125.139 146.468  0.00  0.00    +0.000 A 
ATOM      6  C   UNL     1     105.337 124.744 147.033  0.00  0.00    +0.000 A 
ATOM      7  C   UNL     1     106.581 125.318 146.625  0.00  0.00    +0.000 A 
ATOM      8  C   UNL     1     106.917 125.102 147.347  0.00  0.00    +0.000 A 
ATOM      9  C   UNL     1     106.464 124.707 147.911  0.00  0.00    +0.000 A 
ATOM     10  C   UNL     1     107.741 125.294 147.498  0.00  0.00    +0.000 A 
ATOM     11  C   UNL     1     106.802 124.477 148.666  0.00  0.00    +0.000 A 
ATOM     12  C   UNL     1     107.624 124.660 148.836  0.00  0.00    +0.000 A 
ATOM     13  C   UNL     1     108.096 125.071 148.248  0.00  0.00    +0.000 A 
ENDROOT
BRANCH   6  15
ATOM     14  O   UNL     1     102.177 124.031 146.405  0.00  0.00    +0.000 OA
ATOM     15  C   UNL     1     104.547 124.565 146.876  0.00  0.00    +0.000 A 
ATOM     16  C   UNL     1     103.946 125.007 147.230  0.00  0.00    +0.000 A 
ATOM     17  C   UNL     1     104.358 123.946 146.365  0.00  0.00    +0.000 A 
ATOM     18  C   UNL     1     103.157 124.828 147.072  0.00  0.00    +0.000 A 
ATOM     19  C   UNL     1     103.567 123.768 146.208  0.00  0.00    +0.000 A 
ATOM     20  C   UNL     1     102.967 124.209 146.561  0.00  0.00    +0.000 A 
BRANCH  18  21
ATOM     21  O   UNL     1     102.556 125.270 147.426  0.00  0.00    +0.000 OA
ATOM     22  C   UNL     1     102.560 125.394 148.242  0.00  0.00    +0.000 C 
ENDBRANCH  18  21
ENDBRANCH   6  15
BRANCH  11  23
ATOM     23  O   UNL     1     106.341 124.082 149.226  0.00  0.00    +0.000 OA
ATOM     24  C   UNL     1     106.636 123.410 149.604  0.00  0.00    +0.000 C 
ENDBRANCH  11  23
BRANCH   5  25
ATOM     25  O   UNL     1     105.454 125.355 145.746  0.00  0.00    +0.000 OA
BRANCH  25  34
ATOM     26  O   UNL     1     105.361 126.744 146.067  0.00  0.00    +0.000 OA
ATOM     27  O   UNL     1     105.669 127.317 143.679  0.00  0.00    +0.000 OA
ATOM     28  O   UNL     1     105.473 128.515 144.797  0.00  0.00    +0.000 OA
ATOM     29  O   UNL     1     105.659 125.737 144.154  0.00  0.00    +0.000 OA
ATOM     30  C   UNL     1     105.566 127.126 144.475  0.00  0.00    +0.000 C 
ATOM     31  C   UNL     1     105.468 127.725 145.034  0.00  0.00    +0.000 C 
ATOM     32  C   UNL     1     105.561 126.336 144.713  0.00  0.00    +0.000 C 
ATOM     33  C   UNL     1     105.366 127.534 145.831  0.00  0.00    +0.000 C 
ATOM     34  C   UNL     1     105.459 126.144 145.509  0.00  0.00    +0.000 C 
BRANCH  33  36
ATOM     35  O   UNL     1     104.569 128.182 146.824  0.00  0.00    +0.000 OA
ATOM     36  C   UNL     1     105.268 128.132 146.389  0.00  0.00    +0.000 C 
ENDBRANCH  33  36
ENDBRANCH  25  34
ENDBRANCH   5  25
TORSDOF 6
ENDMDL
MODEL 2
REMARK VINA RESULT:      -8.7     10.472     12.696
REMARK  Name = 44259988
REMARK  6 active torsions:
REMARK  status: ('A' for Active; 'I' for Inactive)
REMARK    1  A    between atoms: O_2  and  C_18
REMARK    2  A    between atoms: O_2  and  C_20
REMARK    3  A    between atoms: O_9  and  C_27
REMARK    4  A    between atoms: O_12  and  C_32
REMARK    5  A    between atoms: C_17  and  C_19
REMARK    6  A    between atoms: C_21  and  C_25
REMARK                            x       y       z     vdW  Elec       q    Type
REMARK                         _______ _______ _______ _____ _____    ______ ____
ROOT
ATOM      1  O   UNL     1     113.147 126.699 136.686  0.00  0.00    +0.000 OA
ATOM      2  O   UNL     1     110.975 126.437 135.527  0.00  0.00    +0.000 OA
ATOM      3  O   UNL     1     110.996 125.011 135.749  0.00  0.00    +0.000 OA
ATOM      4  O   UNL     1     113.257 123.830 137.172  0.00  0.00    +0.000 OA
ATOM      5  C   UNL     1     112.038 127.273 135.990  0.00  0.00    +0.000 A 
ATOM      6  C   UNL     1     112.762 127.360 136.377  0.00  0.00    +0.000 A 
ATOM      7  C   UNL     1     111.699 126.524 135.913  0.00  0.00    +0.000 A 
ATOM      8  C   UNL     1     112.084 125.863 136.223  0.00  0.00    +0.000 A 
ATOM      9  C   UNL     1     112.807 125.951 136.610  0.00  0.00    +0.000 A 
ATOM     10  C   UNL     1     111.721 125.089 136.137  0.00  0.00    +0.000 A 
ATOM     11  C   UNL     1     113.218 125.271 136.937  0.00  0.00    +0.000 A 
ATOM     12  C   UNL     1     112.870 124.489 136.861  0.00  0.00    +0.000 A 
ATOM     13  C   UNL     1     112.117 124.398 136.458  0.00  0.00    +0.000 A 
ENDROOT
BRANCH   6  15
ATOM     14  O   UNL     1     114.115 130.354 136.684  0.00  0.00    +0.000 OA
ATOM     15  C   UNL     1     113.100 128.108 136.453  0.00  0.00    +0.000 A 
ATOM     16  C   UNL     1     113.065 128.505 137.176  0.00  0.00    +0.000 A 
ATOM     17  C   UNL     1     113.474 128.461 135.807  0.00  0.00    +0.000 A 
ATOM     18  C   UNL     1     113.403 129.253 137.252  0.00  0.00    +0.000 A 
ATOM     19  C   UNL     1     113.812 129.210 135.884  0.00  0.00    +0.000 A 
ATOM     20  C   UNL     1     113.777 129.606 136.606  0.00  0.00    +0.000 A 
BRANCH  18  21
ATOM     21  O   UNL     1     113.368 129.650 137.976  0.00  0.00    +0.000 OA
ATOM     22  C   UNL     1     113.385 129.223 138.681  0.00  0.00    +0.000 C 
ENDBRANCH  18  21
ENDBRANCH   6  15
BRANCH  11  23
ATOM     23  O   UNL     1     113.942 125.368 137.322  0.00  0.00    +0.000 OA
ATOM     24  C   UNL     1     114.602 124.941 137.072  0.00  0.00    +0.000 C 
ENDBRANCH  11  23
BRANCH   5  25
ATOM     25  O   UNL     1     111.653 127.933 135.680  0.00  0.00    +0.000 OA
BRANCH  25  34
ATOM     26  O   UNL     1     110.660 127.977 136.706  0.00  0.00    +0.000 OA
ATOM     27  O   UNL     1     109.047 128.956 135.105  0.00  0.00    +0.000 OA
ATOM     28  O   UNL     1     108.592 128.673 136.665  0.00  0.00    +0.000 OA
ATOM     29  O   UNL     1     110.578 128.586 134.612  0.00  0.00    +0.000 OA
ATOM     30  C   UNL     1     109.585 128.630 135.639  0.00  0.00    +0.000 C 
ATOM     31  C   UNL     1     109.358 128.488 136.419  0.00  0.00    +0.000 C 
ATOM     32  C   UNL     1     110.351 128.445 135.392  0.00  0.00    +0.000 C 
ATOM     33  C   UNL     1     109.895 128.162 136.953  0.00  0.00    +0.000 C 
ATOM     34  C   UNL     1     110.888 128.118 135.926  0.00  0.00    +0.000 C 
BRANCH  33  36
ATOM     35  O   UNL     1     110.035 128.425 138.350  0.00  0.00    +0.000 OA
ATOM     36  C   UNL     1     109.668 128.020 137.732  0.00  0.00    +0.000 C 
ENDBRANCH  33  36
ENDBRANCH  25  34
ENDBRANCH   5  25
TORSDOF 6
ENDMDL
MODEL 3
REMARK VINA RESULT:      -8.7      9.742     12.250
REMARK  Name = 44259988
REMARK  6 active torsions:
REMARK  status: ('A' for Active; 'I' for Inactive)
REMARK    1  A    between atoms: O_2  and  C_18
REMARK    2  A    between atoms: O_2  and  C_20
REMARK    3  A    between atoms: O_9  and  C_27
REMARK    4  A    between atoms: O_12  and  C_32
REMARK    5  A    between atoms: C_17  and  C_19
REMARK    6  A    between atoms: C_21  and  C_25
REMARK                            x       y       z     vdW  Elec       q    Type
REMARK                         _______ _______ _______ _____ _____    ______ ____
ROOT
ATOM      1  O   UNL     1     112.638 127.400 136.466  0.00  0.00    +0.000 OA
ATOM      2  O   UNL     1     112.844 128.455 138.697  0.00  0.00    +0.000 OA
ATOM      3  O   UNL     1     112.280 129.686 138.199  0.00  0.00    +0.000 OA
ATOM      4  O   UNL     1     111.492 129.852 135.391  0.00  0.00    +0.000 OA
ATOM      5  C   UNL     1     113.022 127.324 137.841  0.00  0.00    +0.000 A 
ATOM      6  C   UNL     1     112.953 126.972 137.097  0.00  0.00    +0.000 A 
ATOM      7  C   UNL     1     112.776 128.103 137.953  0.00  0.00    +0.000 A 
ATOM      8  C   UNL     1     112.460 128.531 137.322  0.00  0.00    +0.000 A 
ATOM      9  C   UNL     1     112.392 128.180 136.579  0.00  0.00    +0.000 A 
ATOM     10  C   UNL     1     112.207 129.342 137.451  0.00  0.00    +0.000 A 
ATOM     11  C   UNL     1     112.065 128.614 135.914  0.00  0.00    +0.000 A 
ATOM     12  C   UNL     1     111.807 129.427 136.024  0.00  0.00    +0.000 A 
ATOM     13  C   UNL     1     111.879 129.792 136.798  0.00  0.00    +0.000 A 
ENDROOT
BRANCH   6  15
ATOM     14  O   UNL     1     113.937 123.854 136.651  0.00  0.00    +0.000 OA
ATOM     15  C   UNL     1     113.200 126.193 136.986  0.00  0.00    +0.000 A 
ATOM     16  C   UNL     1     112.640 125.592 136.901  0.00  0.00    +0.000 A 
ATOM     17  C   UNL     1     114.005 126.014 136.958  0.00  0.00    +0.000 A 
ATOM     18  C   UNL     1     112.886 124.813 136.790  0.00  0.00    +0.000 A 
ATOM     19  C   UNL     1     114.250 125.235 136.846  0.00  0.00    +0.000 A 
ATOM     20  C   UNL     1     113.691 124.634 136.762  0.00  0.00    +0.000 A 
BRANCH  18  21
ATOM     21  O   UNL     1     112.327 124.211 136.706  0.00  0.00    +0.000 OA
ATOM     22  C   UNL     1     111.607 124.367 136.334  0.00  0.00    +0.000 C 
ENDBRANCH  18  21
ENDBRANCH   6  15
BRANCH  11  23
ATOM     23  O   UNL     1     112.000 128.255 135.173  0.00  0.00    +0.000 OA
ATOM     24  C   UNL     1     111.282 128.274 134.768  0.00  0.00    +0.000 C 
ENDBRANCH  11  23
BRANCH   5  25
ATOM     25  O   UNL     1     113.337 126.896 138.472  0.00  0.00    +0.000 OA
BRANCH  25  34
ATOM     26  O   UNL     1     112.082 126.646 139.108  0.00  0.00    +0.000 OA
ATOM     27  O   UNL     1     113.185 126.743 141.322  0.00  0.00    +0.000 OA
ATOM     28  O   UNL     1     111.564 126.461 141.220  0.00  0.00    +0.000 OA
ATOM     29  O   UNL     1     114.072 126.961 139.948  0.00  0.00    +0.000 OA
ATOM     30  C   UNL     1     112.818 126.711 140.584  0.00  0.00    +0.000 C 
ATOM     31  C   UNL     1     112.006 126.570 140.533  0.00  0.00    +0.000 C 
ATOM     32  C   UNL     1     113.261 126.820 139.896  0.00  0.00    +0.000 C 
ATOM     33  C   UNL     1     111.639 126.538 139.795  0.00  0.00    +0.000 C 
ATOM     34  C   UNL     1     112.894 126.787 139.158  0.00  0.00    +0.000 C 
BRANCH  33  36
ATOM     35  O   UNL     1     110.551 125.691 139.419  0.00  0.00    +0.000 OA
ATOM     36  C   UNL     1     110.828 126.397 139.744  0.00  0.00    +0.000 C 
ENDBRANCH  33  36
ENDBRANCH  25  34
ENDBRANCH   5  25
TORSDOF 6
ENDMDL
MODEL 4
REMARK VINA RESULT:      -8.7      9.899     12.333
REMARK  Name = 44259988
REMARK  6 active torsions:
REMARK  status: ('A' for Active; 'I' for Inactive)
REMARK    1  A    between atoms: O_2  and  C_18
REMARK    2  A    between atoms: O_2  and  C_20
REMARK    3  A    between atoms: O_9  and  C_27
REMARK    4  A    between atoms: O_12  and  C_32
REMARK    5  A    between atoms: C_17  and  C_19
REMARK    6  A    between atoms: C_21  and  C_25
REMARK                            x       y       z     vdW  Elec       q    Type
REMARK                         _______ _______ _______ _____ _____    ______ ____
ROOT
ATOM      1  O   UNL     1     113.043 127.424 136.527  0.00  0.00    +0.000 OA
ATOM      2  O   UNL     1     111.759 128.284 138.461  0.00  0.00    +0.000 OA
ATOM      3  O   UNL     1     112.044 129.646 138.081  0.00  0.00    +0.000 OA
ATOM      4  O   UNL     1     113.658 130.147 135.698  0.00  0.00    +0.000 OA
ATOM      5  C   UNL     1     112.253 127.184 137.693  0.00  0.00    +0.000 A 
ATOM      6  C   UNL     1     112.681 126.897 137.048  0.00  0.00    +0.000 A 
ATOM      7  C   UNL     1     112.187 127.997 137.816  0.00  0.00    +0.000 A 
ATOM      8  C   UNL     1     112.550 128.524 137.294  0.00  0.00    +0.000 A 
ATOM      9  C   UNL     1     112.977 128.237 136.650  0.00  0.00    +0.000 A 
ATOM     10  C   UNL     1     112.474 129.368 137.433  0.00  0.00    +0.000 A 
ATOM     11  C   UNL     1     113.359 128.775 136.099  0.00  0.00    +0.000 A 
ATOM     12  C   UNL     1     113.295 129.623 136.222  0.00  0.00    +0.000 A 
ATOM     13  C   UNL     1     112.849 129.921 136.893  0.00  0.00    +0.000 A 
ENDROOT
BRANCH   6  15
ATOM     14  O   UNL     1     112.945 123.644 136.560  0.00  0.00    +0.000 OA
ATOM     15  C   UNL     1     112.746 126.084 136.926  0.00  0.00    +0.000 A 
ATOM     16  C   UNL     1     113.446 125.693 137.122  0.00  0.00    +0.000 A 
ATOM     17  C   UNL     1     112.113 125.662 136.608  0.00  0.00    +0.000 A 
ATOM     18  C   UNL     1     113.511 124.880 137.000  0.00  0.00    +0.000 A 
ATOM     19  C   UNL     1     112.179 124.849 136.486  0.00  0.00    +0.000 A 
ATOM     20  C   UNL     1     112.878 124.458 136.682  0.00  0.00    +0.000 A 
BRANCH  18  21
ATOM     21  O   UNL     1     114.211 124.488 137.196  0.00  0.00    +0.000 OA
ATOM     22  C   UNL     1     114.930 124.892 137.174  0.00  0.00    +0.000 C 
ENDBRANCH  18  21
ENDBRANCH   6  15
BRANCH  11  23
ATOM     23  O   UNL     1     113.785 128.480 135.457  0.00  0.00    +0.000 OA
ATOM     24  C   UNL     1     114.538 128.775 135.291  0.00  0.00    +0.000 C 
ENDBRANCH  11  23
BRANCH   5  25
ATOM     25  O   UNL     1     111.890 126.657 138.215  0.00  0.00    +0.000 OA
BRANCH  25  34
ATOM     26  O   UNL     1     112.839 126.887 139.259  0.00  0.00    +0.000 OA
ATOM     27  O   UNL     1     111.120 126.318 140.946  0.00  0.00    +0.000 OA
ATOM     28  O   UNL     1     112.641 126.737 141.427  0.00  0.00    +0.000 OA
ATOM     29  O   UNL     1     110.745 126.278 139.340  0.00  0.00    +0.000 OA
ATOM     30  C   UNL     1     111.693 126.508 140.384  0.00  0.00    +0.000 C 
ATOM     31  C   UNL     1     112.454 126.718 140.624  0.00  0.00    +0.000 C 
ATOM     32  C   UNL     1     111.505 126.488 139.580  0.00  0.00    +0.000 C 
ATOM     33  C   UNL     1     113.027 126.907 140.061  0.00  0.00    +0.000 C 
ATOM     34  C   UNL     1     112.078 126.677 139.017  0.00  0.00    +0.000 C 
BRANCH  33  36
ATOM     35  O   UNL     1     114.431 126.644 140.095  0.00  0.00    +0.000 OA
ATOM     36  C   UNL     1     113.787 127.117 140.302  0.00  0.00    +0.000 C 
ENDBRANCH  33  36
ENDBRANCH  25  34
ENDBRANCH   5  25
TORSDOF 6
ENDMDL
MODEL 5
REMARK VINA RESULT:      -8.6      9.634     11.997
REMARK  Name = 44259988
REMARK  6 active torsions:
REMARK  status: ('A' for Active; 'I' for Inactive)
REMARK    1  A    between atoms: O_2  and  C_18
REMARK    2  A    between atoms: O_2  and  C_20
REMARK    3  A    between atoms: O_9  and  C_27
REMARK    4  A    between atoms: O_12  and  C_32
REMARK    5  A    between atoms: C_17  and  C_19
REMARK    6  A    between atoms: C_21  and  C_25
REMARK                            x       y       z     vdW  Elec       q    Type
REMARK                         _______ _______ _______ _____ _____    ______ ____
ROOT
ATOM      1  O   UNL     1     111.977 128.249 138.249  0.00  0.00    +0.000 OA
ATOM      2  O   UNL     1     113.744 127.250 136.832  0.00  0.00    +0.000 OA
ATOM      3  O   UNL     1     113.559 128.273 135.831  0.00  0.00    +0.000 OA
ATOM      4  O   UNL     1     111.549 130.345 136.273  0.00  0.00    +0.000 OA
ATOM      5  C   UNL     1     112.962 127.237 138.028  0.00  0.00    +0.000 A 
ATOM      6  C   UNL     1     112.373 127.570 138.501  0.00  0.00    +0.000 A 
ATOM      7  C   UNL     1     113.154 127.583 137.304  0.00  0.00    +0.000 A 
ATOM      8  C   UNL     1     112.758 128.262 137.053  0.00  0.00    +0.000 A 
ATOM      9  C   UNL     1     112.170 128.594 137.525  0.00  0.00    +0.000 A 
ATOM     10  C   UNL     1     112.969 128.613 136.297  0.00  0.00    +0.000 A 
ATOM     11  C   UNL     1     111.750 129.301 137.275  0.00  0.00    +0.000 A 
ATOM     12  C   UNL     1     111.946 129.667 136.522  0.00  0.00    +0.000 A 
ATOM     13  C   UNL     1     112.560 129.320 136.030  0.00  0.00    +0.000 A 
ENDROOT
BRANCH   6  15
ATOM     14  O   UNL     1     111.601 126.183 141.394  0.00  0.00    +0.000 OA
ATOM     15  C   UNL     1     112.180 127.224 139.224  0.00  0.00    +0.000 A 
ATOM     16  C   UNL     1     111.487 126.781 139.298  0.00  0.00    +0.000 A 
ATOM     17  C   UNL     1     112.680 127.319 139.874  0.00  0.00    +0.000 A 
ATOM     18  C   UNL     1     111.294 126.435 140.021  0.00  0.00    +0.000 A 
ATOM     19  C   UNL     1     112.486 126.972 140.597  0.00  0.00    +0.000 A 
ATOM     20  C   UNL     1     111.794 126.530 140.671  0.00  0.00    +0.000 A 
BRANCH  18  21
ATOM     21  O   UNL     1     110.601 125.993 140.095  0.00  0.00    +0.000 OA
ATOM     22  C   UNL     1     109.933 126.196 139.656  0.00  0.00    +0.000 C 
ENDBRANCH  18  21
ENDBRANCH   6  15
BRANCH  11  23
ATOM     23  O   UNL     1     111.162 129.628 137.754  0.00  0.00    +0.000 OA
ATOM     24  C   UNL     1     111.203 130.422 137.974  0.00  0.00    +0.000 C 
ENDBRANCH  11  23
BRANCH   5  25
ATOM     25  O   UNL     1     113.358 126.558 138.279  0.00  0.00    +0.000 OA
BRANCH  25  34
ATOM     26  O   UNL     1     112.683 125.686 137.370  0.00  0.00    +0.000 OA
ATOM     27  O   UNL     1     114.687 124.237 137.273  0.00  0.00    +0.000 OA
ATOM     28  O   UNL     1     113.345 123.849 136.397  0.00  0.00    +0.000 OA
ATOM     29  O   UNL     1     114.694 125.592 138.215  0.00  0.00    +0.000 OA
ATOM     30  C   UNL     1     114.019 124.720 137.305  0.00  0.00    +0.000 C 
ATOM     31  C   UNL     1     113.348 124.526 136.867  0.00  0.00    +0.000 C 
ATOM     32  C   UNL     1     114.022 125.398 137.776  0.00  0.00    +0.000 C 
ATOM     33  C   UNL     1     112.680 125.009 136.900  0.00  0.00    +0.000 C 
ATOM     34  C   UNL     1     113.354 125.881 137.809  0.00  0.00    +0.000 C 
BRANCH  33  36
ATOM     35  O   UNL     1     111.302 124.634 136.847  0.00  0.00    +0.000 OA
ATOM     36  C   UNL     1     112.009 124.815 136.462  0.00  0.00    +0.000 C 
ENDBRANCH  33  36
ENDBRANCH  25  34
ENDBRANCH   5  25
TORSDOF 6
ENDMDL
MODEL 6
REMARK VINA RESULT:      -8.6     10.354     12.490
REMARK  Name = 44259988
REMARK  6 active torsions:
REMARK  status: ('A' for Active; 'I' for Inactive)
REMARK    1  A    between atoms: O_2  and  C_18
REMARK    2  A    between atoms: O_2  and  C_20
REMARK    3  A    between atoms: O_9  and  C_27
REMARK    4  A    between atoms: O_12  and  C_32
REMARK    5  A    between atoms: C_17  and  C_19
REMARK    6  A    between atoms: C_21  and  C_25
REMARK                            x       y       z     vdW  Elec       q    Type
REMARK                         _______ _______ _______ _____ _____    ______ ____
ROOT
ATOM      1  O   UNL     1     113.010 128.437 138.235  0.00  0.00    +0.000 OA
ATOM      2  O   UNL     1     112.236 126.137 138.729  0.00  0.00    +0.000 OA
ATOM      3  O   UNL     1     112.680 126.251 140.097  0.00  0.00    +0.000 OA
ATOM      4  O   UNL     1     113.932 128.738 140.981  0.00  0.00    +0.000 OA
ATOM      5  C   UNL     1     112.398 127.217 137.807  0.00  0.00    +0.000 A 
ATOM      6  C   UNL     1     112.657 127.984 137.642  0.00  0.00    +0.000 A 
ATOM      7  C   UNL     1     112.494 126.904 138.564  0.00  0.00    +0.000 A 
ATOM      8  C   UNL     1     112.848 127.357 139.157  0.00  0.00    +0.000 A 
ATOM      9  C   UNL     1     113.106 128.122 138.992  0.00  0.00    +0.000 A 
ATOM     10  C   UNL     1     112.941 127.019 139.941  0.00  0.00    +0.000 A 
ATOM     11  C   UNL     1     113.475 128.604 139.600  0.00  0.00    +0.000 A 
ATOM     12  C   UNL     1     113.578 128.283 140.391  0.00  0.00    +0.000 A 
ATOM     13  C   UNL     1     113.309 127.485 140.562  0.00  0.00    +0.000 A 
ENDROOT
BRANCH   6  15
ATOM     14  O   UNL     1     112.276 129.236 134.613  0.00  0.00    +0.000 OA
ATOM     15  C   UNL     1     112.561 128.297 136.885  0.00  0.00    +0.000 A 
ATOM     16  C   UNL     1     113.214 128.376 136.386  0.00  0.00    +0.000 A 
ATOM     17  C   UNL     1     111.813 128.531 136.627  0.00  0.00    +0.000 A 
ATOM     18  C   UNL     1     113.118 128.689 135.629  0.00  0.00    +0.000 A 
ATOM     19  C   UNL     1     111.719 128.844 135.869  0.00  0.00    +0.000 A 
ATOM     20  C   UNL     1     112.371 128.923 135.371  0.00  0.00    +0.000 A 
BRANCH  18  21
ATOM     21  O   UNL     1     113.771 128.768 135.130  0.00  0.00    +0.000 OA
ATOM     22  C   UNL     1     114.506 128.979 135.441  0.00  0.00    +0.000 C 
ENDBRANCH  18  21
ENDBRANCH   6  15
BRANCH  11  23
ATOM     23  O   UNL     1     113.731 129.369 139.427  0.00  0.00    +0.000 OA
ATOM     24  C   UNL     1     113.480 130.003 139.892  0.00  0.00    +0.000 C 
ENDBRANCH  11  23
BRANCH   5  25
ATOM     25  O   UNL     1     112.045 126.765 137.215  0.00  0.00    +0.000 OA
BRANCH  25  34
ATOM     26  O   UNL     1     113.184 125.926 137.014  0.00  0.00    +0.000 OA
ATOM     27  O   UNL     1     111.696 124.058 136.367  0.00  0.00    +0.000 OA
ATOM     28  O   UNL     1     113.331 123.843 136.381  0.00  0.00    +0.000 OA
ATOM     29  O   UNL     1     111.052 125.519 136.784  0.00  0.00    +0.000 OA
ATOM     30  C   UNL     1     112.192 124.681 136.582  0.00  0.00    +0.000 C 
ATOM     31  C   UNL     1     113.010 124.574 136.590  0.00  0.00    +0.000 C 
ATOM     32  C   UNL     1     111.870 125.412 136.791  0.00  0.00    +0.000 C 
ATOM     33  C   UNL     1     113.506 125.196 136.805  0.00  0.00    +0.000 C 
ATOM     34  C   UNL     1     112.366 126.035 137.007  0.00  0.00    +0.000 C 
BRANCH  33  36
ATOM     35  O   UNL     1     114.803 125.531 136.307  0.00  0.00    +0.000 OA
ATOM     36  C   UNL     1     114.323 125.089 136.813  0.00  0.00    +0.000 C 
ENDBRANCH  33  36
ENDBRANCH  25  34
ENDBRANCH   5  25
TORSDOF 6
ENDMDL
MODEL 7
REMARK VINA RESULT:      -8.5     10.014     12.056
REMARK  Name = 44259988
REMARK  6 active torsions:
REMARK  status: ('A' for Active; 'I' for Inactive)
REMARK    1  A    between atoms: O_2  and  C_18
REMARK    2  A    between atoms: O_2  and  C_20
REMARK    3  A    between atoms: O_9  and  C_27
REMARK    4  A    between atoms: O_12  and  C_32
REMARK    5  A    between atoms: C_17  and  C_19
REMARK    6  A    between atoms: C_21  and  C_25
REMARK                            x       y       z     vdW  Elec       q    Type
REMARK                         _______ _______ _______ _____ _____    ______ ____
ROOT
ATOM      1  O   UNL     1     111.759 125.596 136.686  0.00  0.00    +0.000 OA
ATOM      2  O   UNL     1     113.445 127.336 136.181  0.00  0.00    +0.000 OA
ATOM      3  O   UNL     1     114.521 126.414 136.453  0.00  0.00    +0.000 OA
ATOM      4  O   UNL     1     113.878 123.678 137.250  0.00  0.00    +0.000 OA
ATOM      5  C   UNL     1     112.079 126.933 136.296  0.00  0.00    +0.000 A 
ATOM      6  C   UNL     1     111.517 126.353 136.465  0.00  0.00    +0.000 A 
ATOM      7  C   UNL     1     112.883 126.756 136.350  0.00  0.00    +0.000 A 
ATOM      8  C   UNL     1     113.125 125.999 136.571  0.00  0.00    +0.000 A 
ATOM      9  C   UNL     1     112.563 125.419 136.739  0.00  0.00    +0.000 A 
ATOM     10  C   UNL     1     113.966 125.827 136.623  0.00  0.00    +0.000 A 
ATOM     11  C   UNL     1     112.802 124.627 136.971  0.00  0.00    +0.000 A 
ATOM     12  C   UNL     1     113.638 124.436 137.028  0.00  0.00    +0.000 A 
ATOM     13  C   UNL     1     114.223 125.041 136.853  0.00  0.00    +0.000 A 
ENDROOT
BRANCH   6  15
ATOM     14  O   UNL     1     108.301 127.063 136.254  0.00  0.00    +0.000 OA
ATOM     15  C   UNL     1     110.713 126.530 136.411  0.00  0.00    +0.000 A 
ATOM     16  C   UNL     1     110.262 126.609 137.098  0.00  0.00    +0.000 A 
ATOM     17  C   UNL     1     110.360 126.628 135.672  0.00  0.00    +0.000 A 
ATOM     18  C   UNL     1     109.458 126.787 137.045  0.00  0.00    +0.000 A 
ATOM     19  C   UNL     1     109.556 126.806 135.620  0.00  0.00    +0.000 A 
ATOM     20  C   UNL     1     109.105 126.885 136.306  0.00  0.00    +0.000 A 
BRANCH  18  21
ATOM     21  O   UNL     1     109.007 126.866 137.732  0.00  0.00    +0.000 OA
ATOM     22  C   UNL     1     109.243 126.487 138.426  0.00  0.00    +0.000 C 
ENDBRANCH  18  21
ENDBRANCH   6  15
BRANCH  11  23
ATOM     23  O   UNL     1     112.233 124.053 137.138  0.00  0.00    +0.000 OA
ATOM     24  C   UNL     1     112.299 123.299 136.808  0.00  0.00    +0.000 C 
ENDBRANCH  11  23
BRANCH   5  25
ATOM     25  O   UNL     1     111.837 127.690 136.075  0.00  0.00    +0.000 OA
BRANCH  25  34
ATOM     26  O   UNL     1     112.159 128.287 137.333  0.00  0.00    +0.000 OA
ATOM     27  O   UNL     1     112.644 130.429 136.194  0.00  0.00    +0.000 OA
ATOM     28  O   UNL     1     112.803 130.311 137.831  0.00  0.00    +0.000 OA
ATOM     29  O   UNL     1     112.161 129.119 135.315  0.00  0.00    +0.000 OA
ATOM     30  C   UNL     1     112.482 129.715 136.573  0.00  0.00    +0.000 C 
ATOM     31  C   UNL     1     112.562 129.655 137.392  0.00  0.00    +0.000 C 
ATOM     32  C   UNL     1     112.240 129.059 136.134  0.00  0.00    +0.000 C 
ATOM     33  C   UNL     1     112.400 128.941 137.772  0.00  0.00    +0.000 C 
ATOM     34  C   UNL     1     112.079 128.345 136.514  0.00  0.00    +0.000 C 
BRANCH  33  36
ATOM     35  O   UNL     1     111.821 128.719 139.059  0.00  0.00    +0.000 OA
ATOM     36  C   UNL     1     112.480 128.882 138.590  0.00  0.00    +0.000 C 
ENDBRANCH  33  36
ENDBRANCH  25  34
ENDBRANCH   5  25
TORSDOF 6
ENDMDL
MODEL 8
REMARK VINA RESULT:      -8.5     10.506     12.950
REMARK  Name = 44259988
REMARK  6 active torsions:
REMARK  status: ('A' for Active; 'I' for Inactive)
REMARK    1  A    between atoms: O_2  and  C_18
REMARK    2  A    between atoms: O_2  and  C_20
REMARK    3  A    between atoms: O_9  and  C_27
REMARK    4  A    between atoms: O_12  and  C_32
REMARK    5  A    between atoms: C_17  and  C_19
REMARK    6  A    between atoms: C_21  and  C_25
REMARK                            x       y       z     vdW  Elec       q    Type
REMARK                         _______ _______ _______ _____ _____    ______ ____
ROOT
ATOM      1  O   UNL     1     111.517 126.794 136.747  0.00  0.00    +0.000 OA
ATOM      2  O   UNL     1     112.058 128.750 135.330  0.00  0.00    +0.000 OA
ATOM      3  O   UNL     1     110.656 129.015 135.111  0.00  0.00    +0.000 OA
ATOM      4  O   UNL     1     108.671 127.267 136.350  0.00  0.00    +0.000 OA
ATOM      5  C   UNL     1     112.485 127.652 136.138  0.00  0.00    +0.000 A 
ATOM      6  C   UNL     1     112.305 127.000 136.611  0.00  0.00    +0.000 A 
ATOM      7  C   UNL     1     111.877 128.098 135.802  0.00  0.00    +0.000 A 
ATOM      8  C   UNL     1     111.090 127.892 135.938  0.00  0.00    +0.000 A 
ATOM      9  C   UNL     1     110.910 127.240 136.410  0.00  0.00    +0.000 A 
ATOM     10  C   UNL     1     110.467 128.365 135.582  0.00  0.00    +0.000 A 
ATOM     11  C   UNL     1     110.095 127.015 136.560  0.00  0.00    +0.000 A 
ATOM     12  C   UNL     1     109.458 127.476 136.213  0.00  0.00    +0.000 A 
ATOM     13  C   UNL     1     109.645 128.155 135.721  0.00  0.00    +0.000 A 
ENDROOT
BRANCH   6  15
ATOM     14  O   UNL     1     114.734 125.218 137.957  0.00  0.00    +0.000 OA
ATOM     15  C   UNL     1     112.912 126.554 136.947  0.00  0.00    +0.000 A 
ATOM     16  C   UNL     1     113.077 126.623 137.753  0.00  0.00    +0.000 A 
ATOM     17  C   UNL     1     113.355 126.040 136.478  0.00  0.00    +0.000 A 
ATOM     18  C   UNL     1     113.684 126.178 138.089  0.00  0.00    +0.000 A 
ATOM     19  C   UNL     1     113.962 125.594 136.815  0.00  0.00    +0.000 A 
ATOM     20  C   UNL     1     114.127 125.663 137.620  0.00  0.00    +0.000 A 
BRANCH  18  21
ATOM     21  O   UNL     1     113.849 126.247 138.895  0.00  0.00    +0.000 OA
ATOM     22  C   UNL     1     113.253 126.469 139.420  0.00  0.00    +0.000 C 
ENDBRANCH  18  21
ENDBRANCH   6  15
BRANCH  11  23
ATOM     23  O   UNL     1     109.923 126.362 137.034  0.00  0.00    +0.000 OA
ATOM     24  C   UNL     1     109.441 126.448 137.697  0.00  0.00    +0.000 C 
ENDBRANCH  11  23
BRANCH   5  25
ATOM     25  O   UNL     1     113.272 127.858 136.002  0.00  0.00    +0.000 OA
BRANCH  25  34
ATOM     26  O   UNL     1     113.248 128.990 136.874  0.00  0.00    +0.000 OA
ATOM     27  O   UNL     1     114.939 130.115 135.461  0.00  0.00    +0.000 OA
ATOM     28  O   UNL     1     114.351 130.871 136.803  0.00  0.00    +0.000 OA
ATOM     29  O   UNL     1     114.400 128.608 135.060  0.00  0.00    +0.000 OA
ATOM     30  C   UNL     1     114.376 129.740 135.932  0.00  0.00    +0.000 C 
ATOM     31  C   UNL     1     114.081 130.118 136.604  0.00  0.00    +0.000 C 
ATOM     32  C   UNL     1     114.105 128.986 135.731  0.00  0.00    +0.000 C 
ATOM     33  C   UNL     1     113.517 129.743 137.075  0.00  0.00    +0.000 C 
ATOM     34  C   UNL     1     113.542 128.611 136.202  0.00  0.00    +0.000 C 
BRANCH  33  36
ATOM     35  O   UNL     1     113.362 129.802 138.494  0.00  0.00    +0.000 OA
ATOM     36  C   UNL     1     113.224 130.121 137.746  0.00  0.00    +0.000 C 
ENDBRANCH  33  36
ENDBRANCH  25  34
ENDBRANCH   5  25
TORSDOF 6
ENDMDL
MODEL 9
REMARK VINA RESULT:      -8.5     10.400     12.742
REMARK  Name = 44259988
REMARK  6 active torsions:
REMARK  status: ('A' for Active; 'I' for Inactive)
REMARK    1  A    between atoms: O_2  and  C_18
REMARK    2  A    between atoms: O_2  and  C_20
REMARK    3  A    between atoms: O_9  and  C_27
REMARK    4  A    between atoms: O_12  and  C_32
REMARK    5  A    between atoms: C_17  and  C_19
REMARK    6  A    between atoms: C_21  and  C_25
REMARK                            x       y       z     vdW  Elec       q    Type
REMARK                         _______ _______ _______ _____ _____    ______ ____
ROOT
ATOM      1  O   UNL     1     111.815 129.548 136.093  0.00  0.00    +0.000 OA
ATOM      2  O   UNL     1     112.797 127.312 135.687  0.00  0.00    +0.000 OA
ATOM      3  O   UNL     1     114.132 127.841 135.827  0.00  0.00    +0.000 OA
ATOM      4  O   UNL     1     114.479 130.686 136.389  0.00  0.00    +0.000 OA
ATOM      5  C   UNL     1     111.651 128.155 135.818  0.00  0.00    +0.000 A 
ATOM      6  C   UNL     1     111.323 128.901 135.953  0.00  0.00    +0.000 A 
ATOM      7  C   UNL     1     112.470 128.058 135.822  0.00  0.00    +0.000 A 
ATOM      8  C   UNL     1     112.962 128.705 135.962  0.00  0.00    +0.000 A 
ATOM      9  C   UNL     1     112.634 129.450 136.097  0.00  0.00    +0.000 A 
ATOM     10  C   UNL     1     113.813 128.590 135.963  0.00  0.00    +0.000 A 
ATOM     11  C   UNL     1     113.135 130.132 136.243  0.00  0.00    +0.000 A 
ATOM     12  C   UNL     1     113.990 130.037 136.249  0.00  0.00    +0.000 A 
ATOM     13  C   UNL     1     114.330 129.261 136.108  0.00  0.00    +0.000 A 
ENDROOT
BRANCH   6  15
ATOM     14  O   UNL     1     108.046 129.289 135.939  0.00  0.00    +0.000 OA
ATOM     15  C   UNL     1     110.504 128.998 135.949  0.00  0.00    +0.000 A 
ATOM     16  C   UNL     1     110.100 129.124 136.658  0.00  0.00    +0.000 A 
ATOM     17  C   UNL     1     110.088 128.969 135.237  0.00  0.00    +0.000 A 
ATOM     18  C   UNL     1     109.281 129.221 136.654  0.00  0.00    +0.000 A 
ATOM     19  C   UNL     1     109.269 129.066 135.234  0.00  0.00    +0.000 A 
ATOM     20  C   UNL     1     108.866 129.192 135.942  0.00  0.00    +0.000 A 
BRANCH  18  21
ATOM     21  O   UNL     1     108.877 129.347 137.363  0.00  0.00    +0.000 OA
ATOM     22  C   UNL     1     109.240 129.764 137.976  0.00  0.00    +0.000 C 
ENDBRANCH  18  21
ENDBRANCH   6  15
BRANCH  11  23
ATOM     23  O   UNL     1     112.800 130.874 136.378  0.00  0.00    +0.000 OA
ATOM     24  C   UNL     1     113.026 131.315 137.038  0.00  0.00    +0.000 C 
ENDBRANCH  11  23
BRANCH   5  25
ATOM     25  O   UNL     1     111.159 127.508 135.678  0.00  0.00    +0.000 OA
BRANCH  25  34
ATOM     26  O   UNL     1     111.346 126.930 136.972  0.00  0.00    +0.000 OA
ATOM     27  O   UNL     1     111.061 124.670 136.004  0.00  0.00    +0.000 OA
ATOM     28  O   UNL     1     111.344 124.846 137.619  0.00  0.00    +0.000 OA
ATOM     29  O   UNL     1     110.969 126.001 135.033  0.00  0.00    +0.000 OA
ATOM     30  C   UNL     1     111.156 125.423 136.327  0.00  0.00    +0.000 C 
ATOM     31  C   UNL     1     111.298 125.512 137.134  0.00  0.00    +0.000 C 
ATOM     32  C   UNL     1     111.110 126.089 135.841  0.00  0.00    +0.000 C 
ATOM     33  C   UNL     1     111.393 126.265 137.457  0.00  0.00    +0.000 C 
ATOM     34  C   UNL     1     111.205 126.843 136.163  0.00  0.00    +0.000 C 
BRANCH  33  36
ATOM     35  O   UNL     1     110.994 126.761 138.736  0.00  0.00    +0.000 OA
ATOM     36  C   UNL     1     111.534 126.353 138.264  0.00  0.00    +0.000 C 
ENDBRANCH  33  36
ENDBRANCH  25  34
ENDBRANCH   5  25
TORSDOF 6
ENDMDL
MODEL 10
REMARK VINA RESULT:      -8.5      9.394     11.380
REMARK  Name = 44259988
REMARK  6 active torsions:
REMARK  status: ('A' for Active; 'I' for Inactive)
REMARK    1  A    between atoms: O_2  and  C_18
REMARK    2  A    between atoms: O_2  and  C_20
REMARK    3  A    between atoms: O_9  and  C_27
REMARK    4  A    between atoms: O_12  and  C_32
REMARK    5  A    between atoms: C_17  and  C_19
REMARK    6  A    between atoms: C_21  and  C_25
REMARK                            x       y       z     vdW  Elec       q    Type
REMARK                         _______ _______ _______ _____ _____    ______ ____
ROOT
ATOM      1  O   UNL     1     111.145 126.069 138.438  0.00  0.00    +0.000 OA
ATOM      2  O   UNL     1     113.334 127.223 138.373  0.00  0.00    +0.000 OA
ATOM      3  O   UNL     1     113.363 127.311 139.813  0.00  0.00    +0.000 OA
ATOM      4  O   UNL     1     111.135 126.209 141.347  0.00  0.00    +0.000 OA
ATOM      5  C   UNL     1     112.238 126.609 137.692  0.00  0.00    +0.000 A 
ATOM      6  C   UNL     1     111.508 126.224 137.714  0.00  0.00    +0.000 A 
ATOM      7  C   UNL     1     112.604 126.838 138.395  0.00  0.00    +0.000 A 
ATOM      8  C   UNL     1     112.241 126.682 139.119  0.00  0.00    +0.000 A 
ATOM      9  C   UNL     1     111.512 126.298 139.141  0.00  0.00    +0.000 A 
ATOM     10  C   UNL     1     112.634 126.926 139.844  0.00  0.00    +0.000 A 
ATOM     11  C   UNL     1     111.124 126.130 139.888  0.00  0.00    +0.000 A 
ATOM     12  C   UNL     1     111.500 126.366 140.624  0.00  0.00    +0.000 A 
ATOM     13  C   UNL     1     112.260 126.767 140.601  0.00  0.00    +0.000 A 
ENDROOT
BRANCH   6  15
ATOM     14  O   UNL     1     110.042 125.311 134.902  0.00  0.00    +0.000 OA
ATOM     15  C   UNL     1     111.142 125.996 137.011  0.00  0.00    +0.000 A 
ATOM     16  C   UNL     1     110.492 126.419 136.728  0.00  0.00    +0.000 A 
ATOM     17  C   UNL     1     111.425 125.345 136.591  0.00  0.00    +0.000 A 
ATOM     18  C   UNL     1     110.126 126.190 136.025  0.00  0.00    +0.000 A 
ATOM     19  C   UNL     1     111.058 125.117 135.887  0.00  0.00    +0.000 A 
ATOM     20  C   UNL     1     110.409 125.539 135.605  0.00  0.00    +0.000 A 
BRANCH  18  21
ATOM     21  O   UNL     1     109.476 126.613 135.743  0.00  0.00    +0.000 OA
ATOM     22  C   UNL     1     108.969 126.994 136.271  0.00  0.00    +0.000 C 
ENDBRANCH  18  21
ENDBRANCH   6  15
BRANCH  11  23
ATOM     23  O   UNL     1     110.394 125.745 139.901  0.00  0.00    +0.000 OA
ATOM     24  C   UNL     1     109.769 126.059 140.338  0.00  0.00    +0.000 C 
ENDBRANCH  11  23
BRANCH   5  25
ATOM     25  O   UNL     1     112.601 126.765 136.968  0.00  0.00    +0.000 OA
BRANCH  25  34
ATOM     26  O   UNL     1     112.295 128.161 136.978  0.00  0.00    +0.000 OA
ATOM     27  O   UNL     1     114.364 128.625 135.702  0.00  0.00    +0.000 OA
ATOM     28  O   UNL     1     113.368 129.865 136.138  0.00  0.00    +0.000 OA
ATOM     29  O   UNL     1     113.981 127.075 136.117  0.00  0.00    +0.000 OA
ATOM     30  C   UNL     1     113.674 128.470 136.128  0.00  0.00    +0.000 C 
ATOM     31  C   UNL     1     113.176 129.090 136.346  0.00  0.00    +0.000 C 
ATOM     32  C   UNL     1     113.482 127.694 136.335  0.00  0.00    +0.000 C 
ATOM     33  C   UNL     1     112.486 128.935 136.771  0.00  0.00    +0.000 C 
ATOM     34  C   UNL     1     112.792 127.540 136.761  0.00  0.00    +0.000 C 
BRANCH  33  36
ATOM     35  O   UNL     1     111.222 129.596 136.687  0.00  0.00    +0.000 OA
ATOM     36  C   UNL     1     111.988 129.555 136.989  0.00  0.00    +0.000 C 
ENDBRANCH  33  36
ENDBRANCH  25  34
ENDBRANCH   5  25
TORSDOF 6
ENDMDL
