MODEL 1
REMARK VINA RESULT:      -9.1      0.000      0.000
REMARK  Name = 44257632
REMARK  6 active torsions:
REMARK  status: ('A' for Active; 'I' for Inactive)
REMARK    1  A    between atoms: O_2  and  C_11
REMARK    2  A    between atoms: O_2  and  C_18
REMARK    3  A    between atoms: O_4  and  C_15
REMARK    4  A    between atoms: O_4  and  C_17
REMARK    5  A    between atoms: C_13  and  C_16
REMARK    6  A    between atoms: C_26  and  C_28
REMARK                            x       y       z     vdW  Elec       q    Type
REMARK                         _______ _______ _______ _____ _____    ______ ____
ROOT
ATOM      1  O   UNL     1     111.802 125.970 136.936  0.00  0.00    +0.000 OA
ATOM      2  O   UNL     1     109.467 126.246 138.615  0.00  0.00    +0.000 OA
ATOM      3  O   UNL     1     110.625 125.514 139.065  0.00  0.00    +0.000 OA
ATOM      4  C   UNL     1     109.868 127.022 136.553  0.00  0.00    +0.000 A 
ATOM      5  C   UNL     1     110.663 126.718 136.433  0.00  0.00    +0.000 A 
ATOM      6  C   UNL     1     109.459 126.864 137.291  0.00  0.00    +0.000 A 
ATOM      7  C   UNL     1     111.039 126.259 137.056  0.00  0.00    +0.000 A 
ATOM      8  C   UNL     1     110.646 126.107 137.766  0.00  0.00    +0.000 A 
ATOM      9  C   UNL     1     109.852 126.403 137.902  0.00  0.00    +0.000 A 
ATOM     10  C   UNL     1     111.017 125.666 138.356  0.00  0.00    +0.000 A 
ATOM     11  C   UNL     1     112.173 125.529 137.526  0.00  0.00    +0.000 A 
ATOM     12  C   UNL     1     111.780 125.377 138.235  0.00  0.00    +0.000 A 
ENDROOT
BRANCH  11  13
ATOM     13  C   UNL     1     112.936 125.239 137.406  0.00  0.00    +0.000 A 
ATOM     14  C   UNL     1     113.585 125.650 137.708  0.00  0.00    +0.000 A 
ATOM     15  C   UNL     1     113.050 124.539 136.985  0.00  0.00    +0.000 A 
ATOM     16  C   UNL     1     114.348 125.360 137.589  0.00  0.00    +0.000 A 
ATOM     17  C   UNL     1     113.813 124.249 136.865  0.00  0.00    +0.000 A 
ATOM     18  C   UNL     1     114.462 124.660 137.167  0.00  0.00    +0.000 A 
ENDBRANCH  11  13
BRANCH   4  19
ATOM     19  O   UNL     1     109.499 127.463 135.961  0.00  0.00    +0.000 OA
BRANCH  19  27
ATOM     20  O   UNL     1     110.063 128.745 136.246  0.00  0.00    +0.000 OA
ATOM     21  O   UNL     1     107.847 129.794 135.913  0.00  0.00    +0.000 OA
ATOM     22  O   UNL     1     108.022 128.163 135.738  0.00  0.00    +0.000 OA
ATOM     23  C   UNL     1     109.236 129.910 136.222  0.00  0.00    +0.000 C 
ATOM     24  C   UNL     1     108.586 129.445 136.024  0.00  0.00    +0.000 C 
ATOM     25  C   UNL     1     109.975 129.560 136.333  0.00  0.00    +0.000 C 
ATOM     26  C   UNL     1     108.672 128.629 135.937  0.00  0.00    +0.000 C 
ATOM     27  C   UNL     1     109.411 128.279 136.048  0.00  0.00    +0.000 C 
BRANCH  25  29
ATOM     28  O   UNL     1     111.354 129.894 136.164  0.00  0.00    +0.000 OA
ATOM     29  C   UNL     1     110.627 130.026 136.532  0.00  0.00    +0.000 C 
ENDBRANCH  25  29
BRANCH  23  30
ATOM     30  O   UNL     1     109.149 130.725 136.309  0.00  0.00    +0.000 OA
BRANCH  30  32
ATOM     31  O   UNL     1     108.799 130.693 137.694  0.00  0.00    +0.000 OA
ATOM     32  C   UNL     1     108.720 131.028 136.945  0.00  0.00    +0.000 C 
ATOM     33  C   UNL     1     108.211 131.668 136.832  0.00  0.00    +0.000 C 
ENDBRANCH  30  32
ENDBRANCH  23  30
ENDBRANCH  19  27
ENDBRANCH   4  19
TORSDOF 6
ENDMDL
MODEL 2
REMARK VINA RESULT:      -9.0      1.649      2.466
REMARK  Name = 44257632
REMARK  6 active torsions:
REMARK  status: ('A' for Active; 'I' for Inactive)
REMARK    1  A    between atoms: O_2  and  C_11
REMARK    2  A    between atoms: O_2  and  C_18
REMARK    3  A    between atoms: O_4  and  C_15
REMARK    4  A    between atoms: O_4  and  C_17
REMARK    5  A    between atoms: C_13  and  C_16
REMARK    6  A    between atoms: C_26  and  C_28
REMARK                            x       y       z     vdW  Elec       q    Type
REMARK                         _______ _______ _______ _____ _____    ______ ____
ROOT
ATOM      1  O   UNL     1     112.734 126.900 136.369  0.00  0.00    +0.000 OA
ATOM      2  O   UNL     1     113.033 129.487 135.118  0.00  0.00    +0.000 OA
ATOM      3  O   UNL     1     114.177 128.769 135.624  0.00  0.00    +0.000 OA
ATOM      4  C   UNL     1     111.196 128.262 135.490  0.00  0.00    +0.000 A 
ATOM      5  C   UNL     1     111.550 127.580 135.876  0.00  0.00    +0.000 A 
ATOM      6  C   UNL     1     111.696 128.910 135.232  0.00  0.00    +0.000 A 
ATOM      7  C   UNL     1     112.401 127.557 135.998  0.00  0.00    +0.000 A 
ATOM      8  C   UNL     1     112.881 128.180 135.750  0.00  0.00    +0.000 A 
ATOM      9  C   UNL     1     112.545 128.869 135.362  0.00  0.00    +0.000 A 
ATOM     10  C   UNL     1     113.696 128.146 135.872  0.00  0.00    +0.000 A 
ATOM     11  C   UNL     1     113.549 126.866 136.491  0.00  0.00    +0.000 A 
ATOM     12  C   UNL     1     114.030 127.489 136.243  0.00  0.00    +0.000 A 
ENDROOT
BRANCH  11  13
ATOM     13  C   UNL     1     113.884 126.210 136.862  0.00  0.00    +0.000 A 
ATOM     14  C   UNL     1     113.842 126.133 137.683  0.00  0.00    +0.000 A 
ATOM     15  C   UNL     1     114.260 125.629 136.413  0.00  0.00    +0.000 A 
ATOM     16  C   UNL     1     114.176 125.477 138.054  0.00  0.00    +0.000 A 
ATOM     17  C   UNL     1     114.594 124.972 136.783  0.00  0.00    +0.000 A 
ATOM     18  C   UNL     1     114.553 124.896 137.603  0.00  0.00    +0.000 A 
ENDBRANCH  11  13
BRANCH   4  19
ATOM     19  O   UNL     1     110.381 128.293 135.369  0.00  0.00    +0.000 OA
BRANCH  19  27
ATOM     20  O   UNL     1     109.977 128.816 136.636  0.00  0.00    +0.000 OA
ATOM     21  O   UNL     1     108.403 130.353 135.501  0.00  0.00    +0.000 OA
ATOM     22  O   UNL     1     109.331 129.318 134.612  0.00  0.00    +0.000 OA
ATOM     23  C   UNL     1     108.989 129.846 136.701  0.00  0.00    +0.000 C 
ATOM     24  C   UNL     1     108.928 129.840 135.879  0.00  0.00    +0.000 C 
ATOM     25  C   UNL     1     109.513 129.334 137.080  0.00  0.00    +0.000 C 
ATOM     26  C   UNL     1     109.392 129.323 135.434  0.00  0.00    +0.000 C 
ATOM     27  C   UNL     1     109.916 128.811 135.812  0.00  0.00    +0.000 C 
BRANCH  25  29
ATOM     28  O   UNL     1     109.545 128.628 138.322  0.00  0.00    +0.000 OA
ATOM     29  C   UNL     1     109.574 129.339 137.902  0.00  0.00    +0.000 C 
ENDBRANCH  25  29
BRANCH  23  30
ATOM     30  O   UNL     1     108.525 130.363 137.146  0.00  0.00    +0.000 OA
BRANCH  30  32
ATOM     31  O   UNL     1     109.457 131.436 137.292  0.00  0.00    +0.000 OA
ATOM     32  C   UNL     1     108.690 131.171 137.143  0.00  0.00    +0.000 C 
ATOM     33  C   UNL     1     108.088 131.715 136.991  0.00  0.00    +0.000 C 
ENDBRANCH  30  32
ENDBRANCH  23  30
ENDBRANCH  19  27
ENDBRANCH   4  19
TORSDOF 6
ENDMDL
MODEL 3
REMARK VINA RESULT:      -8.9      7.353      9.901
REMARK  Name = 44257632
REMARK  6 active torsions:
REMARK  status: ('A' for Active; 'I' for Inactive)
REMARK    1  A    between atoms: O_2  and  C_11
REMARK    2  A    between atoms: O_2  and  C_18
REMARK    3  A    between atoms: O_4  and  C_15
REMARK    4  A    between atoms: O_4  and  C_17
REMARK    5  A    between atoms: C_13  and  C_16
REMARK    6  A    between atoms: C_26  and  C_28
REMARK                            x       y       z     vdW  Elec       q    Type
REMARK                         _______ _______ _______ _____ _____    ______ ____
ROOT
ATOM      1  O   UNL     1     104.985 127.735 142.380  0.00  0.00    +0.000 OA
ATOM      2  O   UNL     1     107.854 127.689 142.710  0.00  0.00    +0.000 OA
ATOM      3  O   UNL     1     107.167 128.904 142.347  0.00  0.00    +0.000 OA
ATOM      4  C   UNL     1     106.345 126.050 142.929  0.00  0.00    +0.000 A 
ATOM      5  C   UNL     1     105.627 126.486 142.746  0.00  0.00    +0.000 A 
ATOM      6  C   UNL     1     107.102 126.455 142.918  0.00  0.00    +0.000 A 
ATOM      7  C   UNL     1     105.677 127.322 142.555  0.00  0.00    +0.000 A 
ATOM      8  C   UNL     1     106.404 127.712 142.544  0.00  0.00    +0.000 A 
ATOM      9  C   UNL     1     107.132 127.292 142.723  0.00  0.00    +0.000 A 
ATOM     10  C   UNL     1     106.439 128.515 142.358  0.00  0.00    +0.000 A 
ATOM     11  C   UNL     1     105.020 128.538 142.195  0.00  0.00    +0.000 A 
ATOM     12  C   UNL     1     105.747 128.928 142.184  0.00  0.00    +0.000 A 
ENDROOT
BRANCH  11  13
ATOM     13  C   UNL     1     104.328 128.952 142.020  0.00  0.00    +0.000 A 
ATOM     14  C   UNL     1     104.002 129.466 142.578  0.00  0.00    +0.000 A 
ATOM     15  C   UNL     1     103.961 128.853 141.288  0.00  0.00    +0.000 A 
ATOM     16  C   UNL     1     103.310 129.880 142.404  0.00  0.00    +0.000 A 
ATOM     17  C   UNL     1     103.269 129.266 141.113  0.00  0.00    +0.000 A 
ATOM     18  C   UNL     1     102.944 129.779 141.671  0.00  0.00    +0.000 A 
ENDBRANCH  11  13
BRANCH   4  19
ATOM     19  O   UNL     1     106.307 125.247 143.114  0.00  0.00    +0.000 OA
BRANCH  19  27
ATOM     20  O   UNL     1     106.320 125.346 144.540  0.00  0.00    +0.000 OA
ATOM     21  O   UNL     1     104.568 123.603 144.677  0.00  0.00    +0.000 OA
ATOM     22  O   UNL     1     105.139 124.085 143.206  0.00  0.00    +0.000 OA
ATOM     23  C   UNL     1     105.450 124.524 145.321  0.00  0.00    +0.000 C 
ATOM     24  C   UNL     1     105.152 124.184 144.631  0.00  0.00    +0.000 C 
ATOM     25  C   UNL     1     106.034 125.105 145.275  0.00  0.00    +0.000 C 
ATOM     26  C   UNL     1     105.437 124.425 143.895  0.00  0.00    +0.000 C 
ATOM     27  C   UNL     1     106.021 125.006 143.849  0.00  0.00    +0.000 C 
BRANCH  25  29
ATOM     28  O   UNL     1     107.148 125.536 146.059  0.00  0.00    +0.000 OA
ATOM     29  C   UNL     1     106.333 125.445 145.964  0.00  0.00    +0.000 C 
ENDBRANCH  25  29
BRANCH  23  30
ATOM     30  O   UNL     1     105.165 124.283 146.056  0.00  0.00    +0.000 OA
BRANCH  30  32
ATOM     31  O   UNL     1     104.124 125.255 146.177  0.00  0.00    +0.000 OA
ATOM     32  C   UNL     1     104.399 124.486 146.287  0.00  0.00    +0.000 C 
ATOM     33  C   UNL     1     103.908 123.918 146.631  0.00  0.00    +0.000 C 
ENDBRANCH  30  32
ENDBRANCH  23  30
ENDBRANCH  19  27
ENDBRANCH   4  19
TORSDOF 6
ENDMDL
MODEL 4
REMARK VINA RESULT:      -8.9      6.485      9.483
REMARK  Name = 44257632
REMARK  6 active torsions:
REMARK  status: ('A' for Active; 'I' for Inactive)
REMARK    1  A    between atoms: O_2  and  C_11
REMARK    2  A    between atoms: O_2  and  C_18
REMARK    3  A    between atoms: O_4  and  C_15
REMARK    4  A    between atoms: O_4  and  C_17
REMARK    5  A    between atoms: C_13  and  C_16
REMARK    6  A    between atoms: C_26  and  C_28
REMARK                            x       y       z     vdW  Elec       q    Type
REMARK                         _______ _______ _______ _____ _____    ______ ____
ROOT
ATOM      1  O   UNL     1     103.149 130.262 142.021  0.00  0.00    +0.000 OA
ATOM      2  O   UNL     1     103.729 128.010 140.308  0.00  0.00    +0.000 OA
ATOM      3  O   UNL     1     102.778 129.019 139.913  0.00  0.00    +0.000 OA
ATOM      4  C   UNL     1     104.547 128.546 142.323  0.00  0.00    +0.000 A 
ATOM      5  C   UNL     1     104.116 129.275 142.467  0.00  0.00    +0.000 A 
ATOM      6  C   UNL     1     104.419 128.114 141.591  0.00  0.00    +0.000 A 
ATOM      7  C   UNL     1     103.560 129.562 141.877  0.00  0.00    +0.000 A 
ATOM      8  C   UNL     1     103.437 129.148 141.174  0.00  0.00    +0.000 A 
ATOM      9  C   UNL     1     103.859 128.418 141.013  0.00  0.00    +0.000 A 
ATOM     10  C   UNL     1     102.901 129.433 140.615  0.00  0.00    +0.000 A 
ATOM     11  C   UNL     1     102.614 130.548 141.462  0.00  0.00    +0.000 A 
ATOM     12  C   UNL     1     102.490 130.134 140.760  0.00  0.00    +0.000 A 
ENDROOT
BRANCH  11  13
ATOM     13  C   UNL     1     102.202 131.248 141.606  0.00  0.00    +0.000 A 
ATOM     14  C   UNL     1     101.438 131.222 141.916  0.00  0.00    +0.000 A 
ATOM     15  C   UNL     1     102.554 131.976 141.439  0.00  0.00    +0.000 A 
ATOM     16  C   UNL     1     101.026 131.922 142.060  0.00  0.00    +0.000 A 
ATOM     17  C   UNL     1     102.143 132.676 141.582  0.00  0.00    +0.000 A 
ATOM     18  C   UNL     1     101.379 132.649 141.892  0.00  0.00    +0.000 A 
ENDBRANCH  11  13
BRANCH   4  19
ATOM     19  O   UNL     1     105.082 128.262 142.883  0.00  0.00    +0.000 OA
BRANCH  19  27
ATOM     20  O   UNL     1     106.257 128.865 142.338  0.00  0.00    +0.000 OA
ATOM     21  O   UNL     1     107.559 126.836 142.902  0.00  0.00    +0.000 OA
ATOM     22  O   UNL     1     105.949 126.910 143.259  0.00  0.00    +0.000 OA
ATOM     23  C   UNL     1     107.496 128.151 142.347  0.00  0.00    +0.000 C 
ATOM     24  C   UNL     1     107.125 127.512 142.714  0.00  0.00    +0.000 C 
ATOM     25  C   UNL     1     107.062 128.827 142.159  0.00  0.00    +0.000 C 
ATOM     26  C   UNL     1     106.320 127.549 142.893  0.00  0.00    +0.000 C 
ATOM     27  C   UNL     1     105.886 128.225 142.705  0.00  0.00    +0.000 C 
BRANCH  25  29
ATOM     28  O   UNL     1     107.244 130.237 142.020  0.00  0.00    +0.000 OA
ATOM     29  C   UNL     1     107.432 129.466 141.792  0.00  0.00    +0.000 C 
ENDBRANCH  25  29
BRANCH  23  30
ATOM     30  O   UNL     1     108.299 128.114 142.169  0.00  0.00    +0.000 OA
BRANCH  30  32
ATOM     31  O   UNL     1     108.144 127.633 140.832  0.00  0.00    +0.000 OA
ATOM     32  C   UNL     1     108.562 127.645 141.543  0.00  0.00    +0.000 C 
ATOM     33  C   UNL     1     109.243 127.185 141.628  0.00  0.00    +0.000 C 
ENDBRANCH  30  32
ENDBRANCH  23  30
ENDBRANCH  19  27
ENDBRANCH   4  19
TORSDOF 6
ENDMDL
MODEL 5
REMARK VINA RESULT:      -8.9      1.332      2.026
REMARK  Name = 44257632
REMARK  6 active torsions:
REMARK  status: ('A' for Active; 'I' for Inactive)
REMARK    1  A    between atoms: O_2  and  C_11
REMARK    2  A    between atoms: O_2  and  C_18
REMARK    3  A    between atoms: O_4  and  C_15
REMARK    4  A    between atoms: O_4  and  C_17
REMARK    5  A    between atoms: C_13  and  C_16
REMARK    6  A    between atoms: C_26  and  C_28
REMARK                            x       y       z     vdW  Elec       q    Type
REMARK                         _______ _______ _______ _____ _____    ______ ____
ROOT
ATOM      1  O   UNL     1     111.091 126.084 136.833  0.00  0.00    +0.000 OA
ATOM      2  O   UNL     1     108.880 126.905 135.166  0.00  0.00    +0.000 OA
ATOM      3  O   UNL     1     109.653 125.730 134.850  0.00  0.00    +0.000 OA
ATOM      4  C   UNL     1     109.707 127.826 137.032  0.00  0.00    +0.000 A 
ATOM      5  C   UNL     1     110.346 127.276 137.197  0.00  0.00    +0.000 A 
ATOM      6  C   UNL     1     109.208 127.704 136.344  0.00  0.00    +0.000 A 
ATOM      7  C   UNL     1     110.477 126.609 136.670  0.00  0.00    +0.000 A 
ATOM      8  C   UNL     1     109.997 126.491 136.009  0.00  0.00    +0.000 A 
ATOM      9  C   UNL     1     109.354 127.031 135.829  0.00  0.00    +0.000 A 
ATOM     10  C   UNL     1     110.132 125.847 135.510  0.00  0.00    +0.000 A 
ATOM     11  C   UNL     1     111.227 125.440 136.334  0.00  0.00    +0.000 A 
ATOM     12  C   UNL     1     110.747 125.323 135.674  0.00  0.00    +0.000 A 
ENDROOT
BRANCH  11  13
ATOM     13  C   UNL     1     111.841 124.915 136.497  0.00  0.00    +0.000 A 
ATOM     14  C   UNL     1     112.621 125.126 136.328  0.00  0.00    +0.000 A 
ATOM     15  C   UNL     1     111.677 124.177 136.828  0.00  0.00    +0.000 A 
ATOM     16  C   UNL     1     113.235 124.601 136.491  0.00  0.00    +0.000 A 
ATOM     17  C   UNL     1     112.291 123.651 136.991  0.00  0.00    +0.000 A 
ATOM     18  C   UNL     1     113.070 123.863 136.822  0.00  0.00    +0.000 A 
ENDBRANCH  11  13
BRANCH   4  19
ATOM     19  O   UNL     1     109.574 128.469 137.532  0.00  0.00    +0.000 OA
BRANCH  19  27
ATOM     20  O   UNL     1     110.604 129.312 137.013  0.00  0.00    +0.000 OA
ATOM     21  O   UNL     1     109.137 131.284 137.303  0.00  0.00    +0.000 OA
ATOM     22  O   UNL     1     108.595 129.783 137.725  0.00  0.00    +0.000 OA
ATOM     23  C   UNL     1     110.385 130.720 136.898  0.00  0.00    +0.000 C 
ATOM     24  C   UNL     1     109.626 130.626 137.206  0.00  0.00    +0.000 C 
ATOM     25  C   UNL     1     110.874 130.062 136.802  0.00  0.00    +0.000 C 
ATOM     26  C   UNL     1     109.355 129.876 137.418  0.00  0.00    +0.000 C 
ATOM     27  C   UNL     1     109.844 129.219 137.321  0.00  0.00    +0.000 C 
BRANCH  25  29
ATOM     28  O   UNL     1     111.881 129.687 135.860  0.00  0.00    +0.000 OA
ATOM     29  C   UNL     1     111.634 130.155 136.494  0.00  0.00    +0.000 C 
ENDBRANCH  25  29
BRANCH  23  30
ATOM     30  O   UNL     1     110.655 131.469 136.687  0.00  0.00    +0.000 OA
BRANCH  30  32
ATOM     31  O   UNL     1     111.286 131.809 137.924  0.00  0.00    +0.000 OA
ATOM     32  C   UNL     1     110.829 132.025 137.272  0.00  0.00    +0.000 C 
ATOM     33  C   UNL     1     110.544 132.797 137.205  0.00  0.00    +0.000 C 
ENDBRANCH  30  32
ENDBRANCH  23  30
ENDBRANCH  19  27
ENDBRANCH   4  19
TORSDOF 6
ENDMDL
MODEL 6
REMARK VINA RESULT:      -8.8      1.479      5.495
REMARK  Name = 44257632
REMARK  6 active torsions:
REMARK  status: ('A' for Active; 'I' for Inactive)
REMARK    1  A    between atoms: O_2  and  C_11
REMARK    2  A    between atoms: O_2  and  C_18
REMARK    3  A    between atoms: O_4  and  C_15
REMARK    4  A    between atoms: O_4  and  C_17
REMARK    5  A    between atoms: C_13  and  C_16
REMARK    6  A    between atoms: C_26  and  C_28
REMARK                            x       y       z     vdW  Elec       q    Type
REMARK                         _______ _______ _______ _____ _____    ______ ____
ROOT
ATOM      1  O   UNL     1     110.219 130.483 135.985  0.00  0.00    +0.000 OA
ATOM      2  O   UNL     1     108.088 128.542 135.780  0.00  0.00    +0.000 OA
ATOM      3  O   UNL     1     107.836 129.875 136.269  0.00  0.00    +0.000 OA
ATOM      4  C   UNL     1     110.264 128.363 135.280  0.00  0.00    +0.000 A 
ATOM      5  C   UNL     1     110.528 129.154 135.487  0.00  0.00    +0.000 A 
ATOM      6  C   UNL     1     109.437 128.152 135.379  0.00  0.00    +0.000 A 
ATOM      7  C   UNL     1     109.960 129.725 135.789  0.00  0.00    +0.000 A 
ATOM      8  C   UNL     1     109.165 129.522 135.884  0.00  0.00    +0.000 A 
ATOM      9  C   UNL     1     108.884 128.736 135.683  0.00  0.00    +0.000 A 
ATOM     10  C   UNL     1     108.630 130.078 136.175  0.00  0.00    +0.000 A 
ATOM     11  C   UNL     1     109.683 131.038 136.276  0.00  0.00    +0.000 A 
ATOM     12  C   UNL     1     108.889 130.836 136.371  0.00  0.00    +0.000 A 
ENDROOT
BRANCH  11  13
ATOM     13  C   UNL     1     109.941 131.797 136.473  0.00  0.00    +0.000 A 
ATOM     14  C   UNL     1     109.831 132.420 135.944  0.00  0.00    +0.000 A 
ATOM     15  C   UNL     1     110.309 131.932 137.199  0.00  0.00    +0.000 A 
ATOM     16  C   UNL     1     110.090 133.179 136.140  0.00  0.00    +0.000 A 
ATOM     17  C   UNL     1     110.568 132.690 137.396  0.00  0.00    +0.000 A 
ATOM     18  C   UNL     1     110.458 133.313 136.866  0.00  0.00    +0.000 A 
ENDBRANCH  11  13
BRANCH   4  19
ATOM     19  O   UNL     1     110.802 127.809 134.989  0.00  0.00    +0.000 OA
BRANCH  19  27
ATOM     20  O   UNL     1     111.505 127.462 136.184  0.00  0.00    +0.000 OA
ATOM     21  O   UNL     1     111.284 125.063 135.618  0.00  0.00    +0.000 OA
ATOM     22  O   UNL     1     110.654 126.209 134.612  0.00  0.00    +0.000 OA
ATOM     23  C   UNL     1     111.746 126.089 136.498  0.00  0.00    +0.000 C 
ATOM     24  C   UNL     1     111.358 125.863 135.807  0.00  0.00    +0.000 C 
ATOM     25  C   UNL     1     111.820 126.889 136.686  0.00  0.00    +0.000 C 
ATOM     26  C   UNL     1     111.042 126.436 135.303  0.00  0.00    +0.000 C 
ATOM     27  C   UNL     1     111.116 127.235 135.492  0.00  0.00    +0.000 C 
BRANCH  25  29
ATOM     28  O   UNL     1     112.742 127.746 137.363  0.00  0.00    +0.000 OA
ATOM     29  C   UNL     1     112.208 127.116 137.378  0.00  0.00    +0.000 C 
ENDBRANCH  25  29
BRANCH  23  30
ATOM     30  O   UNL     1     112.061 125.516 137.000  0.00  0.00    +0.000 OA
BRANCH  30  32
ATOM     31  O   UNL     1     110.979 125.345 137.918  0.00  0.00    +0.000 OA
ATOM     32  C   UNL     1     111.558 125.021 137.428  0.00  0.00    +0.000 C 
ATOM     33  C   UNL     1     111.633 124.202 137.365  0.00  0.00    +0.000 C 
ENDBRANCH  30  32
ENDBRANCH  23  30
ENDBRANCH  19  27
ENDBRANCH   4  19
TORSDOF 6
ENDMDL
MODEL 7
REMARK VINA RESULT:      -8.7      3.054      4.822
REMARK  Name = 44257632
REMARK  6 active torsions:
REMARK  status: ('A' for Active; 'I' for Inactive)
REMARK    1  A    between atoms: O_2  and  C_11
REMARK    2  A    between atoms: O_2  and  C_18
REMARK    3  A    between atoms: O_4  and  C_15
REMARK    4  A    between atoms: O_4  and  C_17
REMARK    5  A    between atoms: C_13  and  C_16
REMARK    6  A    between atoms: C_26  and  C_28
REMARK                            x       y       z     vdW  Elec       q    Type
REMARK                         _______ _______ _______ _____ _____    ______ ____
ROOT
ATOM      1  O   UNL     1     111.793 126.289 136.991  0.00  0.00    +0.000 OA
ATOM      2  O   UNL     1     114.371 125.253 137.782  0.00  0.00    +0.000 OA
ATOM      3  O   UNL     1     113.792 124.913 136.505  0.00  0.00    +0.000 OA
ATOM      4  C   UNL     1     112.961 126.611 138.869  0.00  0.00    +0.000 A 
ATOM      5  C   UNL     1     112.330 126.663 138.288  0.00  0.00    +0.000 A 
ATOM      6  C   UNL     1     113.655 126.134 138.700  0.00  0.00    +0.000 A 
ATOM      7  C   UNL     1     112.402 126.235 137.545  0.00  0.00    +0.000 A 
ATOM      8  C   UNL     1     113.068 125.777 137.383  0.00  0.00    +0.000 A 
ATOM      9  C   UNL     1     113.709 125.713 137.952  0.00  0.00    +0.000 A 
ATOM     10  C   UNL     1     113.126 125.371 136.667  0.00  0.00    +0.000 A 
ATOM     11  C   UNL     1     111.851 125.883 136.275  0.00  0.00    +0.000 A 
ATOM     12  C   UNL     1     112.517 125.425 136.113  0.00  0.00    +0.000 A 
ENDROOT
BRANCH  11  13
ATOM     13  C   UNL     1     111.242 125.937 135.721  0.00  0.00    +0.000 A 
ATOM     14  C   UNL     1     111.193 126.593 135.224  0.00  0.00    +0.000 A 
ATOM     15  C   UNL     1     110.683 125.333 135.663  0.00  0.00    +0.000 A 
ATOM     16  C   UNL     1     110.584 126.646 134.669  0.00  0.00    +0.000 A 
ATOM     17  C   UNL     1     110.074 125.385 135.109  0.00  0.00    +0.000 A 
ATOM     18  C   UNL     1     110.025 126.042 134.612  0.00  0.00    +0.000 A 
ENDBRANCH  11  13
BRANCH   4  19
ATOM     19  O   UNL     1     112.901 127.017 139.584  0.00  0.00    +0.000 OA
BRANCH  19  27
ATOM     20  O   UNL     1     113.099 128.355 139.122  0.00  0.00    +0.000 OA
ATOM     21  O   UNL     1     114.630 128.783 141.019  0.00  0.00    +0.000 OA
ATOM     22  O   UNL     1     113.921 127.303 140.849  0.00  0.00    +0.000 OA
ATOM     23  C   UNL     1     113.964 129.237 139.841  0.00  0.00    +0.000 C 
ATOM     24  C   UNL     1     114.120 128.640 140.387  0.00  0.00    +0.000 C 
ATOM     25  C   UNL     1     113.454 129.095 139.208  0.00  0.00    +0.000 C 
ATOM     26  C   UNL     1     113.766 127.900 140.302  0.00  0.00    +0.000 C 
ATOM     27  C   UNL     1     113.255 127.757 139.670  0.00  0.00    +0.000 C 
BRANCH  25  29
ATOM     28  O   UNL     1     113.307 129.523 137.853  0.00  0.00    +0.000 OA
ATOM     29  C   UNL     1     113.297 129.692 138.661  0.00  0.00    +0.000 C 
ENDBRANCH  25  29
BRANCH  23  30
ATOM     30  O   UNL     1     114.318 129.977 139.926  0.00  0.00    +0.000 OA
BRANCH  30  32
ATOM     31  O   UNL     1     113.283 130.632 140.661  0.00  0.00    +0.000 OA
ATOM     32  C   UNL     1     114.084 130.478 140.537  0.00  0.00    +0.000 C 
ATOM     33  C   UNL     1     114.651 130.827 141.026  0.00  0.00    +0.000 C 
ENDBRANCH  30  32
ENDBRANCH  23  30
ENDBRANCH  19  27
ENDBRANCH   4  19
TORSDOF 6
ENDMDL
MODEL 8
REMARK VINA RESULT:      -8.7      1.599      2.700
REMARK  Name = 44257632
REMARK  6 active torsions:
REMARK  status: ('A' for Active; 'I' for Inactive)
REMARK    1  A    between atoms: O_2  and  C_11
REMARK    2  A    between atoms: O_2  and  C_18
REMARK    3  A    between atoms: O_4  and  C_15
REMARK    4  A    between atoms: O_4  and  C_17
REMARK    5  A    between atoms: C_13  and  C_16
REMARK    6  A    between atoms: C_26  and  C_28
REMARK                            x       y       z     vdW  Elec       q    Type
REMARK                         _______ _______ _______ _____ _____    ______ ____
ROOT
ATOM      1  O   UNL     1     112.713 127.114 137.224  0.00  0.00    +0.000 OA
ATOM      2  O   UNL     1     113.099 129.662 135.919  0.00  0.00    +0.000 OA
ATOM      3  O   UNL     1     113.932 128.529 135.599  0.00  0.00    +0.000 OA
ATOM      4  C   UNL     1     111.617 129.044 137.480  0.00  0.00    +0.000 A 
ATOM      5  C   UNL     1     111.847 128.222 137.584  0.00  0.00    +0.000 A 
ATOM      6  C   UNL     1     112.040 129.535 136.917  0.00  0.00    +0.000 A 
ATOM      7  C   UNL     1     112.497 127.903 137.121  0.00  0.00    +0.000 A 
ATOM      8  C   UNL     1     112.903 128.375 136.579  0.00  0.00    +0.000 A 
ATOM      9  C   UNL     1     112.688 129.198 136.463  0.00  0.00    +0.000 A 
ATOM     10  C   UNL     1     113.526 128.057 136.141  0.00  0.00    +0.000 A 
ATOM     11  C   UNL     1     113.335 126.796 136.786  0.00  0.00    +0.000 A 
ATOM     12  C   UNL     1     113.741 127.268 136.244  0.00  0.00    +0.000 A 
ENDROOT
BRANCH  11  13
ATOM     13  C   UNL     1     113.552 126.007 136.889  0.00  0.00    +0.000 A 
ATOM     14  C   UNL     1     114.168 125.811 137.402  0.00  0.00    +0.000 A 
ATOM     15  C   UNL     1     113.152 125.412 136.479  0.00  0.00    +0.000 A 
ATOM     16  C   UNL     1     114.385 125.022 137.505  0.00  0.00    +0.000 A 
ATOM     17  C   UNL     1     113.368 124.623 136.582  0.00  0.00    +0.000 A 
ATOM     18  C   UNL     1     113.984 124.428 137.094  0.00  0.00    +0.000 A 
ENDBRANCH  11  13
BRANCH   4  19
ATOM     19  O   UNL     1     110.994 129.359 137.920  0.00  0.00    +0.000 OA
BRANCH  19  27
ATOM     20  O   UNL     1     109.924 129.060 137.021  0.00  0.00    +0.000 OA
ATOM     21  O   UNL     1     108.933 131.285 137.462  0.00  0.00    +0.000 OA
ATOM     22  O   UNL     1     110.333 130.842 138.214  0.00  0.00    +0.000 OA
ATOM     23  C   UNL     1     108.894 130.024 136.792  0.00  0.00    +0.000 C 
ATOM     24  C   UNL     1     109.263 130.543 137.315  0.00  0.00    +0.000 C 
ATOM     25  C   UNL     1     109.224 129.282 136.646  0.00  0.00    +0.000 C 
ATOM     26  C   UNL     1     109.964 130.323 137.691  0.00  0.00    +0.000 C 
ATOM     27  C   UNL     1     110.294 129.581 137.544  0.00  0.00    +0.000 C 
BRANCH  25  29
ATOM     28  O   UNL     1     108.733 127.975 136.342  0.00  0.00    +0.000 OA
ATOM     29  C   UNL     1     108.855 128.762 136.123  0.00  0.00    +0.000 C 
ENDBRANCH  25  29
BRANCH  23  30
ATOM     30  O   UNL     1     108.194 130.245 136.417  0.00  0.00    +0.000 OA
BRANCH  30  32
ATOM     31  O   UNL     1     108.678 130.693 135.149  0.00  0.00    +0.000 OA
ATOM     32  C   UNL     1     108.209 130.811 135.817  0.00  0.00    +0.000 C 
ATOM     33  C   UNL     1     107.755 131.497 135.886  0.00  0.00    +0.000 C 
ENDBRANCH  30  32
ENDBRANCH  23  30
ENDBRANCH  19  27
ENDBRANCH   4  19
TORSDOF 6
ENDMDL
MODEL 9
REMARK VINA RESULT:      -8.6      3.222      4.325
REMARK  Name = 44257632
REMARK  6 active torsions:
REMARK  status: ('A' for Active; 'I' for Inactive)
REMARK    1  A    between atoms: O_2  and  C_11
REMARK    2  A    between atoms: O_2  and  C_18
REMARK    3  A    between atoms: O_4  and  C_15
REMARK    4  A    between atoms: O_4  and  C_17
REMARK    5  A    between atoms: C_13  and  C_16
REMARK    6  A    between atoms: C_26  and  C_28
REMARK                            x       y       z     vdW  Elec       q    Type
REMARK                         _______ _______ _______ _____ _____    ______ ____
ROOT
ATOM      1  O   UNL     1     113.174 127.151 137.158  0.00  0.00    +0.000 OA
ATOM      2  O   UNL     1     113.980 129.515 135.706  0.00  0.00    +0.000 OA
ATOM      3  O   UNL     1     114.525 128.220 135.381  0.00  0.00    +0.000 OA
ATOM      4  C   UNL     1     112.535 129.278 137.401  0.00  0.00    +0.000 A 
ATOM      5  C   UNL     1     112.594 128.430 137.527  0.00  0.00    +0.000 A 
ATOM      6  C   UNL     1     113.004 129.649 136.785  0.00  0.00    +0.000 A 
ATOM      7  C   UNL     1     113.122 127.964 137.032  0.00  0.00    +0.000 A 
ATOM      8  C   UNL     1     113.572 128.321 136.440  0.00  0.00    +0.000 A 
ATOM      9  C   UNL     1     113.526 129.167 136.301  0.00  0.00    +0.000 A 
ATOM     10  C   UNL     1     114.075 127.864 135.973  0.00  0.00    +0.000 A 
ATOM     11  C   UNL     1     113.677 126.694 136.690  0.00  0.00    +0.000 A 
ATOM     12  C   UNL     1     114.127 127.050 136.098  0.00  0.00    +0.000 A 
ENDROOT
BRANCH  11  13
ATOM     13  C   UNL     1     113.729 125.880 136.814  0.00  0.00    +0.000 A 
ATOM     14  C   UNL     1     114.358 125.568 137.248  0.00  0.00    +0.000 A 
ATOM     15  C   UNL     1     113.152 125.377 136.506  0.00  0.00    +0.000 A 
ATOM     16  C   UNL     1     114.411 124.754 137.372  0.00  0.00    +0.000 A 
ATOM     17  C   UNL     1     113.204 124.563 136.630  0.00  0.00    +0.000 A 
ATOM     18  C   UNL     1     113.833 124.252 137.063  0.00  0.00    +0.000 A 
ENDBRANCH  11  13
BRANCH   4  19
ATOM     19  O   UNL     1     112.032 129.733 137.870  0.00  0.00    +0.000 OA
BRANCH  19  27
ATOM     20  O   UNL     1     113.023 130.083 138.838  0.00  0.00    +0.000 OA
ATOM     21  O   UNL     1     111.294 130.080 140.609  0.00  0.00    +0.000 OA
ATOM     22  O   UNL     1     110.879 129.731 139.051  0.00  0.00    +0.000 OA
ATOM     23  C   UNL     1     112.653 130.257 140.208  0.00  0.00    +0.000 C 
ATOM     24  C   UNL     1     111.871 130.081 140.019  0.00  0.00    +0.000 C 
ATOM     25  C   UNL     1     113.230 130.258 139.617  0.00  0.00    +0.000 C 
ATOM     26  C   UNL     1     111.662 129.906 139.240  0.00  0.00    +0.000 C 
ATOM     27  C   UNL     1     112.239 129.908 138.649  0.00  0.00    +0.000 C 
BRANCH  25  29
ATOM     28  O   UNL     1     114.439 130.967 139.341  0.00  0.00    +0.000 OA
ATOM     29  C   UNL     1     114.013 130.433 139.805  0.00  0.00    +0.000 C 
ENDBRANCH  25  29
BRANCH  23  30
ATOM     30  O   UNL     1     112.861 130.431 140.986  0.00  0.00    +0.000 OA
BRANCH  30  32
ATOM     31  O   UNL     1     113.244 129.123 141.417  0.00  0.00    +0.000 OA
ATOM     32  C   UNL     1     112.854 129.836 141.558  0.00  0.00    +0.000 C 
ATOM     33  C   UNL     1     112.457 129.954 142.272  0.00  0.00    +0.000 C 
ENDBRANCH  30  32
ENDBRANCH  23  30
ENDBRANCH  19  27
ENDBRANCH   4  19
TORSDOF 6
ENDMDL
MODEL 10
REMARK VINA RESULT:      -8.6      9.122     10.846
REMARK  Name = 44257632
REMARK  6 active torsions:
REMARK  status: ('A' for Active; 'I' for Inactive)
REMARK    1  A    between atoms: O_2  and  C_11
REMARK    2  A    between atoms: O_2  and  C_18
REMARK    3  A    between atoms: O_4  and  C_15
REMARK    4  A    between atoms: O_4  and  C_17
REMARK    5  A    between atoms: C_13  and  C_16
REMARK    6  A    between atoms: C_26  and  C_28
REMARK                            x       y       z     vdW  Elec       q    Type
REMARK                         _______ _______ _______ _____ _____    ______ ____
ROOT
ATOM      1  O   UNL     1     103.877 124.264 146.047  0.00  0.00    +0.000 OA
ATOM      2  O   UNL     1     106.248 125.066 147.489  0.00  0.00    +0.000 OA
ATOM      3  O   UNL     1     105.021 124.767 148.184  0.00  0.00    +0.000 OA
ATOM      4  C   UNL     1     105.913 124.791 145.292  0.00  0.00    +0.000 A 
ATOM      5  C   UNL     1     105.087 124.553 145.298  0.00  0.00    +0.000 A 
ATOM      6  C   UNL     1     106.310 124.966 146.033  0.00  0.00    +0.000 A 
ATOM      7  C   UNL     1     104.669 124.493 146.047  0.00  0.00    +0.000 A 
ATOM      8  C   UNL     1     105.050 124.661 146.759  0.00  0.00    +0.000 A 
ATOM      9  C   UNL     1     105.875 124.900 146.772  0.00  0.00    +0.000 A 
ATOM     10  C   UNL     1     104.639 124.599 147.472  0.00  0.00    +0.000 A 
ATOM     11  C   UNL     1     103.466 124.202 146.760  0.00  0.00    +0.000 A 
ATOM     12  C   UNL     1     103.847 124.370 147.472  0.00  0.00    +0.000 A 
ENDROOT
BRANCH  11  13
ATOM     13  C   UNL     1     102.673 123.973 146.760  0.00  0.00    +0.000 A 
ATOM     14  C   UNL     1     102.081 124.535 146.882  0.00  0.00    +0.000 A 
ATOM     15  C   UNL     1     102.472 123.182 146.638  0.00  0.00    +0.000 A 
ATOM     16  C   UNL     1     101.289 124.306 146.883  0.00  0.00    +0.000 A 
ATOM     17  C   UNL     1     101.680 122.952 146.639  0.00  0.00    +0.000 A 
ATOM     18  C   UNL     1     101.089 123.514 146.761  0.00  0.00    +0.000 A 
ENDBRANCH  11  13
BRANCH   4  19
ATOM     19  O   UNL     1     106.321 124.852 144.578  0.00  0.00    +0.000 OA
BRANCH  19  27
ATOM     20  O   UNL     1     106.502 126.260 144.412  0.00  0.00    +0.000 OA
ATOM     21  O   UNL     1     105.524 126.119 142.143  0.00  0.00    +0.000 OA
ATOM     22  O   UNL     1     105.669 124.758 143.065  0.00  0.00    +0.000 OA
ATOM     23  C   UNL     1     106.103 126.893 143.195  0.00  0.00    +0.000 C 
ATOM     24  C   UNL     1     105.850 126.166 142.900  0.00  0.00    +0.000 C 
ATOM     25  C   UNL     1     106.429 126.940 143.951  0.00  0.00    +0.000 C 
ATOM     26  C   UNL     1     105.922 125.485 143.360  0.00  0.00    +0.000 C 
ATOM     27  C   UNL     1     106.249 125.532 144.116  0.00  0.00    +0.000 C 
BRANCH  25  29
ATOM     28  O   UNL     1     107.392 127.716 144.667  0.00  0.00    +0.000 OA
ATOM     29  C   UNL     1     106.683 127.667 144.247  0.00  0.00    +0.000 C 
ENDBRANCH  25  29
BRANCH  23  30
ATOM     30  O   UNL     1     106.031 127.573 142.734  0.00  0.00    +0.000 OA
BRANCH  30  32
ATOM     31  O   UNL     1     104.767 128.027 143.223  0.00  0.00    +0.000 OA
ATOM     32  C   UNL     1     105.286 127.899 142.595  0.00  0.00    +0.000 C 
ATOM     33  C   UNL     1     105.059 128.098 141.826  0.00  0.00    +0.000 C 
ENDBRANCH  30  32
ENDBRANCH  23  30
ENDBRANCH  19  27
ENDBRANCH   4  19
TORSDOF 6
ENDMDL
