MODEL 1
REMARK VINA RESULT:     -10.7      0.000      0.000
REMARK  Name = 44257950
REMARK  10 active torsions:
REMARK  status: ('A' for Active; 'I' for Inactive)
REMARK    1  A    between atoms: O_2  and  C_19
REMARK    2  A    between atoms: O_2  and  C_24
REMARK    3  A    between atoms: O_7  and  C_27
REMARK    4  A    between atoms: O_7  and  C_39
REMARK    5  A    between atoms: O_17  and  C_51
REMARK    6  A    between atoms: C_21  and  C_25
REMARK    7  A    between atoms: C_23  and  C_27
REMARK    8  A    between atoms: C_37  and  C_40
REMARK    9  A    between atoms: C_39  and  C_41
REMARK   10  A    between atoms: C_44  and  C_48
REMARK                            x       y       z     vdW  Elec       q    Type
REMARK                         _______ _______ _______ _____ _____    ______ ____
ROOT
ATOM      1  O   UNL     1     110.408 127.984 136.659  0.00  0.00    +0.000 OA
ATOM      2  O   UNL     1     109.655 129.645 134.986  0.00  0.00    +0.000 OA
ATOM      3  O   UNL     1     109.654 128.039 134.612  0.00  0.00    +0.000 OA
ATOM      4  C   UNL     1     110.158 129.341 136.289  0.00  0.00    +0.000 C 
ATOM      5  C   UNL     1     109.906 129.092 135.544  0.00  0.00    +0.000 C 
ATOM      6  C   UNL     1     110.409 128.787 136.846  0.00  0.00    +0.000 C 
ATOM      7  C   UNL     1     109.905 128.288 135.356  0.00  0.00    +0.000 C 
ATOM      8  C   UNL     1     110.156 127.735 135.914  0.00  0.00    +0.000 C 
ENDROOT
BRANCH   6  13
ATOM      9  O   UNL     1     112.006 129.171 137.061  0.00  0.00    +0.000 OA
ATOM     10  O   UNL     1     109.328 128.896 138.089  0.00  0.00    +0.000 OA
ATOM     11  O   UNL     1     111.415 129.785 139.826  0.00  0.00    +0.000 OA
ATOM     12  O   UNL     1     112.769 129.935 139.351  0.00  0.00    +0.000 OA
ATOM     13  C   UNL     1     110.661 129.037 137.592  0.00  0.00    +0.000 A 
ATOM     14  C   UNL     1     111.452 129.231 137.716  0.00  0.00    +0.000 A 
ATOM     15  C   UNL     1     110.120 129.091 138.213  0.00  0.00    +0.000 A 
ATOM     16  C   UNL     1     111.704 129.481 138.461  0.00  0.00    +0.000 A 
ATOM     17  C   UNL     1     110.371 129.341 138.958  0.00  0.00    +0.000 A 
ATOM     18  C   UNL     1     111.164 129.535 139.081  0.00  0.00    +0.000 A 
ATOM     19  C   UNL     1     112.526 129.687 138.602  0.00  0.00    +0.000 A 
ATOM     20  C   UNL     1     112.831 129.372 137.184  0.00  0.00    +0.000 A 
ATOM     21  C   UNL     1     113.093 129.632 137.960  0.00  0.00    +0.000 A 
BRANCH  20  24
ATOM     22  O   UNL     1     114.421 130.628 135.167  0.00  0.00    +0.000 OA
ATOM     23  O   UNL     1     114.984 129.151 134.692  0.00  0.00    +0.000 OA
ATOM     24  C   UNL     1     113.370 129.317 136.561  0.00  0.00    +0.000 A 
ATOM     25  C   UNL     1     113.626 130.000 136.175  0.00  0.00    +0.000 A 
ATOM     26  C   UNL     1     113.652 128.579 136.323  0.00  0.00    +0.000 A 
ATOM     27  C   UNL     1     114.164 129.945 135.552  0.00  0.00    +0.000 A 
ATOM     28  C   UNL     1     114.190 128.524 135.701  0.00  0.00    +0.000 A 
ATOM     29  C   UNL     1     114.446 129.207 135.315  0.00  0.00    +0.000 A 
ENDBRANCH  20  24
ENDBRANCH   6  13
BRANCH   4  30
ATOM     30  O   UNL     1     110.159 130.144 136.476  0.00  0.00    +0.000 OA
BRANCH  30  35
ATOM     31  O   UNL     1     108.753 130.287 136.268  0.00  0.00    +0.000 OA
ATOM     32  O   UNL     1     110.375 131.740 136.114  0.00  0.00    +0.000 OA
ATOM     33  O   UNL     1     109.074 132.680 135.725  0.00  0.00    +0.000 OA
ATOM     34  O   UNL     1     107.561 132.024 135.697  0.00  0.00    +0.000 OA
ATOM     35  C   UNL     1     109.510 130.615 136.281  0.00  0.00    +0.000 C 
ATOM     36  C   UNL     1     109.617 131.412 136.100  0.00  0.00    +0.000 C 
ATOM     37  C   UNL     1     108.968 131.882 135.906  0.00  0.00    +0.000 C 
ATOM     38  C   UNL     1     108.211 131.554 135.892  0.00  0.00    +0.000 C 
ATOM     39  C   UNL     1     108.103 130.756 136.073  0.00  0.00    +0.000 C 
ENDBRANCH  30  35
ENDBRANCH   4  30
BRANCH   8  40
ATOM     40  C   UNL     1     110.155 126.930 135.726  0.00  0.00    +0.000 C 
BRANCH  40  41
ATOM     41  O   UNL     1     110.465 126.383 136.258  0.00  0.00    +0.000 OA
BRANCH  41  43
ATOM     42  O   UNL     1     110.393 125.149 135.541  0.00  0.00    +0.000 OA
ATOM     43  C   UNL     1     110.829 125.697 135.980  0.00  0.00    +0.000 C 
BRANCH  43  44
ATOM     44  C   UNL     1     111.626 125.558 136.139  0.00  0.00    +0.000 C 
ATOM     45  C   UNL     1     111.845 125.144 136.818  0.00  0.00    +0.000 C 
BRANCH  45  47
ATOM     46  O   UNL     1     115.035 124.588 137.455  0.00  0.00    +0.000 OA
ATOM     47  C   UNL     1     112.643 125.005 136.978  0.00  0.00    +0.000 A 
ATOM     48  C   UNL     1     113.016 125.406 137.595  0.00  0.00    +0.000 A 
ATOM     49  C   UNL     1     113.067 124.465 136.520  0.00  0.00    +0.000 A 
ATOM     50  C   UNL     1     113.813 125.267 137.754  0.00  0.00    +0.000 A 
ATOM     51  C   UNL     1     113.864 124.327 136.679  0.00  0.00    +0.000 A 
ATOM     52  C   UNL     1     114.237 124.727 137.296  0.00  0.00    +0.000 A 
BRANCH  50  53
ATOM     53  O   UNL     1     114.186 125.667 138.371  0.00  0.00    +0.000 OA
ATOM     54  C   UNL     1     113.744 126.141 138.882  0.00  0.00    +0.000 C 
ENDBRANCH  50  53
ENDBRANCH  45  47
ENDBRANCH  43  44
ENDBRANCH  41  43
ENDBRANCH  40  41
ENDBRANCH   8  40
TORSDOF 10
ENDMDL
MODEL 2
REMARK VINA RESULT:     -10.7      1.596      2.896
REMARK  Name = 44257950
REMARK  10 active torsions:
REMARK  status: ('A' for Active; 'I' for Inactive)
REMARK    1  A    between atoms: O_2  and  C_19
REMARK    2  A    between atoms: O_2  and  C_24
REMARK    3  A    between atoms: O_7  and  C_27
REMARK    4  A    between atoms: O_7  and  C_39
REMARK    5  A    between atoms: O_17  and  C_51
REMARK    6  A    between atoms: C_21  and  C_25
REMARK    7  A    between atoms: C_23  and  C_27
REMARK    8  A    between atoms: C_37  and  C_40
REMARK    9  A    between atoms: C_39  and  C_41
REMARK   10  A    between atoms: C_44  and  C_48
REMARK                            x       y       z     vdW  Elec       q    Type
REMARK                         _______ _______ _______ _____ _____    ______ ____
ROOT
ATOM      1  O   UNL     1     110.459 128.166 136.278  0.00  0.00    +0.000 OA
ATOM      2  O   UNL     1     108.543 129.692 136.630  0.00  0.00    +0.000 OA
ATOM      3  O   UNL     1     108.282 128.142 136.132  0.00  0.00    +0.000 OA
ATOM      4  C   UNL     1     109.952 129.450 136.645  0.00  0.00    +0.000 C 
ATOM      5  C   UNL     1     109.182 129.184 136.513  0.00  0.00    +0.000 C 
ATOM      6  C   UNL     1     110.590 128.941 136.527  0.00  0.00    +0.000 C 
ATOM      7  C   UNL     1     109.051 128.408 136.264  0.00  0.00    +0.000 C 
ATOM      8  C   UNL     1     109.690 127.899 136.146  0.00  0.00    +0.000 C 
ENDROOT
BRANCH   6  13
ATOM      9  O   UNL     1     111.384 128.440 137.892  0.00  0.00    +0.000 OA
ATOM     10  O   UNL     1     111.311 129.953 135.441  0.00  0.00    +0.000 OA
ATOM     11  O   UNL     1     113.668 130.006 137.054  0.00  0.00    +0.000 OA
ATOM     12  O   UNL     1     113.746 129.263 138.288  0.00  0.00    +0.000 OA
ATOM     13  C   UNL     1     111.360 129.208 136.659  0.00  0.00    +0.000 A 
ATOM     14  C   UNL     1     111.770 128.968 137.334  0.00  0.00    +0.000 A 
ATOM     15  C   UNL     1     111.720 129.714 136.116  0.00  0.00    +0.000 A 
ATOM     16  C   UNL     1     112.539 129.234 137.465  0.00  0.00    +0.000 A 
ATOM     17  C   UNL     1     112.490 129.980 136.247  0.00  0.00    +0.000 A 
ATOM     18  C   UNL     1     112.899 129.740 136.923  0.00  0.00    +0.000 A 
ATOM     19  C   UNL     1     112.976 128.992 138.165  0.00  0.00    +0.000 A 
ATOM     20  C   UNL     1     111.805 128.187 138.596  0.00  0.00    +0.000 A 
ATOM     21  C   UNL     1     112.607 128.465 138.734  0.00  0.00    +0.000 A 
BRANCH  20  24
ATOM     22  O   UNL     1     111.116 125.543 139.435  0.00  0.00    +0.000 OA
ATOM     23  O   UNL     1     110.356 126.162 140.762  0.00  0.00    +0.000 OA
ATOM     24  C   UNL     1     111.443 127.681 139.138  0.00  0.00    +0.000 A 
ATOM     25  C   UNL     1     111.461 126.866 139.016  0.00  0.00    +0.000 A 
ATOM     26  C   UNL     1     111.063 127.990 139.801  0.00  0.00    +0.000 A 
ATOM     27  C   UNL     1     111.099 126.358 139.557  0.00  0.00    +0.000 A 
ATOM     28  C   UNL     1     110.701 127.484 140.343  0.00  0.00    +0.000 A 
ATOM     29  C   UNL     1     110.718 126.668 140.220  0.00  0.00    +0.000 A 
ENDBRANCH  20  24
ENDBRANCH   6  13
BRANCH   4  30
ATOM     30  O   UNL     1     110.082 130.225 136.894  0.00  0.00    +0.000 OA
BRANCH  30  35
ATOM     31  O   UNL     1     109.340 130.048 138.102  0.00  0.00    +0.000 OA
ATOM     32  O   UNL     1     109.780 131.847 136.946  0.00  0.00    +0.000 OA
ATOM     33  O   UNL     1     108.885 132.479 138.181  0.00  0.00    +0.000 OA
ATOM     34  O   UNL     1     108.294 131.490 139.362  0.00  0.00    +0.000 OA
ATOM     35  C   UNL     1     109.635 130.542 137.511  0.00  0.00    +0.000 C 
ATOM     36  C   UNL     1     109.484 131.352 137.537  0.00  0.00    +0.000 C 
ATOM     37  C   UNL     1     109.037 131.668 138.154  0.00  0.00    +0.000 C 
ATOM     38  C   UNL     1     108.742 131.174 138.745  0.00  0.00    +0.000 C 
ATOM     39  C   UNL     1     108.893 130.364 138.719  0.00  0.00    +0.000 C 
ENDBRANCH  30  35
ENDBRANCH   4  30
BRANCH   8  40
ATOM     40  C   UNL     1     109.558 127.123 135.897  0.00  0.00    +0.000 C 
BRANCH  40  41
ATOM     41  O   UNL     1     110.148 126.716 135.490  0.00  0.00    +0.000 OA
BRANCH  41  43
ATOM     42  O   UNL     1     109.595 125.490 135.006  0.00  0.00    +0.000 OA
ATOM     43  C   UNL     1     110.144 125.891 135.475  0.00  0.00    +0.000 C 
BRANCH  43  44
ATOM     44  C   UNL     1     110.688 125.467 135.927  0.00  0.00    +0.000 C 
ATOM     45  C   UNL     1     111.411 125.242 135.599  0.00  0.00    +0.000 C 
BRANCH  45  47
ATOM     46  O   UNL     1     113.586 123.545 137.409  0.00  0.00    +0.000 OA
ATOM     47  C   UNL     1     111.955 124.817 136.052  0.00  0.00    +0.000 A 
ATOM     48  C   UNL     1     112.671 125.166 136.270  0.00  0.00    +0.000 A 
ATOM     49  C   UNL     1     111.784 124.045 136.286  0.00  0.00    +0.000 A 
ATOM     50  C   UNL     1     113.215 124.742 136.723  0.00  0.00    +0.000 A 
ATOM     51  C   UNL     1     112.328 123.621 136.739  0.00  0.00    +0.000 A 
ATOM     52  C   UNL     1     113.042 123.969 136.957  0.00  0.00    +0.000 A 
BRANCH  50  53
ATOM     53  O   UNL     1     113.929 125.090 136.941  0.00  0.00    +0.000 OA
ATOM     54  C   UNL     1     114.164 125.801 136.595  0.00  0.00    +0.000 C 
ENDBRANCH  50  53
ENDBRANCH  45  47
ENDBRANCH  43  44
ENDBRANCH  41  43
ENDBRANCH  40  41
ENDBRANCH   8  40
TORSDOF 10
ENDMDL
MODEL 3
REMARK VINA RESULT:     -10.6      1.561      5.244
REMARK  Name = 44257950
REMARK  10 active torsions:
REMARK  status: ('A' for Active; 'I' for Inactive)
REMARK    1  A    between atoms: O_2  and  C_19
REMARK    2  A    between atoms: O_2  and  C_24
REMARK    3  A    between atoms: O_7  and  C_27
REMARK    4  A    between atoms: O_7  and  C_39
REMARK    5  A    between atoms: O_17  and  C_51
REMARK    6  A    between atoms: C_21  and  C_25
REMARK    7  A    between atoms: C_23  and  C_27
REMARK    8  A    between atoms: C_37  and  C_40
REMARK    9  A    between atoms: C_39  and  C_41
REMARK   10  A    between atoms: C_44  and  C_48
REMARK                            x       y       z     vdW  Elec       q    Type
REMARK                         _______ _______ _______ _____ _____    ______ ____
ROOT
ATOM      1  O   UNL     1     109.845 127.529 137.246  0.00  0.00    +0.000 OA
ATOM      2  O   UNL     1     110.321 125.402 136.074  0.00  0.00    +0.000 OA
ATOM      3  O   UNL     1     109.462 126.588 135.315  0.00  0.00    +0.000 OA
ATOM      4  C   UNL     1     110.433 126.227 137.236  0.00  0.00    +0.000 C 
ATOM      5  C   UNL     1     110.163 126.111 136.465  0.00  0.00    +0.000 C 
ATOM      6  C   UNL     1     110.274 126.937 137.625  0.00  0.00    +0.000 C 
ATOM      7  C   UNL     1     109.733 126.704 136.084  0.00  0.00    +0.000 C 
ATOM      8  C   UNL     1     109.574 127.413 136.475  0.00  0.00    +0.000 C 
ENDROOT
BRANCH   6  13
ATOM      9  O   UNL     1     111.555 127.957 137.875  0.00  0.00    +0.000 OA
ATOM     10  O   UNL     1     109.542 126.160 138.884  0.00  0.00    +0.000 OA
ATOM     11  O   UNL     1     111.357 127.402 140.708  0.00  0.00    +0.000 OA
ATOM     12  O   UNL     1     112.379 128.308 140.243  0.00  0.00    +0.000 OA
ATOM     13  C   UNL     1     110.545 127.053 138.397  0.00  0.00    +0.000 A 
ATOM     14  C   UNL     1     111.182 127.558 138.538  0.00  0.00    +0.000 A 
ATOM     15  C   UNL     1     110.178 126.664 139.026  0.00  0.00    +0.000 A 
ATOM     16  C   UNL     1     111.452 127.674 139.309  0.00  0.00    +0.000 A 
ATOM     17  C   UNL     1     110.449 126.781 139.796  0.00  0.00    +0.000 A 
ATOM     18  C   UNL     1     111.086 127.286 139.937  0.00  0.00    +0.000 A 
ATOM     19  C   UNL     1     112.115 128.198 139.469  0.00  0.00    +0.000 A 
ATOM     20  C   UNL     1     112.218 128.484 138.016  0.00  0.00    +0.000 A 
ATOM     21  C   UNL     1     112.500 128.605 138.818  0.00  0.00    +0.000 A 
BRANCH  20  24
ATOM     22  O   UNL     1     114.154 128.510 135.912  0.00  0.00    +0.000 OA
ATOM     23  O   UNL     1     113.676 130.032 135.492  0.00  0.00    +0.000 OA
ATOM     24  C   UNL     1     112.583 128.871 137.385  0.00  0.00    +0.000 A 
ATOM     25  C   UNL     1     113.186 128.497 136.964  0.00  0.00    +0.000 A 
ATOM     26  C   UNL     1     112.345 129.632 137.174  0.00  0.00    +0.000 A 
ATOM     27  C   UNL     1     113.551 128.884 136.333  0.00  0.00    +0.000 A 
ATOM     28  C   UNL     1     112.709 130.019 136.544  0.00  0.00    +0.000 A 
ATOM     29  C   UNL     1     113.312 129.645 136.123  0.00  0.00    +0.000 A 
ENDBRANCH  20  24
ENDBRANCH   6  13
BRANCH   4  30
ATOM     30  O   UNL     1     110.863 125.635 137.615  0.00  0.00    +0.000 OA
BRANCH  30  35
ATOM     31  O   UNL     1     111.916 125.675 136.651  0.00  0.00    +0.000 OA
ATOM     32  O   UNL     1     111.266 124.079 137.992  0.00  0.00    +0.000 OA
ATOM     33  O   UNL     1     112.522 123.343 137.215  0.00  0.00    +0.000 OA
ATOM     34  O   UNL     1     113.374 124.161 136.062  0.00  0.00    +0.000 OA
ATOM     35  C   UNL     1     111.490 125.266 137.227  0.00  0.00    +0.000 C 
ATOM     36  C   UNL     1     111.692 124.489 137.415  0.00  0.00    +0.000 C 
ATOM     37  C   UNL     1     112.320 124.121 137.027  0.00  0.00    +0.000 C 
ATOM     38  C   UNL     1     112.745 124.530 136.451  0.00  0.00    +0.000 C 
ATOM     39  C   UNL     1     112.544 125.307 136.262  0.00  0.00    +0.000 C 
ENDBRANCH  30  35
ENDBRANCH   4  30
BRANCH   8  40
ATOM     40  C   UNL     1     109.144 128.006 136.094  0.00  0.00    +0.000 C 
BRANCH  40  41
ATOM     41  O   UNL     1     108.903 128.674 136.513  0.00  0.00    +0.000 OA
BRANCH  41  43
ATOM     42  O   UNL     1     107.868 129.260 135.721  0.00  0.00    +0.000 OA
ATOM     43  C   UNL     1     108.593 129.324 136.111  0.00  0.00    +0.000 C 
BRANCH  43  44
ATOM     44  C   UNL     1     109.007 130.037 136.098  0.00  0.00    +0.000 C 
ATOM     45  C   UNL     1     108.699 130.700 136.481  0.00  0.00    +0.000 C 
BRANCH  45  47
ATOM     46  O   UNL     1     110.355 133.554 136.430  0.00  0.00    +0.000 OA
ATOM     47  C   UNL     1     109.113 131.414 136.468  0.00  0.00    +0.000 A 
ATOM     48  C   UNL     1     109.444 131.711 137.164  0.00  0.00    +0.000 A 
ATOM     49  C   UNL     1     109.196 131.830 135.761  0.00  0.00    +0.000 A 
ATOM     50  C   UNL     1     109.858 132.425 137.151  0.00  0.00    +0.000 A 
ATOM     51  C   UNL     1     109.610 132.543 135.748  0.00  0.00    +0.000 A 
ATOM     52  C   UNL     1     109.941 132.840 136.443  0.00  0.00    +0.000 A 
BRANCH  50  53
ATOM     53  O   UNL     1     110.188 132.722 137.845  0.00  0.00    +0.000 OA
ATOM     54  C   UNL     1     110.110 132.302 138.551  0.00  0.00    +0.000 C 
ENDBRANCH  50  53
ENDBRANCH  45  47
ENDBRANCH  43  44
ENDBRANCH  41  43
ENDBRANCH  40  41
ENDBRANCH   8  40
TORSDOF 10
ENDMDL
MODEL 4
REMARK VINA RESULT:     -10.4      1.227      2.884
REMARK  Name = 44257950
REMARK  10 active torsions:
REMARK  status: ('A' for Active; 'I' for Inactive)
REMARK    1  A    between atoms: O_2  and  C_19
REMARK    2  A    between atoms: O_2  and  C_24
REMARK    3  A    between atoms: O_7  and  C_27
REMARK    4  A    between atoms: O_7  and  C_39
REMARK    5  A    between atoms: O_17  and  C_51
REMARK    6  A    between atoms: C_21  and  C_25
REMARK    7  A    between atoms: C_23  and  C_27
REMARK    8  A    between atoms: C_37  and  C_40
REMARK    9  A    between atoms: C_39  and  C_41
REMARK   10  A    between atoms: C_44  and  C_48
REMARK                            x       y       z     vdW  Elec       q    Type
REMARK                         _______ _______ _______ _____ _____    ______ ____
ROOT
ATOM      1  O   UNL     1     111.603 128.659 138.328  0.00  0.00    +0.000 OA
ATOM      2  O   UNL     1     111.133 130.997 138.989  0.00  0.00    +0.000 OA
ATOM      3  O   UNL     1     112.304 130.138 139.771  0.00  0.00    +0.000 OA
ATOM      4  C   UNL     1     110.860 129.867 138.157  0.00  0.00    +0.000 C 
ATOM      5  C   UNL     1     111.289 130.218 138.769  0.00  0.00    +0.000 C 
ATOM      6  C   UNL     1     111.017 129.088 137.937  0.00  0.00    +0.000 C 
ATOM      7  C   UNL     1     111.876 129.788 139.160  0.00  0.00    +0.000 C 
ATOM      8  C   UNL     1     112.032 129.009 138.940  0.00  0.00    +0.000 C 
ENDROOT
BRANCH   6  13
ATOM      9  O   UNL     1     111.767 128.830 136.483  0.00  0.00    +0.000 OA
ATOM     10  O   UNL     1     109.441 128.658 138.175  0.00  0.00    +0.000 OA
ATOM     11  O   UNL     1     109.301 127.687 135.492  0.00  0.00    +0.000 OA
ATOM     12  O   UNL     1     110.442 127.754 134.613  0.00  0.00    +0.000 OA
ATOM     13  C   UNL     1     110.588 128.737 137.325  0.00  0.00    +0.000 A 
ATOM     14  C   UNL     1     110.946 128.602 136.595  0.00  0.00    +0.000 A 
ATOM     15  C   UNL     1     109.800 128.523 137.445  0.00  0.00    +0.000 A 
ATOM     16  C   UNL     1     110.517 128.252 135.984  0.00  0.00    +0.000 A 
ATOM     17  C   UNL     1     109.371 128.173 136.834  0.00  0.00    +0.000 A 
ATOM     18  C   UNL     1     109.730 128.037 136.103  0.00  0.00    +0.000 A 
ATOM     19  C   UNL     1     110.879 128.105 135.218  0.00  0.00    +0.000 A 
ATOM     20  C   UNL     1     112.146 128.691 135.725  0.00  0.00    +0.000 A 
ATOM     21  C   UNL     1     111.699 128.326 135.088  0.00  0.00    +0.000 A 
BRANCH  20  24
ATOM     22  O   UNL     1     114.103 130.683 135.116  0.00  0.00    +0.000 OA
ATOM     23  O   UNL     1     115.297 129.553 135.259  0.00  0.00    +0.000 OA
ATOM     24  C   UNL     1     112.934 128.906 135.608  0.00  0.00    +0.000 A 
ATOM     25  C   UNL     1     113.125 129.687 135.421  0.00  0.00    +0.000 A 
ATOM     26  C   UNL     1     113.531 128.342 135.680  0.00  0.00    +0.000 A 
ATOM     27  C   UNL     1     113.913 129.903 135.304  0.00  0.00    +0.000 A 
ATOM     28  C   UNL     1     114.319 128.558 135.563  0.00  0.00    +0.000 A 
ATOM     29  C   UNL     1     114.510 129.338 135.375  0.00  0.00    +0.000 A 
ENDBRANCH  20  24
ENDBRANCH   6  13
BRANCH   4  30
ATOM     30  O   UNL     1     110.275 130.297 137.766  0.00  0.00    +0.000 OA
BRANCH  30  35
ATOM     31  O   UNL     1     111.208 131.293 137.344  0.00  0.00    +0.000 OA
ATOM     32  O   UNL     1     109.035 131.365 137.549  0.00  0.00    +0.000 OA
ATOM     33  O   UNL     1     109.350 132.895 137.018  0.00  0.00    +0.000 OA
ATOM     34  O   UNL     1     110.903 133.357 136.704  0.00  0.00    +0.000 OA
ATOM     35  C   UNL     1     110.431 131.062 137.501  0.00  0.00    +0.000 C 
ATOM     36  C   UNL     1     109.813 131.596 137.392  0.00  0.00    +0.000 C 
ATOM     37  C   UNL     1     109.969 132.361 137.127  0.00  0.00    +0.000 C 
ATOM     38  C   UNL     1     110.746 132.592 136.970  0.00  0.00    +0.000 C 
ATOM     39  C   UNL     1     111.365 132.058 137.079  0.00  0.00    +0.000 C 
ENDBRANCH  30  35
ENDBRANCH   4  30
BRANCH   8  40
ATOM     40  C   UNL     1     112.618 128.579 139.331  0.00  0.00    +0.000 C 
BRANCH  40  41
ATOM     41  O   UNL     1     112.558 127.759 139.390  0.00  0.00    +0.000 OA
BRANCH  41  43
ATOM     42  O   UNL     1     113.693 127.278 140.114  0.00  0.00    +0.000 OA
ATOM     43  C   UNL     1     113.241 127.297 139.423  0.00  0.00    +0.000 C 
BRANCH  43  44
ATOM     44  C   UNL     1     113.471 126.853 138.767  0.00  0.00    +0.000 C 
ATOM     45  C   UNL     1     113.187 126.084 138.670  0.00  0.00    +0.000 C 
BRANCH  45  47
ATOM     46  O   UNL     1     114.108 124.308 136.045  0.00  0.00    +0.000 OA
ATOM     47  C   UNL     1     113.418 125.639 138.013  0.00  0.00    +0.000 A 
ATOM     48  C   UNL     1     112.852 125.382 137.471  0.00  0.00    +0.000 A 
ATOM     49  C   UNL     1     114.213 125.453 137.900  0.00  0.00    +0.000 A 
ATOM     50  C   UNL     1     113.082 124.938 136.815  0.00  0.00    +0.000 A 
ATOM     51  C   UNL     1     114.443 125.009 137.243  0.00  0.00    +0.000 A 
ATOM     52  C   UNL     1     113.878 124.752 136.701  0.00  0.00    +0.000 A 
BRANCH  50  53
ATOM     53  O   UNL     1     112.516 124.681 136.273  0.00  0.00    +0.000 OA
ATOM     54  C   UNL     1     111.714 124.760 136.445  0.00  0.00    +0.000 C 
ENDBRANCH  50  53
ENDBRANCH  45  47
ENDBRANCH  43  44
ENDBRANCH  41  43
ENDBRANCH  40  41
ENDBRANCH   8  40
TORSDOF 10
ENDMDL
MODEL 5
REMARK VINA RESULT:     -10.4      1.723      4.485
REMARK  Name = 44257950
REMARK  10 active torsions:
REMARK  status: ('A' for Active; 'I' for Inactive)
REMARK    1  A    between atoms: O_2  and  C_19
REMARK    2  A    between atoms: O_2  and  C_24
REMARK    3  A    between atoms: O_7  and  C_27
REMARK    4  A    between atoms: O_7  and  C_39
REMARK    5  A    between atoms: O_17  and  C_51
REMARK    6  A    between atoms: C_21  and  C_25
REMARK    7  A    between atoms: C_23  and  C_27
REMARK    8  A    between atoms: C_37  and  C_40
REMARK    9  A    between atoms: C_39  and  C_41
REMARK   10  A    between atoms: C_44  and  C_48
REMARK                            x       y       z     vdW  Elec       q    Type
REMARK                         _______ _______ _______ _____ _____    ______ ____
ROOT
ATOM      1  O   UNL     1     112.505 128.072 139.113  0.00  0.00    +0.000 OA
ATOM      2  O   UNL     1     114.167 128.577 140.877  0.00  0.00    +0.000 OA
ATOM      3  O   UNL     1     114.252 127.155 140.045  0.00  0.00    +0.000 OA
ATOM      4  C   UNL     1     113.016 128.952 140.117  0.00  0.00    +0.000 C 
ATOM      5  C   UNL     1     113.613 128.409 140.289  0.00  0.00    +0.000 C 
ATOM      6  C   UNL     1     112.462 128.783 139.529  0.00  0.00    +0.000 C 
ATOM      7  C   UNL     1     113.656 127.697 139.873  0.00  0.00    +0.000 C 
ATOM      8  C   UNL     1     113.102 127.529 139.286  0.00  0.00    +0.000 C 
ENDROOT
BRANCH   6  13
ATOM      9  O   UNL     1     112.599 129.711 138.163  0.00  0.00    +0.000 OA
ATOM     10  O   UNL     1     111.163 128.930 140.536  0.00  0.00    +0.000 OA
ATOM     11  O   UNL     1     110.076 130.956 138.839  0.00  0.00    +0.000 OA
ATOM     12  O   UNL     1     110.763 131.375 137.643  0.00  0.00    +0.000 OA
ATOM     13  C   UNL     1     111.865 129.327 139.356  0.00  0.00    +0.000 A 
ATOM     14  C   UNL     1     111.918 129.796 138.680  0.00  0.00    +0.000 A 
ATOM     15  C   UNL     1     111.216 129.400 139.860  0.00  0.00    +0.000 A 
ATOM     16  C   UNL     1     111.321 130.340 138.508  0.00  0.00    +0.000 A 
ATOM     17  C   UNL     1     110.619 129.943 139.688  0.00  0.00    +0.000 A 
ATOM     18  C   UNL     1     110.673 130.413 139.012  0.00  0.00    +0.000 A 
ATOM     19  C   UNL     1     111.365 130.835 137.807  0.00  0.00    +0.000 A 
ATOM     20  C   UNL     1     112.659 130.197 137.458  0.00  0.00    +0.000 A 
ATOM     21  C   UNL     1     112.038 130.763 137.278  0.00  0.00    +0.000 A 
BRANCH  20  24
ATOM     22  O   UNL     1     113.908 128.987 135.189  0.00  0.00    +0.000 OA
ATOM     23  O   UNL     1     115.260 129.895 135.449  0.00  0.00    +0.000 OA
ATOM     24  C   UNL     1     113.310 130.122 136.956  0.00  0.00    +0.000 A 
ATOM     25  C   UNL     1     113.284 129.592 136.324  0.00  0.00    +0.000 A 
ATOM     26  C   UNL     1     113.986 130.576 137.085  0.00  0.00    +0.000 A 
ATOM     27  C   UNL     1     113.934 129.516 135.821  0.00  0.00    +0.000 A 
ATOM     28  C   UNL     1     114.636 130.500 136.583  0.00  0.00    +0.000 A 
ATOM     29  C   UNL     1     114.610 129.971 135.951  0.00  0.00    +0.000 A 
ENDBRANCH  20  24
ENDBRANCH   6  13
BRANCH   4  30
ATOM     30  O   UNL     1     112.974 129.663 140.532  0.00  0.00    +0.000 OA
BRANCH  30  35
ATOM     31  O   UNL     1     114.311 130.008 140.168  0.00  0.00    +0.000 OA
ATOM     32  O   UNL     1     113.027 130.758 141.766  0.00  0.00    +0.000 OA
ATOM     33  O   UNL     1     114.393 131.650 142.017  0.00  0.00    +0.000 OA
ATOM     34  O   UNL     1     115.704 131.447 141.035  0.00  0.00    +0.000 OA
ATOM     35  C   UNL     1     113.656 130.109 140.658  0.00  0.00    +0.000 C 
ATOM     36  C   UNL     1     113.683 130.657 141.274  0.00  0.00    +0.000 C 
ATOM     37  C   UNL     1     114.365 131.102 141.400  0.00  0.00    +0.000 C 
ATOM     38  C   UNL     1     115.021 131.001 140.909  0.00  0.00    +0.000 C 
ATOM     39  C   UNL     1     114.994 130.454 140.293  0.00  0.00    +0.000 C 
ENDBRANCH  30  35
ENDBRANCH   4  30
BRANCH   8  40
ATOM     40  C   UNL     1     113.145 126.817 138.870  0.00  0.00    +0.000 C 
BRANCH  40  41
ATOM     41  O   UNL     1     113.064 126.813 138.050  0.00  0.00    +0.000 OA
BRANCH  41  43
ATOM     42  O   UNL     1     113.433 125.477 137.703  0.00  0.00    +0.000 OA
ATOM     43  C   UNL     1     112.902 126.108 137.654  0.00  0.00    +0.000 C 
BRANCH  43  44
ATOM     44  C   UNL     1     112.212 126.032 137.209  0.00  0.00    +0.000 C 
ATOM     45  C   UNL     1     112.235 126.140 136.391  0.00  0.00    +0.000 C 
BRANCH  45  47
ATOM     46  O   UNL     1     109.472 125.838 134.612  0.00  0.00    +0.000 OA
ATOM     47  C   UNL     1     111.543 126.064 135.946  0.00  0.00    +0.000 A 
ATOM     48  C   UNL     1     111.186 126.734 135.623  0.00  0.00    +0.000 A 
ATOM     49  C   UNL     1     111.211 125.320 135.825  0.00  0.00    +0.000 A 
ATOM     50  C   UNL     1     110.495 126.659 135.178  0.00  0.00    +0.000 A 
ATOM     51  C   UNL     1     110.520 125.244 135.380  0.00  0.00    +0.000 A 
ATOM     52  C   UNL     1     110.162 125.913 135.057  0.00  0.00    +0.000 A 
BRANCH  50  53
ATOM     53  O   UNL     1     110.138 127.328 134.856  0.00  0.00    +0.000 OA
ATOM     54  C   UNL     1     109.934 127.962 135.343  0.00  0.00    +0.000 C 
ENDBRANCH  50  53
ENDBRANCH  45  47
ENDBRANCH  43  44
ENDBRANCH  41  43
ENDBRANCH  40  41
ENDBRANCH   8  40
TORSDOF 10
ENDMDL
MODEL 6
REMARK VINA RESULT:     -10.4      1.234      1.663
REMARK  Name = 44257950
REMARK  10 active torsions:
REMARK  status: ('A' for Active; 'I' for Inactive)
REMARK    1  A    between atoms: O_2  and  C_19
REMARK    2  A    between atoms: O_2  and  C_24
REMARK    3  A    between atoms: O_7  and  C_27
REMARK    4  A    between atoms: O_7  and  C_39
REMARK    5  A    between atoms: O_17  and  C_51
REMARK    6  A    between atoms: C_21  and  C_25
REMARK    7  A    between atoms: C_23  and  C_27
REMARK    8  A    between atoms: C_37  and  C_40
REMARK    9  A    between atoms: C_39  and  C_41
REMARK   10  A    between atoms: C_44  and  C_48
REMARK                            x       y       z     vdW  Elec       q    Type
REMARK                         _______ _______ _______ _____ _____    ______ ____
ROOT
ATOM      1  O   UNL     1     109.845 128.571 137.351  0.00  0.00    +0.000 OA
ATOM      2  O   UNL     1     108.882 130.753 136.687  0.00  0.00    +0.000 OA
ATOM      3  O   UNL     1     108.698 129.437 135.709  0.00  0.00    +0.000 OA
ATOM      4  C   UNL     1     109.616 129.956 137.620  0.00  0.00    +0.000 C 
ATOM      5  C   UNL     1     109.203 130.026 136.909  0.00  0.00    +0.000 C 
ATOM      6  C   UNL     1     109.937 129.229 137.840  0.00  0.00    +0.000 C 
ATOM      7  C   UNL     1     109.111 129.368 136.419  0.00  0.00    +0.000 C 
ATOM      8  C   UNL     1     109.432 128.641 136.640  0.00  0.00    +0.000 C 
ENDROOT
BRANCH   6  13
ATOM      9  O   UNL     1     111.590 129.142 137.796  0.00  0.00    +0.000 OA
ATOM     10  O   UNL     1     109.116 129.178 139.271  0.00  0.00    +0.000 OA
ATOM     11  O   UNL     1     111.589 128.950 140.683  0.00  0.00    +0.000 OA
ATOM     12  O   UNL     1     112.850 128.928 139.982  0.00  0.00    +0.000 OA
ATOM     13  C   UNL     1     110.351 129.159 138.552  0.00  0.00    +0.000 A 
ATOM     14  C   UNL     1     111.174 129.114 138.547  0.00  0.00    +0.000 A 
ATOM     15  C   UNL     1     109.939 129.134 139.267  0.00  0.00    +0.000 A 
ATOM     16  C   UNL     1     111.587 129.045 139.258  0.00  0.00    +0.000 A 
ATOM     17  C   UNL     1     110.352 129.064 139.977  0.00  0.00    +0.000 A 
ATOM     18  C   UNL     1     111.176 129.020 139.972  0.00  0.00    +0.000 A 
ATOM     19  C   UNL     1     112.445 128.998 139.266  0.00  0.00    +0.000 A 
ATOM     20  C   UNL     1     112.448 129.096 137.785  0.00  0.00    +0.000 A 
ATOM     21  C   UNL     1     112.878 129.023 138.525  0.00  0.00    +0.000 A 
BRANCH  20  24
ATOM     22  O   UNL     1     113.879 130.577 135.802  0.00  0.00    +0.000 OA
ATOM     23  O   UNL     1     114.081 129.199 134.918  0.00  0.00    +0.000 OA
ATOM     24  C   UNL     1     112.856 129.121 137.068  0.00  0.00    +0.000 A 
ATOM     25  C   UNL     1     113.163 129.836 136.794  0.00  0.00    +0.000 A 
ATOM     26  C   UNL     1     112.957 128.433 136.626  0.00  0.00    +0.000 A 
ATOM     27  C   UNL     1     113.572 129.862 136.077  0.00  0.00    +0.000 A 
ATOM     28  C   UNL     1     113.366 128.458 135.909  0.00  0.00    +0.000 A 
ATOM     29  C   UNL     1     113.673 129.173 135.635  0.00  0.00    +0.000 A 
ENDBRANCH  20  24
ENDBRANCH   6  13
BRANCH   4  30
ATOM     30  O   UNL     1     109.708 130.613 138.109  0.00  0.00    +0.000 OA
BRANCH  30  35
ATOM     31  O   UNL     1     110.332 131.346 137.053  0.00  0.00    +0.000 OA
ATOM     32  O   UNL     1     109.508 132.012 138.961  0.00  0.00    +0.000 OA
ATOM     33  O   UNL     1     110.033 133.444 138.330  0.00  0.00    +0.000 OA
ATOM     34  O   UNL     1     110.757 133.477 136.847  0.00  0.00    +0.000 OA
ATOM     35  C   UNL     1     109.970 131.330 137.794  0.00  0.00    +0.000 C 
ATOM     36  C   UNL     1     109.870 132.029 138.219  0.00  0.00    +0.000 C 
ATOM     37  C   UNL     1     110.132 132.744 137.904  0.00  0.00    +0.000 C 
ATOM     38  C   UNL     1     110.494 132.760 137.163  0.00  0.00    +0.000 C 
ATOM     39  C   UNL     1     110.595 132.061 136.737  0.00  0.00    +0.000 C 
ENDBRANCH  30  35
ENDBRANCH   4  30
BRANCH   8  40
ATOM     40  C   UNL     1     109.340 127.983 136.150  0.00  0.00    +0.000 C 
BRANCH  40  41
ATOM     41  O   UNL     1     109.480 127.227 136.445  0.00  0.00    +0.000 OA
BRANCH  41  43
ATOM     42  O   UNL     1     109.061 126.392 135.363  0.00  0.00    +0.000 OA
ATOM     43  C   UNL     1     109.627 126.602 135.926  0.00  0.00    +0.000 C 
BRANCH  43  44
ATOM     44  C   UNL     1     110.339 126.187 135.969  0.00  0.00    +0.000 C 
ATOM     45  C   UNL     1     110.419 125.561 136.501  0.00  0.00    +0.000 C 
BRANCH  45  47
ATOM     46  O   UNL     1     113.266 123.902 136.675  0.00  0.00    +0.000 OA
ATOM     47  C   UNL     1     111.132 125.146 136.545  0.00  0.00    +0.000 A 
ATOM     48  C   UNL     1     111.652 125.285 137.170  0.00  0.00    +0.000 A 
ATOM     49  C   UNL     1     111.323 124.594 135.963  0.00  0.00    +0.000 A 
ATOM     50  C   UNL     1     112.364 124.870 137.214  0.00  0.00    +0.000 A 
ATOM     51  C   UNL     1     112.035 124.179 136.007  0.00  0.00    +0.000 A 
ATOM     52  C   UNL     1     112.555 124.317 136.632  0.00  0.00    +0.000 A 
BRANCH  50  53
ATOM     53  O   UNL     1     112.883 125.008 137.838  0.00  0.00    +0.000 OA
ATOM     54  C   UNL     1     112.650 125.483 138.471  0.00  0.00    +0.000 C 
ENDBRANCH  50  53
ENDBRANCH  45  47
ENDBRANCH  43  44
ENDBRANCH  41  43
ENDBRANCH  40  41
ENDBRANCH   8  40
TORSDOF 10
ENDMDL
MODEL 7
REMARK VINA RESULT:     -10.2      1.932      3.631
REMARK  Name = 44257950
REMARK  10 active torsions:
REMARK  status: ('A' for Active; 'I' for Inactive)
REMARK    1  A    between atoms: O_2  and  C_19
REMARK    2  A    between atoms: O_2  and  C_24
REMARK    3  A    between atoms: O_7  and  C_27
REMARK    4  A    between atoms: O_7  and  C_39
REMARK    5  A    between atoms: O_17  and  C_51
REMARK    6  A    between atoms: C_21  and  C_25
REMARK    7  A    between atoms: C_23  and  C_27
REMARK    8  A    between atoms: C_37  and  C_40
REMARK    9  A    between atoms: C_39  and  C_41
REMARK   10  A    between atoms: C_44  and  C_48
REMARK                            x       y       z     vdW  Elec       q    Type
REMARK                         _______ _______ _______ _____ _____    ______ ____
ROOT
ATOM      1  O   UNL     1     111.580 128.490 137.440  0.00  0.00    +0.000 OA
ATOM      2  O   UNL     1     110.784 130.749 138.064  0.00  0.00    +0.000 OA
ATOM      3  O   UNL     1     112.141 130.578 137.141  0.00  0.00    +0.000 OA
ATOM      4  C   UNL     1     110.636 129.328 138.109  0.00  0.00    +0.000 C 
ATOM      5  C   UNL     1     111.049 129.996 137.856  0.00  0.00    +0.000 C 
ATOM      6  C   UNL     1     110.902 128.575 137.901  0.00  0.00    +0.000 C 
ATOM      7  C   UNL     1     111.728 129.911 137.394  0.00  0.00    +0.000 C 
ATOM      8  C   UNL     1     111.993 129.158 137.186  0.00  0.00    +0.000 C 
ENDROOT
BRANCH   6  13
ATOM      9  O   UNL     1     111.566 127.630 139.088  0.00  0.00    +0.000 OA
ATOM     10  O   UNL     1     109.442 128.202 137.226  0.00  0.00    +0.000 OA
ATOM     11  O   UNL     1     109.249 125.905 138.913  0.00  0.00    +0.000 OA
ATOM     12  O   UNL     1     110.290 125.583 139.859  0.00  0.00    +0.000 OA
ATOM     13  C   UNL     1     110.488 127.907 138.154  0.00  0.00    +0.000 A 
ATOM     14  C   UNL     1     110.805 127.426 138.744  0.00  0.00    +0.000 A 
ATOM     15  C   UNL     1     109.759 127.721 137.816  0.00  0.00    +0.000 A 
ATOM     16  C   UNL     1     110.391 126.758 138.997  0.00  0.00    +0.000 A 
ATOM     17  C   UNL     1     109.346 127.053 138.070  0.00  0.00    +0.000 A 
ATOM     18  C   UNL     1     109.663 126.572 138.660  0.00  0.00    +0.000 A 
ATOM     19  C   UNL     1     110.711 126.249 139.612  0.00  0.00    +0.000 A 
ATOM     20  C   UNL     1     111.900 127.133 139.703  0.00  0.00    +0.000 A 
ATOM     21  C   UNL     1     111.470 126.437 139.967  0.00  0.00    +0.000 A 
BRANCH  20  24
ATOM     22  O   UNL     1     113.472 128.746 141.463  0.00  0.00    +0.000 OA
ATOM     23  O   UNL     1     114.819 127.888 141.046  0.00  0.00    +0.000 OA
ATOM     24  C   UNL     1     112.630 127.321 140.039  0.00  0.00    +0.000 A 
ATOM     25  C   UNL     1     112.686 127.939 140.583  0.00  0.00    +0.000 A 
ATOM     26  C   UNL     1     113.303 126.893 139.831  0.00  0.00    +0.000 A 
ATOM     27  C   UNL     1     113.416 128.128 140.919  0.00  0.00    +0.000 A 
ATOM     28  C   UNL     1     114.033 127.081 140.167  0.00  0.00    +0.000 A 
ATOM     29  C   UNL     1     114.089 127.699 140.711  0.00  0.00    +0.000 A 
ENDBRANCH  20  24
ENDBRANCH   6  13
BRANCH   4  30
ATOM     30  O   UNL     1     109.958 129.413 138.570  0.00  0.00    +0.000 OA
BRANCH  30  35
ATOM     31  O   UNL     1     110.669 130.079 139.616  0.00  0.00    +0.000 OA
ATOM     32  O   UNL     1     108.552 130.112 139.081  0.00  0.00    +0.000 OA
ATOM     33  O   UNL     1     108.562 131.126 140.383  0.00  0.00    +0.000 OA
ATOM     34  O   UNL     1     109.976 131.442 141.173  0.00  0.00    +0.000 OA
ATOM     35  C   UNL     1     109.962 129.921 139.221  0.00  0.00    +0.000 C 
ATOM     36  C   UNL     1     109.260 130.270 139.477  0.00  0.00    +0.000 C 
ATOM     37  C   UNL     1     109.264 130.777 140.127  0.00  0.00    +0.000 C 
ATOM     38  C   UNL     1     109.971 130.935 140.522  0.00  0.00    +0.000 C 
ATOM     39  C   UNL     1     110.674 130.586 140.267  0.00  0.00    +0.000 C 
ENDBRANCH  30  35
ENDBRANCH   4  30
BRANCH   8  40
ATOM     40  C   UNL     1     112.672 129.073 136.725  0.00  0.00    +0.000 C 
BRANCH  40  41
ATOM     41  O   UNL     1     112.749 128.427 136.219  0.00  0.00    +0.000 OA
BRANCH  41  43
ATOM     42  O   UNL     1     114.037 128.471 135.603  0.00  0.00    +0.000 OA
ATOM     43  C   UNL     1     113.490 128.089 136.089  0.00  0.00    +0.000 C 
BRANCH  43  44
ATOM     44  C   UNL     1     113.685 127.371 136.445  0.00  0.00    +0.000 C 
ATOM     45  C   UNL     1     113.548 126.662 136.045  0.00  0.00    +0.000 C 
BRANCH  45  47
ATOM     46  O   UNL     1     114.327 123.789 137.468  0.00  0.00    +0.000 OA
ATOM     47  C   UNL     1     113.743 125.943 136.401  0.00  0.00    +0.000 A 
ATOM     48  C   UNL     1     113.146 125.417 136.620  0.00  0.00    +0.000 A 
ATOM     49  C   UNL     1     114.533 125.751 136.537  0.00  0.00    +0.000 A 
ATOM     50  C   UNL     1     113.341 124.698 136.976  0.00  0.00    +0.000 A 
ATOM     51  C   UNL     1     114.728 125.033 136.893  0.00  0.00    +0.000 A 
ATOM     52  C   UNL     1     114.132 124.507 137.112  0.00  0.00    +0.000 A 
BRANCH  50  53
ATOM     53  O   UNL     1     112.746 124.172 137.196  0.00  0.00    +0.000 OA
ATOM     54  C   UNL     1     112.012 124.200 136.820  0.00  0.00    +0.000 C 
ENDBRANCH  50  53
ENDBRANCH  45  47
ENDBRANCH  43  44
ENDBRANCH  41  43
ENDBRANCH  40  41
ENDBRANCH   8  40
TORSDOF 10
ENDMDL
MODEL 8
REMARK VINA RESULT:     -10.2      1.611      3.512
REMARK  Name = 44257950
REMARK  10 active torsions:
REMARK  status: ('A' for Active; 'I' for Inactive)
REMARK    1  A    between atoms: O_2  and  C_19
REMARK    2  A    between atoms: O_2  and  C_24
REMARK    3  A    between atoms: O_7  and  C_27
REMARK    4  A    between atoms: O_7  and  C_39
REMARK    5  A    between atoms: O_17  and  C_51
REMARK    6  A    between atoms: C_21  and  C_25
REMARK    7  A    between atoms: C_23  and  C_27
REMARK    8  A    between atoms: C_37  and  C_40
REMARK    9  A    between atoms: C_39  and  C_41
REMARK   10  A    between atoms: C_44  and  C_48
REMARK                            x       y       z     vdW  Elec       q    Type
REMARK                         _______ _______ _______ _____ _____    ______ ____
ROOT
ATOM      1  O   UNL     1     111.909 128.997 136.280  0.00  0.00    +0.000 OA
ATOM      2  O   UNL     1     111.848 131.351 137.043  0.00  0.00    +0.000 OA
ATOM      3  O   UNL     1     113.296 130.606 136.781  0.00  0.00    +0.000 OA
ATOM      4  C   UNL     1     111.164 130.154 136.666  0.00  0.00    +0.000 C 
ATOM      5  C   UNL     1     111.868 130.566 136.789  0.00  0.00    +0.000 C 
ATOM      6  C   UNL     1     111.185 129.369 136.412  0.00  0.00    +0.000 C 
ATOM      7  C   UNL     1     112.593 130.194 136.658  0.00  0.00    +0.000 C 
ATOM      8  C   UNL     1     112.613 129.409 136.403  0.00  0.00    +0.000 C 
ENDROOT
BRANCH   6  13
ATOM      9  O   UNL     1     110.736 128.213 137.510  0.00  0.00    +0.000 OA
ATOM     10  O   UNL     1     110.253 129.702 135.091  0.00  0.00    +0.000 OA
ATOM     11  O   UNL     1     108.369 127.720 135.919  0.00  0.00    +0.000 OA
ATOM     12  O   UNL     1     108.574 126.953 137.124  0.00  0.00    +0.000 OA
ATOM     13  C   UNL     1     110.480 128.956 136.288  0.00  0.00    +0.000 A 
ATOM     14  C   UNL     1     110.242 128.378 136.825  0.00  0.00    +0.000 A 
ATOM     15  C   UNL     1     110.015 129.124 135.628  0.00  0.00    +0.000 A 
ATOM     16  C   UNL     1     109.538 127.966 136.702  0.00  0.00    +0.000 A 
ATOM     17  C   UNL     1     109.311 128.711 135.505  0.00  0.00    +0.000 A 
ATOM     18  C   UNL     1     109.073 128.132 136.042  0.00  0.00    +0.000 A 
ATOM     19  C   UNL     1     109.279 127.360 137.255  0.00  0.00    +0.000 A 
ATOM     20  C   UNL     1     110.493 127.612 138.073  0.00  0.00    +0.000 A 
ATOM     21  C   UNL     1     109.760 127.183 137.945  0.00  0.00    +0.000 A 
BRANCH  20  24
ATOM     22  O   UNL     1     111.319 128.232 140.738  0.00  0.00    +0.000 OA
ATOM     23  O   UNL     1     112.363 126.954 140.711  0.00  0.00    +0.000 OA
ATOM     24  C   UNL     1     110.960 127.447 138.732  0.00  0.00    +0.000 A 
ATOM     25  C   UNL     1     110.906 127.921 139.405  0.00  0.00    +0.000 A 
ATOM     26  C   UNL     1     111.482 126.809 138.720  0.00  0.00    +0.000 A 
ATOM     27  C   UNL     1     111.373 127.757 140.065  0.00  0.00    +0.000 A 
ATOM     28  C   UNL     1     111.950 126.644 139.379  0.00  0.00    +0.000 A 
ATOM     29  C   UNL     1     111.895 127.119 140.052  0.00  0.00    +0.000 A 
ENDBRANCH  20  24
ENDBRANCH   6  13
BRANCH   4  30
ATOM     30  O   UNL     1     110.440 130.526 136.797  0.00  0.00    +0.000 OA
BRANCH  30  35
ATOM     31  O   UNL     1     110.738 130.788 138.170  0.00  0.00    +0.000 OA
ATOM     32  O   UNL     1     109.377 131.789 136.787  0.00  0.00    +0.000 OA
ATOM     33  O   UNL     1     109.144 132.681 138.156  0.00  0.00    +0.000 OA
ATOM     34  O   UNL     1     109.974 132.312 139.533  0.00  0.00    +0.000 OA
ATOM     35  C   UNL     1     110.323 130.973 137.481  0.00  0.00    +0.000 C 
ATOM     36  C   UNL     1     109.792 131.604 137.476  0.00  0.00    +0.000 C 
ATOM     37  C   UNL     1     109.675 132.050 138.160  0.00  0.00    +0.000 C 
ATOM     38  C   UNL     1     110.090 131.865 138.849  0.00  0.00    +0.000 C 
ATOM     39  C   UNL     1     110.622 131.234 138.854  0.00  0.00    +0.000 C 
ENDBRANCH  30  35
ENDBRANCH   4  30
BRANCH   8  40
ATOM     40  C   UNL     1     113.338 129.037 136.272  0.00  0.00    +0.000 C 
BRANCH  40  41
ATOM     41  O   UNL     1     113.362 128.299 135.905  0.00  0.00    +0.000 OA
BRANCH  41  43
ATOM     42  O   UNL     1     114.741 128.072 135.611  0.00  0.00    +0.000 OA
ATOM     43  C   UNL     1     114.037 127.830 135.966  0.00  0.00    +0.000 C 
BRANCH  43  44
ATOM     44  C   UNL     1     114.009 127.118 136.383  0.00  0.00    +0.000 C 
ATOM     45  C   UNL     1     114.060 126.401 135.977  0.00  0.00    +0.000 C 
BRANCH  45  47
ATOM     46  O   UNL     1     113.946 123.554 137.642  0.00  0.00    +0.000 OA
ATOM     47  C   UNL     1     114.031 125.688 136.394  0.00  0.00    +0.000 A 
ATOM     48  C   UNL     1     113.411 125.160 136.265  0.00  0.00    +0.000 A 
ATOM     49  C   UNL     1     114.623 125.506 136.939  0.00  0.00    +0.000 A 
ATOM     50  C   UNL     1     113.383 124.448 136.681  0.00  0.00    +0.000 A 
ATOM     51  C   UNL     1     114.594 124.794 137.355  0.00  0.00    +0.000 A 
ATOM     52  C   UNL     1     113.975 124.266 137.226  0.00  0.00    +0.000 A 
BRANCH  50  53
ATOM     53  O   UNL     1     112.763 123.920 136.552  0.00  0.00    +0.000 OA
ATOM     54  C   UNL     1     112.024 124.201 136.317  0.00  0.00    +0.000 C 
ENDBRANCH  50  53
ENDBRANCH  45  47
ENDBRANCH  43  44
ENDBRANCH  41  43
ENDBRANCH  40  41
ENDBRANCH   8  40
TORSDOF 10
ENDMDL
MODEL 9
REMARK VINA RESULT:     -10.1      2.208      5.302
REMARK  Name = 44257950
REMARK  10 active torsions:
REMARK  status: ('A' for Active; 'I' for Inactive)
REMARK    1  A    between atoms: O_2  and  C_19
REMARK    2  A    between atoms: O_2  and  C_24
REMARK    3  A    between atoms: O_7  and  C_27
REMARK    4  A    between atoms: O_7  and  C_39
REMARK    5  A    between atoms: O_17  and  C_51
REMARK    6  A    between atoms: C_21  and  C_25
REMARK    7  A    between atoms: C_23  and  C_27
REMARK    8  A    between atoms: C_37  and  C_40
REMARK    9  A    between atoms: C_39  and  C_41
REMARK   10  A    between atoms: C_44  and  C_48
REMARK                            x       y       z     vdW  Elec       q    Type
REMARK                         _______ _______ _______ _____ _____    ______ ____
ROOT
ATOM      1  O   UNL     1     112.871 127.857 139.163  0.00  0.00    +0.000 OA
ATOM      2  O   UNL     1     113.787 128.629 141.328  0.00  0.00    +0.000 OA
ATOM      3  O   UNL     1     114.291 127.197 140.683  0.00  0.00    +0.000 OA
ATOM      4  C   UNL     1     112.924 128.831 140.207  0.00  0.00    +0.000 C 
ATOM      5  C   UNL     1     113.482 128.372 140.606  0.00  0.00    +0.000 C 
ATOM      6  C   UNL     1     112.619 128.573 139.485  0.00  0.00    +0.000 C 
ATOM      7  C   UNL     1     113.734 127.655 140.284  0.00  0.00    +0.000 C 
ATOM      8  C   UNL     1     113.428 127.398 139.562  0.00  0.00    +0.000 C 
ENDROOT
BRANCH   6  13
ATOM      9  O   UNL     1     111.040 128.072 139.467  0.00  0.00    +0.000 OA
ATOM     10  O   UNL     1     113.084 129.961 138.724  0.00  0.00    +0.000 OA
ATOM     11  O   UNL     1     110.389 130.408 137.888  0.00  0.00    +0.000 OA
ATOM     12  O   UNL     1     109.337 129.486 138.239  0.00  0.00    +0.000 OA
ATOM     13  C   UNL     1     112.061 129.032 139.085  0.00  0.00    +0.000 A 
ATOM     14  C   UNL     1     111.271 128.797 139.067  0.00  0.00    +0.000 A 
ATOM     15  C   UNL     1     112.295 129.726 138.705  0.00  0.00    +0.000 A 
ATOM     16  C   UNL     1     110.713 129.256 138.667  0.00  0.00    +0.000 A 
ATOM     17  C   UNL     1     111.737 130.185 138.306  0.00  0.00    +0.000 A 
ATOM     18  C   UNL     1     110.947 129.949 138.287  0.00  0.00    +0.000 A 
ATOM     19  C   UNL     1     109.887 129.021 138.641  0.00  0.00    +0.000 A 
ATOM     20  C   UNL     1     110.219 127.822 139.451  0.00  0.00    +0.000 A 
ATOM     21  C   UNL     1     109.638 128.300 139.035  0.00  0.00    +0.000 A 
BRANCH  20  24
ATOM     22  O   UNL     1     109.333 126.470 141.809  0.00  0.00    +0.000 OA
ATOM     23  O   UNL     1     109.297 125.045 140.977  0.00  0.00    +0.000 OA
ATOM     24  C   UNL     1     109.988 127.128 139.832  0.00  0.00    +0.000 A 
ATOM     25  C   UNL     1     109.776 127.146 140.629  0.00  0.00    +0.000 A 
ATOM     26  C   UNL     1     109.970 126.415 139.418  0.00  0.00    +0.000 A 
ATOM     27  C   UNL     1     109.545 126.452 141.012  0.00  0.00    +0.000 A 
ATOM     28  C   UNL     1     109.740 125.721 139.799  0.00  0.00    +0.000 A 
ATOM     29  C   UNL     1     109.527 125.739 140.596  0.00  0.00    +0.000 A 
ENDBRANCH  20  24
ENDBRANCH   6  13
BRANCH   4  30
ATOM     30  O   UNL     1     112.672 129.547 140.529  0.00  0.00    +0.000 OA
BRANCH  30  35
ATOM     31  O   UNL     1     112.174 128.914 141.709  0.00  0.00    +0.000 OA
ATOM     32  O   UNL     1     112.789 130.977 141.346  0.00  0.00    +0.000 OA
ATOM     33  O   UNL     1     112.348 131.057 142.934  0.00  0.00    +0.000 OA
ATOM     34  O   UNL     1     111.791 129.708 143.705  0.00  0.00    +0.000 OA
ATOM     35  C   UNL     1     112.452 129.588 141.324  0.00  0.00    +0.000 C 
ATOM     36  C   UNL     1     112.510 130.302 141.732  0.00  0.00    +0.000 C 
ATOM     37  C   UNL     1     112.290 130.342 142.525  0.00  0.00    +0.000 C 
ATOM     38  C   UNL     1     112.012 129.668 142.911  0.00  0.00    +0.000 C 
ATOM     39  C   UNL     1     111.953 128.953 142.503  0.00  0.00    +0.000 C 
ENDBRANCH  30  35
ENDBRANCH   4  30
BRANCH   8  40
ATOM     40  C   UNL     1     113.680 126.681 139.240  0.00  0.00    +0.000 C 
BRANCH  40  41
ATOM     41  O   UNL     1     113.773 126.606 138.424  0.00  0.00    +0.000 OA
BRANCH  41  43
ATOM     42  O   UNL     1     114.211 125.288 138.091  0.00  0.00    +0.000 OA
ATOM     43  C   UNL     1     113.636 125.879 138.058  0.00  0.00    +0.000 C 
BRANCH  43  44
ATOM     44  C   UNL     1     112.927 125.744 137.661  0.00  0.00    +0.000 C 
ATOM     45  C   UNL     1     112.892 125.825 136.840  0.00  0.00    +0.000 C 
BRANCH  45  47
ATOM     46  O   UNL     1     110.052 125.283 135.249  0.00  0.00    +0.000 OA
ATOM     47  C   UNL     1     112.181 125.690 136.442  0.00  0.00    +0.000 A 
ATOM     48  C   UNL     1     111.719 126.327 136.195  0.00  0.00    +0.000 A 
ATOM     49  C   UNL     1     111.934 124.918 136.291  0.00  0.00    +0.000 A 
ATOM     50  C   UNL     1     111.009 126.191 135.798  0.00  0.00    +0.000 A 
ATOM     51  C   UNL     1     111.224 124.782 135.894  0.00  0.00    +0.000 A 
ATOM     52  C   UNL     1     110.762 125.418 135.647  0.00  0.00    +0.000 A 
BRANCH  50  53
ATOM     53  O   UNL     1     110.546 126.828 135.551  0.00  0.00    +0.000 OA
ATOM     54  C   UNL     1     110.900 127.555 135.388  0.00  0.00    +0.000 C 
ENDBRANCH  50  53
ENDBRANCH  45  47
ENDBRANCH  43  44
ENDBRANCH  41  43
ENDBRANCH  40  41
ENDBRANCH   8  40
TORSDOF 10
ENDMDL
MODEL 10
REMARK VINA RESULT:     -10.1      1.409      3.112
REMARK  Name = 44257950
REMARK  10 active torsions:
REMARK  status: ('A' for Active; 'I' for Inactive)
REMARK    1  A    between atoms: O_2  and  C_19
REMARK    2  A    between atoms: O_2  and  C_24
REMARK    3  A    between atoms: O_7  and  C_27
REMARK    4  A    between atoms: O_7  and  C_39
REMARK    5  A    between atoms: O_17  and  C_51
REMARK    6  A    between atoms: C_21  and  C_25
REMARK    7  A    between atoms: C_23  and  C_27
REMARK    8  A    between atoms: C_37  and  C_40
REMARK    9  A    between atoms: C_39  and  C_41
REMARK   10  A    between atoms: C_44  and  C_48
REMARK                            x       y       z     vdW  Elec       q    Type
REMARK                         _______ _______ _______ _____ _____    ______ ____
ROOT
ATOM      1  O   UNL     1     111.932 128.869 138.637  0.00  0.00    +0.000 OA
ATOM      2  O   UNL     1     109.913 130.106 139.359  0.00  0.00    +0.000 OA
ATOM      3  O   UNL     1     110.125 128.534 139.813  0.00  0.00    +0.000 OA
ATOM      4  C   UNL     1     111.154 130.067 138.650  0.00  0.00    +0.000 C 
ATOM      5  C   UNL     1     110.586 129.694 139.118  0.00  0.00    +0.000 C 
ATOM      6  C   UNL     1     111.826 129.654 138.409  0.00  0.00    +0.000 C 
ATOM      7  C   UNL     1     110.691 128.907 139.346  0.00  0.00    +0.000 C 
ATOM      8  C   UNL     1     111.364 128.495 139.105  0.00  0.00    +0.000 C 
ENDROOT
BRANCH   6  13
ATOM      9  O   UNL     1     111.890 129.293 136.794  0.00  0.00    +0.000 OA
ATOM     10  O   UNL     1     112.871 130.739 139.085  0.00  0.00    +0.000 OA
ATOM     11  O   UNL     1     114.096 131.148 136.537  0.00  0.00    +0.000 OA
ATOM     12  O   UNL     1     113.635 130.444 135.365  0.00  0.00    +0.000 OA
ATOM     13  C   UNL     1     112.394 130.028 137.941  0.00  0.00    +0.000 A 
ATOM     14  C   UNL     1     112.440 129.860 137.135  0.00  0.00    +0.000 A 
ATOM     15  C   UNL     1     112.916 130.570 138.280  0.00  0.00    +0.000 A 
ATOM     16  C   UNL     1     113.007 130.233 136.667  0.00  0.00    +0.000 A 
ATOM     17  C   UNL     1     113.484 130.943 137.811  0.00  0.00    +0.000 A 
ATOM     18  C   UNL     1     113.529 130.775 137.005  0.00  0.00    +0.000 A 
ATOM     19  C   UNL     1     113.064 130.066 135.825  0.00  0.00    +0.000 A 
ATOM     20  C   UNL     1     111.933 129.114 135.955  0.00  0.00    +0.000 A 
ATOM     21  C   UNL     1     112.523 129.502 135.468  0.00  0.00    +0.000 A 
BRANCH  20  24
ATOM     22  O   UNL     1     111.259 126.421 135.273  0.00  0.00    +0.000 OA
ATOM     23  O   UNL     1     109.840 126.943 134.613  0.00  0.00    +0.000 OA
ATOM     24  C   UNL     1     111.409 128.571 135.620  0.00  0.00    +0.000 A 
ATOM     25  C   UNL     1     111.596 127.768 135.614  0.00  0.00    +0.000 A 
ATOM     26  C   UNL     1     110.700 128.832 135.290  0.00  0.00    +0.000 A 
ATOM     27  C   UNL     1     111.073 127.224 135.278  0.00  0.00    +0.000 A 
ATOM     28  C   UNL     1     110.176 128.289 134.954  0.00  0.00    +0.000 A 
ATOM     29  C   UNL     1     110.363 127.486 134.948  0.00  0.00    +0.000 A 
ENDBRANCH  20  24
ENDBRANCH   6  13
BRANCH   4  30
ATOM     30  O   UNL     1     111.048 130.853 138.422  0.00  0.00    +0.000 OA
BRANCH  30  35
ATOM     31  O   UNL     1     109.810 130.583 137.764  0.00  0.00    +0.000 OA
ATOM     32  O   UNL     1     110.583 132.419 138.655  0.00  0.00    +0.000 OA
ATOM     33  O   UNL     1     109.111 132.931 138.111  0.00  0.00    +0.000 OA
ATOM     34  O   UNL     1     108.105 131.877 137.336  0.00  0.00    +0.000 OA
ATOM     35  C   UNL     1     110.313 131.109 138.151  0.00  0.00    +0.000 C 
ATOM     36  C   UNL     1     110.080 131.892 138.267  0.00  0.00    +0.000 C 
ATOM     37  C   UNL     1     109.344 132.148 137.995  0.00  0.00    +0.000 C 
ATOM     38  C   UNL     1     108.842 131.621 137.608  0.00  0.00    +0.000 C 
ATOM     39  C   UNL     1     109.074 130.838 137.492  0.00  0.00    +0.000 C 
ENDBRANCH  30  35
ENDBRANCH   4  30
BRANCH   8  40
ATOM     40  C   UNL     1     111.469 127.709 139.333  0.00  0.00    +0.000 C 
BRANCH  40  41
ATOM     41  O   UNL     1     112.230 127.403 139.419  0.00  0.00    +0.000 OA
BRANCH  41  43
ATOM     42  O   UNL     1     112.193 126.059 139.904  0.00  0.00    +0.000 OA
ATOM     43  C   UNL     1     112.366 126.598 139.302  0.00  0.00    +0.000 C 
BRANCH  43  44
ATOM     44  C   UNL     1     112.676 126.331 138.586  0.00  0.00    +0.000 C 
ATOM     45  C   UNL     1     113.188 125.683 138.573  0.00  0.00    +0.000 C 
BRANCH  45  47
ATOM     46  O   UNL     1     114.425 124.615 135.707  0.00  0.00    +0.000 OA
ATOM     47  C   UNL     1     113.497 125.416 137.856  0.00  0.00    +0.000 A 
ATOM     48  C   UNL     1     113.188 124.739 137.500  0.00  0.00    +0.000 A 
ATOM     49  C   UNL     1     114.116 125.826 137.496  0.00  0.00    +0.000 A 
ATOM     50  C   UNL     1     113.497 124.472 136.783  0.00  0.00    +0.000 A 
ATOM     51  C   UNL     1     114.425 125.559 136.779  0.00  0.00    +0.000 A 
ATOM     52  C   UNL     1     114.116 124.882 136.423  0.00  0.00    +0.000 A 
BRANCH  50  53
ATOM     53  O   UNL     1     113.188 123.796 136.427  0.00  0.00    +0.000 OA
ATOM     54  C   UNL     1     112.548 123.405 136.772  0.00  0.00    +0.000 C 
ENDBRANCH  50  53
ENDBRANCH  45  47
ENDBRANCH  43  44
ENDBRANCH  41  43
ENDBRANCH  40  41
ENDBRANCH   8  40
TORSDOF 10
ENDMDL
