MODEL 1
REMARK VINA RESULT:      -8.9      0.000      0.000
REMARK  Name = 12146897
REMARK  2 active torsions:
REMARK  status: ('A' for Active; 'I' for Inactive)
REMARK    1  A    between atoms: O_7  and  C_21
REMARK    2  A    between atoms: C_11  and  C_12
REMARK                            x       y       z     vdW  Elec       q    Type
REMARK                         _______ _______ _______ _____ _____    ______ ____
ROOT
ATOM      1  O   UNL     1     105.006 124.199 146.782  0.00  0.00    +0.000 OA
ATOM      2  O   UNL     1     102.252 124.913 147.315  0.00  0.00    +0.000 OA
ATOM      3  O   UNL     1     104.459 122.991 145.791  0.00  0.00    +0.000 OA
ATOM      4  O   UNL     1     101.742 123.700 146.320  0.00  0.00    +0.000 OA
ATOM      5  O   UNL     1     102.845 122.739 145.558  0.00  0.00    +0.000 OA
ATOM      6  O   UNL     1     103.306 125.669 147.948  0.00  0.00    +0.000 OA
ATOM      7  C   UNL     1     103.611 124.558 147.050  0.00  0.00    +0.000 A 
ATOM      8  C   UNL     1     104.163 124.078 146.669  0.00  0.00    +0.000 A 
ATOM      9  C   UNL     1     105.278 124.829 147.299  0.00  0.00    +0.000 A 
ATOM     10  C   UNL     1     103.865 125.194 147.571  0.00  0.00    +0.000 A 
ATOM     11  C   UNL     1     102.804 124.433 146.934  0.00  0.00    +0.000 A 
ATOM     12  C   UNL     1     103.908 123.472 146.172  0.00  0.00    +0.000 A 
ATOM     13  C   UNL     1     104.704 125.330 147.696  0.00  0.00    +0.000 A 
ATOM     14  C   UNL     1     102.550 123.826 146.437  0.00  0.00    +0.000 A 
ATOM     15  C   UNL     1     103.101 123.346 146.055  0.00  0.00    +0.000 A 
ENDROOT
BRANCH   9  17
ATOM     16  O   UNL     1     108.509 125.324 147.758  0.00  0.00    +0.000 OA
ATOM     17  C   UNL     1     106.086 124.953 147.414  0.00  0.00    +0.000 A 
ATOM     18  C   UNL     1     106.463 124.630 148.072  0.00  0.00    +0.000 A 
ATOM     19  C   UNL     1     106.516 125.400 146.869  0.00  0.00    +0.000 A 
ATOM     20  C   UNL     1     107.270 124.754 148.187  0.00  0.00    +0.000 A 
ATOM     21  C   UNL     1     107.324 125.523 146.985  0.00  0.00    +0.000 A 
ATOM     22  C   UNL     1     107.701 125.200 147.644  0.00  0.00    +0.000 A 
BRANCH  20  23
ATOM     23  O   UNL     1     107.648 124.431 148.846  0.00  0.00    +0.000 OA
ATOM     24  C   UNL     1     107.204 124.180 149.495  0.00  0.00    +0.000 C 
ENDBRANCH  20  23
ENDBRANCH   9  17
TORSDOF 2
ENDMDL
MODEL 2
REMARK VINA RESULT:      -8.8      1.037      4.472
REMARK  Name = 12146897
REMARK  2 active torsions:
REMARK  status: ('A' for Active; 'I' for Inactive)
REMARK    1  A    between atoms: O_7  and  C_21
REMARK    2  A    between atoms: C_11  and  C_12
REMARK                            x       y       z     vdW  Elec       q    Type
REMARK                         _______ _______ _______ _____ _____    ______ ____
ROOT
ATOM      1  O   UNL     1     104.968 124.254 147.101  0.00  0.00    +0.000 OA
ATOM      2  O   UNL     1     107.156 125.709 145.888  0.00  0.00    +0.000 OA
ATOM      3  O   UNL     1     105.806 124.265 148.530  0.00  0.00    +0.000 OA
ATOM      4  O   UNL     1     107.963 125.703 147.327  0.00  0.00    +0.000 OA
ATOM      5  O   UNL     1     107.288 124.980 148.648  0.00  0.00    +0.000 OA
ATOM      6  O   UNL     1     106.012 125.364 145.079  0.00  0.00    +0.000 OA
ATOM      7  C   UNL     1     106.077 124.991 146.490  0.00  0.00    +0.000 A 
ATOM      8  C   UNL     1     105.740 124.630 147.150  0.00  0.00    +0.000 A 
ATOM      9  C   UNL     1     104.543 124.254 146.355  0.00  0.00    +0.000 A 
ATOM     10  C   UNL     1     105.667 125.001 145.734  0.00  0.00    +0.000 A 
ATOM     11  C   UNL     1     106.818 125.348 146.548  0.00  0.00    +0.000 A 
ATOM     12  C   UNL     1     106.143 124.626 147.869  0.00  0.00    +0.000 A 
ATOM     13  C   UNL     1     104.895 124.630 145.667  0.00  0.00    +0.000 A 
ATOM     14  C   UNL     1     107.221 125.345 147.268  0.00  0.00    +0.000 A 
ATOM     15  C   UNL     1     106.884 124.983 147.928  0.00  0.00    +0.000 A 
ENDROOT
BRANCH   9  17
ATOM     16  O   UNL     1     101.579 122.821 146.130  0.00  0.00    +0.000 OA
ATOM     17  C   UNL     1     103.802 123.896 146.298  0.00  0.00    +0.000 A 
ATOM     18  C   UNL     1     103.134 124.282 146.589  0.00  0.00    +0.000 A 
ATOM     19  C   UNL     1     103.730 123.151 145.951  0.00  0.00    +0.000 A 
ATOM     20  C   UNL     1     102.393 123.924 146.533  0.00  0.00    +0.000 A 
ATOM     21  C   UNL     1     102.988 122.793 145.896  0.00  0.00    +0.000 A 
ATOM     22  C   UNL     1     102.320 123.179 146.186  0.00  0.00    +0.000 A 
BRANCH  20  23
ATOM     23  O   UNL     1     101.725 124.311 146.824  0.00  0.00    +0.000 OA
ATOM     24  C   UNL     1     101.769 124.739 147.528  0.00  0.00    +0.000 C 
ENDBRANCH  20  23
ENDBRANCH   9  17
TORSDOF 2
ENDMDL
MODEL 3
REMARK VINA RESULT:      -8.8      2.674      3.091
REMARK  Name = 12146897
REMARK  2 active torsions:
REMARK  status: ('A' for Active; 'I' for Inactive)
REMARK    1  A    between atoms: O_7  and  C_21
REMARK    2  A    between atoms: C_11  and  C_12
REMARK                            x       y       z     vdW  Elec       q    Type
REMARK                         _______ _______ _______ _____ _____    ______ ____
ROOT
ATOM      1  O   UNL     1     106.616 125.133 146.195  0.00  0.00    +0.000 OA
ATOM      2  O   UNL     1     105.940 127.525 144.711  0.00  0.00    +0.000 OA
ATOM      3  O   UNL     1     106.146 124.236 144.885  0.00  0.00    +0.000 OA
ATOM      4  O   UNL     1     105.481 126.601 143.424  0.00  0.00    +0.000 OA
ATOM      5  O   UNL     1     105.584 124.956 143.511  0.00  0.00    +0.000 OA
ATOM      6  O   UNL     1     106.454 127.656 146.052  0.00  0.00    +0.000 OA
ATOM      7  C   UNL     1     106.273 126.342 145.441  0.00  0.00    +0.000 A 
ATOM      8  C   UNL     1     106.325 125.520 145.484  0.00  0.00    +0.000 A 
ATOM      9  C   UNL     1     106.857 125.610 146.868  0.00  0.00    +0.000 A 
ATOM     10  C   UNL     1     106.509 126.835 146.105  0.00  0.00    +0.000 A 
ATOM     11  C   UNL     1     105.992 126.703 144.754  0.00  0.00    +0.000 A 
ATOM     12  C   UNL     1     106.095 125.058 144.841  0.00  0.00    +0.000 A 
ATOM     13  C   UNL     1     106.803 126.466 146.823  0.00  0.00    +0.000 A 
ATOM     14  C   UNL     1     105.762 126.240 144.111  0.00  0.00    +0.000 A 
ATOM     15  C   UNL     1     105.814 125.418 144.155  0.00  0.00    +0.000 A 
ENDROOT
BRANCH   9  17
ATOM     16  O   UNL     1     107.979 124.159 149.612  0.00  0.00    +0.000 OA
ATOM     17  C   UNL     1     107.137 125.247 147.554  0.00  0.00    +0.000 A 
ATOM     18  C   UNL     1     106.606 124.941 148.106  0.00  0.00    +0.000 A 
ATOM     19  C   UNL     1     107.950 125.191 147.688  0.00  0.00    +0.000 A 
ATOM     20  C   UNL     1     106.887 124.578 148.791  0.00  0.00    +0.000 A 
ATOM     21  C   UNL     1     108.230 124.828 148.374  0.00  0.00    +0.000 A 
ATOM     22  C   UNL     1     107.699 124.521 148.926  0.00  0.00    +0.000 A 
BRANCH  20  23
ATOM     23  O   UNL     1     106.356 124.272 149.343  0.00  0.00    +0.000 OA
ATOM     24  C   UNL     1     105.641 124.659 149.488  0.00  0.00    +0.000 C 
ENDBRANCH  20  23
ENDBRANCH   9  17
TORSDOF 2
ENDMDL
MODEL 4
REMARK VINA RESULT:      -8.6      8.274      9.282
REMARK  Name = 12146897
REMARK  2 active torsions:
REMARK  status: ('A' for Active; 'I' for Inactive)
REMARK    1  A    between atoms: O_7  and  C_21
REMARK    2  A    between atoms: C_11  and  C_12
REMARK                            x       y       z     vdW  Elec       q    Type
REMARK                         _______ _______ _______ _____ _____    ______ ____
ROOT
ATOM      1  O   UNL     1     102.953 130.471 142.096  0.00  0.00    +0.000 OA
ATOM      2  O   UNL     1     103.609 128.294 140.305  0.00  0.00    +0.000 OA
ATOM      3  O   UNL     1     104.019 129.837 143.193  0.00  0.00    +0.000 OA
ATOM      4  O   UNL     1     104.663 127.689 141.421  0.00  0.00    +0.000 OA
ATOM      5  O   UNL     1     104.868 128.461 142.865  0.00  0.00    +0.000 OA
ATOM      6  O   UNL     1     102.645 129.281 139.883  0.00  0.00    +0.000 OA
ATOM      7  C   UNL     1     103.287 129.368 141.192  0.00  0.00    +0.000 A 
ATOM      8  C   UNL     1     103.390 129.754 141.914  0.00  0.00    +0.000 A 
ATOM      9  C   UNL     1     102.403 130.791 141.519  0.00  0.00    +0.000 A 
ATOM     10  C   UNL     1     102.741 129.673 140.602  0.00  0.00    +0.000 A 
ATOM     11  C   UNL     1     103.712 128.680 141.027  0.00  0.00    +0.000 A 
ATOM     12  C   UNL     1     103.917 129.451 142.471  0.00  0.00    +0.000 A 
ATOM     13  C   UNL     1     102.296 130.389 140.768  0.00  0.00    +0.000 A 
ATOM     14  C   UNL     1     104.238 128.378 141.586  0.00  0.00    +0.000 A 
ATOM     15  C   UNL     1     104.341 128.764 142.308  0.00  0.00    +0.000 A 
ENDROOT
BRANCH   9  17
ATOM     16  O   UNL     1     100.711 133.545 142.186  0.00  0.00    +0.000 OA
ATOM     17  C   UNL     1     101.980 131.479 141.686  0.00  0.00    +0.000 A 
ATOM     18  C   UNL     1     102.298 132.216 141.494  0.00  0.00    +0.000 A 
ATOM     19  C   UNL     1     101.238 131.431 142.044  0.00  0.00    +0.000 A 
ATOM     20  C   UNL     1     101.875 132.904 141.661  0.00  0.00    +0.000 A 
ATOM     21  C   UNL     1     100.815 132.120 142.210  0.00  0.00    +0.000 A 
ATOM     22  C   UNL     1     101.134 132.857 142.019  0.00  0.00    +0.000 A 
BRANCH  20  23
ATOM     23  O   UNL     1     102.194 133.641 141.470  0.00  0.00    +0.000 OA
ATOM     24  C   UNL     1     103.012 133.747 141.460  0.00  0.00    +0.000 C 
ENDBRANCH  20  23
ENDBRANCH   9  17
TORSDOF 2
ENDMDL
MODEL 5
REMARK VINA RESULT:      -8.4      1.406      4.436
REMARK  Name = 12146897
REMARK  2 active torsions:
REMARK  status: ('A' for Active; 'I' for Inactive)
REMARK    1  A    between atoms: O_7  and  C_21
REMARK    2  A    between atoms: C_11  and  C_12
REMARK                            x       y       z     vdW  Elec       q    Type
REMARK                         _______ _______ _______ _____ _____    ______ ____
ROOT
ATOM      1  O   UNL     1     104.432 124.573 145.764  0.00  0.00    +0.000 OA
ATOM      2  O   UNL     1     106.713 125.146 147.451  0.00  0.00    +0.000 OA
ATOM      3  O   UNL     1     105.185 125.391 144.537  0.00  0.00    +0.000 OA
ATOM      4  O   UNL     1     107.435 125.954 146.207  0.00  0.00    +0.000 OA
ATOM      5  O   UNL     1     106.670 126.077 144.749  0.00  0.00    +0.000 OA
ATOM      6  O   UNL     1     105.612 124.390 147.997  0.00  0.00    +0.000 OA
ATOM      7  C   UNL     1     105.588 124.865 146.616  0.00  0.00    +0.000 A 
ATOM      8  C   UNL     1     105.206 124.926 145.887  0.00  0.00    +0.000 A 
ATOM      9  C   UNL     1     104.052 124.151 146.408  0.00  0.00    +0.000 A 
ATOM     10  C   UNL     1     105.223 124.446 147.272  0.00  0.00    +0.000 A 
ATOM     11  C   UNL     1     106.331 125.207 146.723  0.00  0.00    +0.000 A 
ATOM     12  C   UNL     1     105.567 125.330 145.265  0.00  0.00    +0.000 A 
ATOM     13  C   UNL     1     104.449 124.087 147.167  0.00  0.00    +0.000 A 
ATOM     14  C   UNL     1     106.691 125.611 146.100  0.00  0.00    +0.000 A 
ATOM     15  C   UNL     1     106.309 125.672 145.371  0.00  0.00    +0.000 A 
ENDROOT
BRANCH   9  17
ATOM     16  O   UNL     1     101.079 122.784 145.972  0.00  0.00    +0.000 OA
ATOM     17  C   UNL     1     103.309 123.809 146.299  0.00  0.00    +0.000 A 
ATOM     18  C   UNL     1     102.633 124.196 146.571  0.00  0.00    +0.000 A 
ATOM     19  C   UNL     1     103.242 123.080 145.918  0.00  0.00    +0.000 A 
ATOM     20  C   UNL     1     101.890 123.854 146.462  0.00  0.00    +0.000 A 
ATOM     21  C   UNL     1     102.498 122.739 145.809  0.00  0.00    +0.000 A 
ATOM     22  C   UNL     1     101.822 123.126 146.081  0.00  0.00    +0.000 A 
BRANCH  20  23
ATOM     23  O   UNL     1     101.214 124.241 146.734  0.00  0.00    +0.000 OA
ATOM     24  C   UNL     1     101.220 124.618 147.468  0.00  0.00    +0.000 C 
ENDBRANCH  20  23
ENDBRANCH   9  17
TORSDOF 2
ENDMDL
MODEL 6
REMARK VINA RESULT:      -8.4     11.744     13.516
REMARK  Name = 12146897
REMARK  2 active torsions:
REMARK  status: ('A' for Active; 'I' for Inactive)
REMARK    1  A    between atoms: O_7  and  C_21
REMARK    2  A    between atoms: C_11  and  C_12
REMARK                            x       y       z     vdW  Elec       q    Type
REMARK                         _______ _______ _______ _____ _____    ______ ____
ROOT
ATOM      1  O   UNL     1     112.067 125.838 136.248  0.00  0.00    +0.000 OA
ATOM      2  O   UNL     1     113.494 123.507 137.203  0.00  0.00    +0.000 OA
ATOM      3  O   UNL     1     113.489 126.684 136.308  0.00  0.00    +0.000 OA
ATOM      4  O   UNL     1     114.894 124.380 137.251  0.00  0.00    +0.000 OA
ATOM      5  O   UNL     1     114.891 125.969 136.804  0.00  0.00    +0.000 OA
ATOM      6  O   UNL     1     112.081 123.401 136.937  0.00  0.00    +0.000 OA
ATOM      7  C   UNL     1     112.792 124.660 136.732  0.00  0.00    +0.000 A 
ATOM      8  C   UNL     1     112.791 125.454 136.508  0.00  0.00    +0.000 A 
ATOM      9  C   UNL     1     111.335 125.388 136.221  0.00  0.00    +0.000 A 
ATOM     10  C   UNL     1     112.070 124.194 136.711  0.00  0.00    +0.000 A 
ATOM     11  C   UNL     1     113.493 124.302 136.979  0.00  0.00    +0.000 A 
ATOM     12  C   UNL     1     113.490 125.890 136.532  0.00  0.00    +0.000 A 
ATOM     13  C   UNL     1     111.337 124.561 136.454  0.00  0.00    +0.000 A 
ATOM     14  C   UNL     1     114.192 124.738 137.003  0.00  0.00    +0.000 A 
ATOM     15  C   UNL     1     114.191 125.533 136.780  0.00  0.00    +0.000 A 
ENDROOT
BRANCH   9  17
ATOM     16  O   UNL     1     108.537 126.829 135.229  0.00  0.00    +0.000 OA
ATOM     17  C   UNL     1     110.636 125.748 135.973  0.00  0.00    +0.000 A 
ATOM     18  C   UNL     1     110.191 126.195 136.505  0.00  0.00    +0.000 A 
ATOM     19  C   UNL     1     110.381 125.662 135.193  0.00  0.00    +0.000 A 
ATOM     20  C   UNL     1     109.491 126.555 136.257  0.00  0.00    +0.000 A 
ATOM     21  C   UNL     1     109.681 126.022 134.946  0.00  0.00    +0.000 A 
ATOM     22  C   UNL     1     109.236 126.469 135.478  0.00  0.00    +0.000 A 
BRANCH  20  23
ATOM     23  O   UNL     1     109.046 127.002 136.789  0.00  0.00    +0.000 OA
ATOM     24  C   UNL     1     109.424 127.481 137.345  0.00  0.00    +0.000 C 
ENDBRANCH  20  23
ENDBRANCH   9  17
TORSDOF 2
ENDMDL
MODEL 7
REMARK VINA RESULT:      -8.4     11.694     12.727
REMARK  Name = 12146897
REMARK  2 active torsions:
REMARK  status: ('A' for Active; 'I' for Inactive)
REMARK    1  A    between atoms: O_7  and  C_21
REMARK    2  A    between atoms: C_11  and  C_12
REMARK                            x       y       z     vdW  Elec       q    Type
REMARK                         _______ _______ _______ _____ _____    ______ ____
ROOT
ATOM      1  O   UNL     1     110.892 126.055 136.778  0.00  0.00    +0.000 OA
ATOM      2  O   UNL     1     108.755 126.704 134.937  0.00  0.00    +0.000 OA
ATOM      3  O   UNL     1     110.361 127.275 137.763  0.00  0.00    +0.000 OA
ATOM      4  O   UNL     1     108.253 127.913 135.942  0.00  0.00    +0.000 OA
ATOM      5  O   UNL     1     109.056 128.198 137.355  0.00  0.00    +0.000 OA
ATOM      6  O   UNL     1     109.654 125.624 134.612  0.00  0.00    +0.000 OA
ATOM      7  C   UNL     1     109.809 126.386 135.848  0.00  0.00    +0.000 A 
ATOM      8  C   UNL     1     110.211 126.529 136.555  0.00  0.00    +0.000 A 
ATOM      9  C   UNL     1     111.159 125.424 136.259  0.00  0.00    +0.000 A 
ATOM     10  C   UNL     1     110.062 125.759 135.316  0.00  0.00    +0.000 A 
ATOM     11  C   UNL     1     109.157 126.847 135.644  0.00  0.00    +0.000 A 
ATOM     12  C   UNL     1     109.960 127.132 137.057  0.00  0.00    +0.000 A 
ATOM     13  C   UNL     1     110.741 125.275 135.523  0.00  0.00    +0.000 A 
ATOM     14  C   UNL     1     108.906 127.451 136.147  0.00  0.00    +0.000 A 
ATOM     15  C   UNL     1     109.308 127.594 136.853  0.00  0.00    +0.000 A 
ENDROOT
BRANCH   9  17
ATOM     16  O   UNL     1     113.772 123.585 137.084  0.00  0.00    +0.000 OA
ATOM     17  C   UNL     1     111.812 124.964 136.465  0.00  0.00    +0.000 A 
ATOM     18  C   UNL     1     112.575 125.248 136.333  0.00  0.00    +0.000 A 
ATOM     19  C   UNL     1     111.702 124.220 136.804  0.00  0.00    +0.000 A 
ATOM     20  C   UNL     1     113.228 124.788 136.539  0.00  0.00    +0.000 A 
ATOM     21  C   UNL     1     112.356 123.760 137.011  0.00  0.00    +0.000 A 
ATOM     22  C   UNL     1     113.119 124.045 136.878  0.00  0.00    +0.000 A 
BRANCH  20  23
ATOM     23  O   UNL     1     113.991 125.072 136.406  0.00  0.00    +0.000 OA
ATOM     24  C   UNL     1     114.182 125.852 136.601  0.00  0.00    +0.000 C 
ENDBRANCH  20  23
ENDBRANCH   9  17
TORSDOF 2
ENDMDL
MODEL 8
REMARK VINA RESULT:      -8.3     11.830     12.942
REMARK  Name = 12146897
REMARK  2 active torsions:
REMARK  status: ('A' for Active; 'I' for Inactive)
REMARK    1  A    between atoms: O_7  and  C_21
REMARK    2  A    between atoms: C_11  and  C_12
REMARK                            x       y       z     vdW  Elec       q    Type
REMARK                         _______ _______ _______ _____ _____    ______ ____
ROOT
ATOM      1  O   UNL     1     110.550 127.362 135.760  0.00  0.00    +0.000 OA
ATOM      2  O   UNL     1     108.015 128.760 135.741  0.00  0.00    +0.000 OA
ATOM      3  O   UNL     1     111.277 128.756 135.239  0.00  0.00    +0.000 OA
ATOM      4  O   UNL     1     108.772 130.131 135.222  0.00  0.00    +0.000 OA
ATOM      5  O   UNL     1     110.402 130.129 134.971  0.00  0.00    +0.000 OA
ATOM      6  O   UNL     1     108.047 127.375 136.143  0.00  0.00    +0.000 OA
ATOM      7  C   UNL     1     109.268 128.072 135.749  0.00  0.00    +0.000 A 
ATOM      8  C   UNL     1     110.083 128.071 135.624  0.00  0.00    +0.000 A 
ATOM      9  C   UNL     1     110.161 126.645 136.030  0.00  0.00    +0.000 A 
ATOM     10  C   UNL     1     108.862 127.364 136.020  0.00  0.00    +0.000 A 
ATOM     11  C   UNL     1     108.830 128.759 135.616  0.00  0.00    +0.000 A 
ATOM     12  C   UNL     1     110.461 128.757 135.365  0.00  0.00    +0.000 A 
ATOM     13  C   UNL     1     109.312 126.646 136.161  0.00  0.00    +0.000 A 
ATOM     14  C   UNL     1     109.209 129.444 135.356  0.00  0.00    +0.000 A 
ATOM     15  C   UNL     1     110.025 129.443 135.231  0.00  0.00    +0.000 A 
ENDROOT
BRANCH   9  17
ATOM     16  O   UNL     1     111.920 123.903 136.564  0.00  0.00    +0.000 OA
ATOM     17  C   UNL     1     110.601 125.960 136.163  0.00  0.00    +0.000 A 
ATOM     18  C   UNL     1     110.907 125.806 136.914  0.00  0.00    +0.000 A 
ATOM     19  C   UNL     1     110.734 125.428 135.546  0.00  0.00    +0.000 A 
ATOM     20  C   UNL     1     111.347 125.120 137.047  0.00  0.00    +0.000 A 
ATOM     21  C   UNL     1     111.173 124.743 135.680  0.00  0.00    +0.000 A 
ATOM     22  C   UNL     1     111.480 124.589 136.431  0.00  0.00    +0.000 A 
BRANCH  20  23
ATOM     23  O   UNL     1     111.654 124.966 137.797  0.00  0.00    +0.000 OA
ATOM     24  C   UNL     1     111.930 125.587 138.266  0.00  0.00    +0.000 C 
ENDBRANCH  20  23
ENDBRANCH   9  17
TORSDOF 2
ENDMDL
MODEL 9
REMARK VINA RESULT:      -8.3      0.708      1.721
REMARK  Name = 12146897
REMARK  2 active torsions:
REMARK  status: ('A' for Active; 'I' for Inactive)
REMARK    1  A    between atoms: O_7  and  C_21
REMARK    2  A    between atoms: C_11  and  C_12
REMARK                            x       y       z     vdW  Elec       q    Type
REMARK                         _______ _______ _______ _____ _____    ______ ____
ROOT
ATOM      1  O   UNL     1     104.429 125.068 147.610  0.00  0.00    +0.000 OA
ATOM      2  O   UNL     1     102.369 123.831 145.996  0.00  0.00    +0.000 OA
ATOM      3  O   UNL     1     103.247 125.597 148.641  0.00  0.00    +0.000 OA
ATOM      4  O   UNL     1     101.217 124.374 147.045  0.00  0.00    +0.000 OA
ATOM      5  O   UNL     1     101.656 125.257 148.368  0.00  0.00    +0.000 OA
ATOM      6  O   UNL     1     103.745 123.713 145.583  0.00  0.00    +0.000 OA
ATOM      7  C   UNL     1     103.384 124.443 146.795  0.00  0.00    +0.000 A 
ATOM      8  C   UNL     1     103.603 124.884 147.456  0.00  0.00    +0.000 A 
ATOM      9  C   UNL     1     105.033 124.787 147.067  0.00  0.00    +0.000 A 
ATOM     10  C   UNL     1     103.975 124.154 146.241  0.00  0.00    +0.000 A 
ATOM     11  C   UNL     1     102.588 124.272 146.657  0.00  0.00    +0.000 A 
ATOM     12  C   UNL     1     103.027 125.156 147.980  0.00  0.00    +0.000 A 
ATOM     13  C   UNL     1     104.805 124.328 146.379  0.00  0.00    +0.000 A 
ATOM     14  C   UNL     1     102.013 124.544 147.182  0.00  0.00    +0.000 A 
ATOM     15  C   UNL     1     102.232 124.986 147.843  0.00  0.00    +0.000 A 
ENDROOT
BRANCH   9  17
ATOM     16  O   UNL     1     108.213 125.472 147.626  0.00  0.00    +0.000 OA
ATOM     17  C   UNL     1     105.828 124.959 147.207  0.00  0.00    +0.000 A 
ATOM     18  C   UNL     1     106.219 124.612 147.845  0.00  0.00    +0.000 A 
ATOM     19  C   UNL     1     106.232 125.477 146.708  0.00  0.00    +0.000 A 
ATOM     20  C   UNL     1     107.014 124.783 147.984  0.00  0.00    +0.000 A 
ATOM     21  C   UNL     1     107.027 125.648 146.848  0.00  0.00    +0.000 A 
ATOM     22  C   UNL     1     107.418 125.301 147.486  0.00  0.00    +0.000 A 
BRANCH  20  23
ATOM     23  O   UNL     1     107.405 124.436 148.623  0.00  0.00    +0.000 OA
ATOM     24  C   UNL     1     106.994 124.273 149.320  0.00  0.00    +0.000 C 
ENDBRANCH  20  23
ENDBRANCH   9  17
TORSDOF 2
ENDMDL
MODEL 10
REMARK VINA RESULT:      -8.0      9.360     10.219
REMARK  Name = 12146897
REMARK  2 active torsions:
REMARK  status: ('A' for Active; 'I' for Inactive)
REMARK    1  A    between atoms: O_7  and  C_21
REMARK    2  A    between atoms: C_11  and  C_12
REMARK                            x       y       z     vdW  Elec       q    Type
REMARK                         _______ _______ _______ _____ _____    ______ ____
ROOT
ATOM      1  O   UNL     1     102.887 132.010 141.231  0.00  0.00    +0.000 OA
ATOM      2  O   UNL     1     100.786 133.707 142.273  0.00  0.00    +0.000 OA
ATOM      3  O   UNL     1     103.616 133.361 140.611  0.00  0.00    +0.000 OA
ATOM      4  O   UNL     1     101.540 135.032 141.642  0.00  0.00    +0.000 OA
ATOM      5  O   UNL     1     102.954 134.860 140.811  0.00  0.00    +0.000 OA
ATOM      6  O   UNL     1     100.716 132.285 142.505  0.00  0.00    +0.000 OA
ATOM      7  C   UNL     1     101.825 132.872 141.757  0.00  0.00    +0.000 A 
ATOM      8  C   UNL     1     102.532 132.785 141.342  0.00  0.00    +0.000 A 
ATOM      9  C   UNL     1     102.499 131.316 141.557  0.00  0.00    +0.000 A 
ATOM     10  C   UNL     1     101.423 132.189 142.091  0.00  0.00    +0.000 A 
ATOM     11  C   UNL     1     101.494 133.620 141.858  0.00  0.00    +0.000 A 
ATOM     12  C   UNL     1     102.909 133.448 141.026  0.00  0.00    +0.000 A 
ATOM     13  C   UNL     1     101.763 131.406 141.990  0.00  0.00    +0.000 A 
ATOM     14  C   UNL     1     101.871 134.283 141.542  0.00  0.00    +0.000 A 
ATOM     15  C   UNL     1     102.578 134.196 141.126  0.00  0.00    +0.000 A 
ENDROOT
BRANCH   9  17
ATOM     16  O   UNL     1     103.831 128.324 141.150  0.00  0.00    +0.000 OA
ATOM     17  C   UNL     1     102.832 130.568 141.455  0.00  0.00    +0.000 A 
ATOM     18  C   UNL     1     102.695 130.147 140.759  0.00  0.00    +0.000 A 
ATOM     19  C   UNL     1     103.302 130.242 142.050  0.00  0.00    +0.000 A 
ATOM     20  C   UNL     1     103.028 129.399 140.658  0.00  0.00    +0.000 A 
ATOM     21  C   UNL     1     103.635 129.493 141.947  0.00  0.00    +0.000 A 
ATOM     22  C   UNL     1     103.498 129.072 141.251  0.00  0.00    +0.000 A 
BRANCH  20  23
ATOM     23  O   UNL     1     102.891 128.978 139.962  0.00  0.00    +0.000 OA
ATOM     24  C   UNL     1     102.183 129.080 139.549  0.00  0.00    +0.000 C 
ENDBRANCH  20  23
ENDBRANCH   9  17
TORSDOF 2
ENDMDL
