MODEL 1
REMARK VINA RESULT:      -9.8      0.000      0.000
REMARK  Name = 131833502
REMARK  3 active torsions:
REMARK  status: ('A' for Active; 'I' for Inactive)
REMARK    1  A    between atoms: C_14  and  C_17
REMARK    2  A    between atoms: C_16  and  C_18
REMARK    3  A    between atoms: C_25  and  C_27
REMARK                            x       y       z     vdW  Elec       q    Type
REMARK                         _______ _______ _______ _____ _____    ______ ____
ROOT
ATOM      1  O   UNL     1     111.862 126.057 136.625  0.00  0.00    +0.000 OA
ATOM      2  O   UNL     1     114.585 125.956 137.561  0.00  0.00    +0.000 OA
ATOM      3  O   UNL     1     114.598 124.314 137.395  0.00  0.00    +0.000 OA
ATOM      4  O   UNL     1     113.254 123.529 136.846  0.00  0.00    +0.000 OA
ATOM      5  O   UNL     1     111.892 123.537 136.374  0.00  0.00    +0.000 OA
ATOM      6  C   UNL     1     113.235 125.992 137.095  0.00  0.00    +0.000 A 
ATOM      7  C   UNL     1     112.563 125.599 136.821  0.00  0.00    +0.000 A 
ATOM      8  C   UNL     1     113.913 125.563 137.286  0.00  0.00    +0.000 A 
ATOM      9  C   UNL     1     112.570 124.778 136.738  0.00  0.00    +0.000 A 
ATOM     10  C   UNL     1     113.919 124.742 137.203  0.00  0.00    +0.000 A 
ATOM     11  C   UNL     1     113.248 124.350 136.929  0.00  0.00    +0.000 A 
ATOM     12  C   UNL     1     111.876 124.358 136.453  0.00  0.00    +0.000 A 
ATOM     13  C   UNL     1     111.160 125.654 136.339  0.00  0.00    +0.000 A 
ATOM     14  C   UNL     1     111.166 124.799 136.253  0.00  0.00    +0.000 A 
ENDROOT
BRANCH   6  21
ATOM     15  O   UNL     1     113.379 127.294 136.526  0.00  0.00    +0.000 OA
ATOM     16  O   UNL     1     112.919 126.669 138.566  0.00  0.00    +0.000 OA
ATOM     17  O   UNL     1     112.906 128.310 138.732  0.00  0.00    +0.000 OA
ATOM     18  O   UNL     1     113.208 129.275 137.427  0.00  0.00    +0.000 OA
ATOM     19  C   UNL     1     113.071 127.151 137.913  0.00  0.00    +0.000 C 
ATOM     20  C   UNL     1     113.064 127.972 137.996  0.00  0.00    +0.000 C 
ATOM     21  C   UNL     1     113.228 126.812 137.178  0.00  0.00    +0.000 C 
ATOM     22  C   UNL     1     113.215 128.453 137.344  0.00  0.00    +0.000 C 
ATOM     23  C   UNL     1     113.372 128.115 136.609  0.00  0.00    +0.000 C 
BRANCH  23  25
ATOM     24  O   UNL     1     114.186 128.455 135.484  0.00  0.00    +0.000 OA
ATOM     25  C   UNL     1     113.524 128.596 135.956  0.00  0.00    +0.000 C 
ENDBRANCH  23  25
ENDBRANCH   6  21
BRANCH  13  27
ATOM     26  O   UNL     1     108.450 127.378 135.578  0.00  0.00    +0.000 OA
ATOM     27  C   UNL     1     110.482 126.085 136.149  0.00  0.00    +0.000 A 
ATOM     28  C   UNL     1     110.338 126.303 135.367  0.00  0.00    +0.000 A 
ATOM     29  C   UNL     1     109.949 126.297 136.741  0.00  0.00    +0.000 A 
ATOM     30  C   UNL     1     109.661 126.734 135.176  0.00  0.00    +0.000 A 
ATOM     31  C   UNL     1     109.271 126.728 136.551  0.00  0.00    +0.000 A 
ATOM     32  C   UNL     1     109.127 126.947 135.768  0.00  0.00    +0.000 A 
ENDBRANCH  13  27
TORSDOF 3
ENDMDL
MODEL 2
REMARK VINA RESULT:      -9.7      1.089      3.311
REMARK  Name = 131833502
REMARK  3 active torsions:
REMARK  status: ('A' for Active; 'I' for Inactive)
REMARK    1  A    between atoms: C_14  and  C_17
REMARK    2  A    between atoms: C_16  and  C_18
REMARK    3  A    between atoms: C_25  and  C_27
REMARK                            x       y       z     vdW  Elec       q    Type
REMARK                         _______ _______ _______ _____ _____    ______ ____
ROOT
ATOM      1  O   UNL     1     112.479 126.691 136.636  0.00  0.00    +0.000 OA
ATOM      2  O   UNL     1     111.326 124.077 137.002  0.00  0.00    +0.000 OA
ATOM      3  O   UNL     1     112.826 123.390 136.951  0.00  0.00    +0.000 OA
ATOM      4  O   UNL     1     114.161 124.338 136.744  0.00  0.00    +0.000 OA
ATOM      5  O   UNL     1     114.776 125.629 136.559  0.00  0.00    +0.000 OA
ATOM      6  C   UNL     1     111.910 125.368 136.820  0.00  0.00    +0.000 A 
ATOM      7  C   UNL     1     112.578 125.841 136.716  0.00  0.00    +0.000 A 
ATOM      8  C   UNL     1     111.994 124.551 136.898  0.00  0.00    +0.000 A 
ATOM      9  C   UNL     1     113.328 125.498 136.691  0.00  0.00    +0.000 A 
ATOM     10  C   UNL     1     112.744 124.208 136.873  0.00  0.00    +0.000 A 
ATOM     11  C   UNL     1     113.410 124.682 136.769  0.00  0.00    +0.000 A 
ATOM     12  C   UNL     1     114.030 125.982 136.583  0.00  0.00    +0.000 A 
ATOM     13  C   UNL     1     113.170 127.190 136.528  0.00  0.00    +0.000 A 
ATOM     14  C   UNL     1     113.951 126.833 136.501  0.00  0.00    +0.000 A 
ENDROOT
BRANCH   6  21
ATOM     15  O   UNL     1     110.761 125.880 136.145  0.00  0.00    +0.000 OA
ATOM     16  O   UNL     1     111.212 125.716 138.274  0.00  0.00    +0.000 OA
ATOM     17  O   UNL     1     109.713 126.402 138.324  0.00  0.00    +0.000 OA
ATOM     18  O   UNL     1     108.911 126.740 136.922  0.00  0.00    +0.000 OA
ATOM     19  C   UNL     1     110.811 125.885 137.572  0.00  0.00    +0.000 C 
ATOM     20  C   UNL     1     110.062 126.228 137.597  0.00  0.00    +0.000 C 
ATOM     21  C   UNL     1     111.161 125.710 136.845  0.00  0.00    +0.000 C 
ATOM     22  C   UNL     1     109.662 126.397 136.896  0.00  0.00    +0.000 C 
ATOM     23  C   UNL     1     110.011 126.223 136.170  0.00  0.00    +0.000 C 
BRANCH  23  25
ATOM     24  O   UNL     1     109.720 125.910 134.806  0.00  0.00    +0.000 OA
ATOM     25  C   UNL     1     109.611 126.391 135.468  0.00  0.00    +0.000 C 
ENDBRANCH  23  25
ENDBRANCH   6  21
BRANCH  13  27
ATOM     26  O   UNL     1     112.828 130.458 136.217  0.00  0.00    +0.000 OA
ATOM     27  C   UNL     1     113.084 128.007 136.450  0.00  0.00    +0.000 A 
ATOM     28  C   UNL     1     112.996 128.343 135.703  0.00  0.00    +0.000 A 
ATOM     29  C   UNL     1     113.087 128.488 137.120  0.00  0.00    +0.000 A 
ATOM     30  C   UNL     1     112.911 129.160 135.625  0.00  0.00    +0.000 A 
ATOM     31  C   UNL     1     113.002 129.305 137.043  0.00  0.00    +0.000 A 
ATOM     32  C   UNL     1     112.913 129.641 136.295  0.00  0.00    +0.000 A 
ENDBRANCH  13  27
TORSDOF 3
ENDMDL
MODEL 3
REMARK VINA RESULT:      -9.7     11.533     12.677
REMARK  Name = 131833502
REMARK  3 active torsions:
REMARK  status: ('A' for Active; 'I' for Inactive)
REMARK    1  A    between atoms: C_14  and  C_17
REMARK    2  A    between atoms: C_16  and  C_18
REMARK    3  A    between atoms: C_25  and  C_27
REMARK                            x       y       z     vdW  Elec       q    Type
REMARK                         _______ _______ _______ _____ _____    ______ ____
ROOT
ATOM      1  O   UNL     1     105.133 125.156 147.486  0.00  0.00    +0.000 OA
ATOM      2  O   UNL     1     107.795 125.713 146.535  0.00  0.00    +0.000 OA
ATOM      3  O   UNL     1     108.438 125.089 147.920  0.00  0.00    +0.000 OA
ATOM      4  O   UNL     1     107.445 124.495 149.097  0.00  0.00    +0.000 OA
ATOM      5  O   UNL     1     106.129 124.200 149.609  0.00  0.00    +0.000 OA
ATOM      6  C   UNL     1     106.480 125.432 147.018  0.00  0.00    +0.000 A 
ATOM      7  C   UNL     1     105.984 125.135 147.607  0.00  0.00    +0.000 A 
ATOM      8  C   UNL     1     107.298 125.416 147.124  0.00  0.00    +0.000 A 
ATOM      9  C   UNL     1     106.305 124.823 148.299  0.00  0.00    +0.000 A 
ATOM     10  C   UNL     1     107.619 125.104 147.816  0.00  0.00    +0.000 A 
ATOM     11  C   UNL     1     107.123 124.808 148.404  0.00  0.00    +0.000 A 
ATOM     12  C   UNL     1     105.798 124.510 148.919  0.00  0.00    +0.000 A 
ATOM     13  C   UNL     1     104.611 124.848 148.095  0.00  0.00    +0.000 A 
ATOM     14  C   UNL     1     104.945 124.524 148.816  0.00  0.00    +0.000 A 
ENDROOT
BRANCH   6  21
ATOM     15  O   UNL     1     105.908 126.529 146.305  0.00  0.00    +0.000 OA
ATOM     16  O   UNL     1     106.338 124.483 145.676  0.00  0.00    +0.000 OA
ATOM     17  O   UNL     1     105.695 125.107 144.290  0.00  0.00    +0.000 OA
ATOM     18  O   UNL     1     105.194 126.679 144.247  0.00  0.00    +0.000 OA
ATOM     19  C   UNL     1     106.087 125.270 145.655  0.00  0.00    +0.000 C 
ATOM     20  C   UNL     1     105.766 125.582 144.962  0.00  0.00    +0.000 C 
ATOM     21  C   UNL     1     106.159 125.743 146.326  0.00  0.00    +0.000 C 
ATOM     22  C   UNL     1     105.516 126.367 144.941  0.00  0.00    +0.000 C 
ATOM     23  C   UNL     1     105.587 126.841 145.612  0.00  0.00    +0.000 C 
BRANCH  23  25
ATOM     24  O   UNL     1     105.117 128.008 146.290  0.00  0.00    +0.000 OA
ATOM     25  C   UNL     1     105.337 127.627 145.591  0.00  0.00    +0.000 C 
ENDBRANCH  23  25
ENDBRANCH   6  21
BRANCH  13  27
ATOM     26  O   UNL     1     101.339 124.913 147.665  0.00  0.00    +0.000 OA
ATOM     27  C   UNL     1     103.793 124.865 147.987  0.00  0.00    +0.000 A 
ATOM     28  C   UNL     1     103.351 125.497 148.278  0.00  0.00    +0.000 A 
ATOM     29  C   UNL     1     103.417 124.248 147.589  0.00  0.00    +0.000 A 
ATOM     30  C   UNL     1     102.533 125.514 148.171  0.00  0.00    +0.000 A 
ATOM     31  C   UNL     1     102.598 124.264 147.481  0.00  0.00    +0.000 A 
ATOM     32  C   UNL     1     102.157 124.897 147.772  0.00  0.00    +0.000 A 
ENDBRANCH  13  27
TORSDOF 3
ENDMDL
MODEL 4
REMARK VINA RESULT:      -9.7      1.570      3.899
REMARK  Name = 131833502
REMARK  3 active torsions:
REMARK  status: ('A' for Active; 'I' for Inactive)
REMARK    1  A    between atoms: C_14  and  C_17
REMARK    2  A    between atoms: C_16  and  C_18
REMARK    3  A    between atoms: C_25  and  C_27
REMARK                            x       y       z     vdW  Elec       q    Type
REMARK                         _______ _______ _______ _____ _____    ______ ____
ROOT
ATOM      1  O   UNL     1     111.697 125.996 137.258  0.00  0.00    +0.000 OA
ATOM      2  O   UNL     1     109.267 127.282 138.121  0.00  0.00    +0.000 OA
ATOM      3  O   UNL     1     108.558 126.953 136.667  0.00  0.00    +0.000 OA
ATOM      4  O   UNL     1     109.402 126.148 135.500  0.00  0.00    +0.000 OA
ATOM      5  O   UNL     1     110.600 125.496 135.031  0.00  0.00    +0.000 OA
ATOM      6  C   UNL     1     110.466 126.641 137.680  0.00  0.00    +0.000 A 
ATOM      7  C   UNL     1     110.888 126.239 137.097  0.00  0.00    +0.000 A 
ATOM      8  C   UNL     1     109.690 126.879 137.537  0.00  0.00    +0.000 A 
ATOM      9  C   UNL     1     110.533 126.075 136.370  0.00  0.00    +0.000 A 
ATOM     10  C   UNL     1     109.335 126.715 136.810  0.00  0.00    +0.000 A 
ATOM     11  C   UNL     1     109.757 126.313 136.227  0.00  0.00    +0.000 A 
ATOM     12  C   UNL     1     110.963 125.656 135.754  0.00  0.00    +0.000 A 
ATOM     13  C   UNL     1     112.141 125.577 136.654  0.00  0.00    +0.000 A 
ATOM     14  C   UNL     1     111.772 125.406 135.898  0.00  0.00    +0.000 A 
ENDROOT
BRANCH   6  21
ATOM     15  O   UNL     1     111.294 127.475 138.493  0.00  0.00    +0.000 OA
ATOM     16  O   UNL     1     110.227 125.629 138.961  0.00  0.00    +0.000 OA
ATOM     17  O   UNL     1     110.936 125.958 140.414  0.00  0.00    +0.000 OA
ATOM     18  O   UNL     1     111.884 127.298 140.587  0.00  0.00    +0.000 OA
ATOM     19  C   UNL     1     110.701 126.300 139.047  0.00  0.00    +0.000 C 
ATOM     20  C   UNL     1     111.056 126.464 139.774  0.00  0.00    +0.000 C 
ATOM     21  C   UNL     1     110.820 126.805 138.406  0.00  0.00    +0.000 C 
ATOM     22  C   UNL     1     111.529 127.134 139.860  0.00  0.00    +0.000 C 
ATOM     23  C   UNL     1     111.648 127.639 139.219  0.00  0.00    +0.000 C 
BRANCH  23  25
ATOM     24  O   UNL     1     112.121 128.892 138.719  0.00  0.00    +0.000 OA
ATOM     25  C   UNL     1     112.122 128.309 139.305  0.00  0.00    +0.000 C 
ENDBRANCH  23  25
ENDBRANCH   6  21
BRANCH  13  27
ATOM     26  O   UNL     1     115.249 124.630 137.238  0.00  0.00    +0.000 OA
ATOM     27  C   UNL     1     112.918 125.340 136.800  0.00  0.00    +0.000 A 
ATOM     28  C   UNL     1     113.072 124.584 137.091  0.00  0.00    +0.000 A 
ATOM     29  C   UNL     1     113.542 125.860 136.655  0.00  0.00    +0.000 A 
ATOM     30  C   UNL     1     113.848 124.347 137.237  0.00  0.00    +0.000 A 
ATOM     31  C   UNL     1     114.319 125.623 136.801  0.00  0.00    +0.000 A 
ATOM     32  C   UNL     1     114.472 124.867 137.092  0.00  0.00    +0.000 A 
ENDBRANCH  13  27
TORSDOF 3
ENDMDL
MODEL 5
REMARK VINA RESULT:      -9.7      1.654      4.154
REMARK  Name = 131833502
REMARK  3 active torsions:
REMARK  status: ('A' for Active; 'I' for Inactive)
REMARK    1  A    between atoms: C_14  and  C_17
REMARK    2  A    between atoms: C_16  and  C_18
REMARK    3  A    between atoms: C_25  and  C_27
REMARK                            x       y       z     vdW  Elec       q    Type
REMARK                         _______ _______ _______ _____ _____    ______ ____
ROOT
ATOM      1  O   UNL     1     110.531 127.473 136.112  0.00  0.00    +0.000 OA
ATOM      2  O   UNL     1     110.432 130.340 135.845  0.00  0.00    +0.000 OA
ATOM      3  O   UNL     1     108.788 130.289 135.724  0.00  0.00    +0.000 OA
ATOM      4  O   UNL     1     107.999 128.841 135.794  0.00  0.00    +0.000 OA
ATOM      5  O   UNL     1     108.007 127.404 135.924  0.00  0.00    +0.000 OA
ATOM      6  C   UNL     1     110.467 128.918 135.976  0.00  0.00    +0.000 A 
ATOM      7  C   UNL     1     110.073 128.194 136.011  0.00  0.00    +0.000 A 
ATOM      8  C   UNL     1     110.038 129.616 135.880  0.00  0.00    +0.000 A 
ATOM      9  C   UNL     1     109.251 128.169 135.951  0.00  0.00    +0.000 A 
ATOM     10  C   UNL     1     109.216 129.590 135.820  0.00  0.00    +0.000 A 
ATOM     11  C   UNL     1     108.823 128.866 135.855  0.00  0.00    +0.000 A 
ATOM     12  C   UNL     1     108.829 127.420 135.986  0.00  0.00    +0.000 A 
ATOM     13  C   UNL     1     110.126 126.717 136.149  0.00  0.00    +0.000 A 
ATOM     14  C   UNL     1     109.270 126.690 136.086  0.00  0.00    +0.000 A 
ENDROOT
BRANCH   6  21
ATOM     15  O   UNL     1     111.648 128.938 136.779  0.00  0.00    +0.000 OA
ATOM     16  O   UNL     1     111.393 128.981 134.612  0.00  0.00    +0.000 OA
ATOM     17  O   UNL     1     113.038 129.032 134.734  0.00  0.00    +0.000 OA
ATOM     18  O   UNL     1     113.757 129.021 136.219  0.00  0.00    +0.000 OA
ATOM     19  C   UNL     1     111.752 128.975 135.356  0.00  0.00    +0.000 C 
ATOM     20  C   UNL     1     112.575 129.001 135.416  0.00  0.00    +0.000 C 
ATOM     21  C   UNL     1     111.289 128.944 136.037  0.00  0.00    +0.000 C 
ATOM     22  C   UNL     1     112.933 128.995 136.159  0.00  0.00    +0.000 C 
ATOM     23  C   UNL     1     112.471 128.964 136.840  0.00  0.00    +0.000 C 
BRANCH  23  25
ATOM     24  O   UNL     1     112.398 129.185 138.251  0.00  0.00    +0.000 OA
ATOM     25  C   UNL     1     112.829 128.958 137.583  0.00  0.00    +0.000 C 
ENDBRANCH  23  25
ENDBRANCH   6  21
BRANCH  13  27
ATOM     26  O   UNL     1     111.851 123.929 136.534  0.00  0.00    +0.000 OA
ATOM     27  C   UNL     1     110.557 126.020 136.245  0.00  0.00    +0.000 A 
ATOM     28  C   UNL     1     110.775 125.574 135.586  0.00  0.00    +0.000 A 
ATOM     29  C   UNL     1     110.771 125.768 137.001  0.00  0.00    +0.000 A 
ATOM     30  C   UNL     1     111.206 124.877 135.682  0.00  0.00    +0.000 A 
ATOM     31  C   UNL     1     111.203 125.071 137.098  0.00  0.00    +0.000 A 
ATOM     32  C   UNL     1     111.420 124.626 136.438  0.00  0.00    +0.000 A 
ENDBRANCH  13  27
TORSDOF 3
ENDMDL
MODEL 6
REMARK VINA RESULT:      -9.6      1.311      3.564
REMARK  Name = 131833502
REMARK  3 active torsions:
REMARK  status: ('A' for Active; 'I' for Inactive)
REMARK    1  A    between atoms: C_14  and  C_17
REMARK    2  A    between atoms: C_16  and  C_18
REMARK    3  A    between atoms: C_25  and  C_27
REMARK                            x       y       z     vdW  Elec       q    Type
REMARK                         _______ _______ _______ _____ _____    ______ ____
ROOT
ATOM      1  O   UNL     1     112.329 126.726 136.235  0.00  0.00    +0.000 OA
ATOM      2  O   UNL     1     110.752 128.950 135.304  0.00  0.00    +0.000 OA
ATOM      3  O   UNL     1     109.605 127.915 134.724  0.00  0.00    +0.000 OA
ATOM      4  O   UNL     1     109.804 126.285 134.891  0.00  0.00    +0.000 OA
ATOM      5  O   UNL     1     110.564 125.145 135.342  0.00  0.00    +0.000 OA
ATOM      6  C   UNL     1     111.525 127.838 135.761  0.00  0.00    +0.000 A 
ATOM      7  C   UNL     1     111.623 127.023 135.844  0.00  0.00    +0.000 A 
ATOM      8  C   UNL     1     110.852 128.135 135.387  0.00  0.00    +0.000 A 
ATOM      9  C   UNL     1     111.050 126.506 135.554  0.00  0.00    +0.000 A 
ATOM     10  C   UNL     1     110.278 127.617 135.098  0.00  0.00    +0.000 A 
ATOM     11  C   UNL     1     110.378 126.803 135.181  0.00  0.00    +0.000 A 
ATOM     12  C   UNL     1     111.142 125.655 135.636  0.00  0.00    +0.000 A 
ATOM     13  C   UNL     1     112.438 125.878 136.325  0.00  0.00    +0.000 A 
ATOM     14  C   UNL     1     111.841 125.340 136.024  0.00  0.00    +0.000 A 
ENDROOT
BRANCH   6  21
ATOM     15  O   UNL     1     112.767 128.524 135.600  0.00  0.00    +0.000 OA
ATOM     16  O   UNL     1     111.332 128.535 137.244  0.00  0.00    +0.000 OA
ATOM     17  O   UNL     1     112.478 129.570 137.824  0.00  0.00    +0.000 OA
ATOM     18  O   UNL     1     113.818 129.908 136.921  0.00  0.00    +0.000 OA
ATOM     19  C   UNL     1     112.002 128.704 136.792  0.00  0.00    +0.000 C 
ATOM     20  C   UNL     1     112.575 129.221 137.082  0.00  0.00    +0.000 C 
ATOM     21  C   UNL     1     112.097 128.355 136.051  0.00  0.00    +0.000 C 
ATOM     22  C   UNL     1     113.244 129.390 136.630  0.00  0.00    +0.000 C 
ATOM     23  C   UNL     1     113.340 129.042 135.889  0.00  0.00    +0.000 C 
BRANCH  23  25
ATOM     24  O   UNL     1     113.954 129.239 134.614  0.00  0.00    +0.000 OA
ATOM     25  C   UNL     1     114.010 129.210 135.437  0.00  0.00    +0.000 C 
ENDBRANCH  23  25
ENDBRANCH   6  21
BRANCH  13  27
ATOM     26  O   UNL     1     115.134 124.700 137.821  0.00  0.00    +0.000 OA
ATOM     27  C   UNL     1     113.112 125.584 136.699  0.00  0.00    +0.000 A 
ATOM     28  C   UNL     1     113.126 125.500 137.520  0.00  0.00    +0.000 A 
ATOM     29  C   UNL     1     113.772 125.373 136.253  0.00  0.00    +0.000 A 
ATOM     30  C   UNL     1     113.799 125.206 137.893  0.00  0.00    +0.000 A 
ATOM     31  C   UNL     1     114.447 125.078 136.626  0.00  0.00    +0.000 A 
ATOM     32  C   UNL     1     114.460 124.995 137.447  0.00  0.00    +0.000 A 
ENDBRANCH  13  27
TORSDOF 3
ENDMDL
MODEL 7
REMARK VINA RESULT:      -9.6      1.333      3.804
REMARK  Name = 131833502
REMARK  3 active torsions:
REMARK  status: ('A' for Active; 'I' for Inactive)
REMARK    1  A    between atoms: C_14  and  C_17
REMARK    2  A    between atoms: C_16  and  C_18
REMARK    3  A    between atoms: C_25  and  C_27
REMARK                            x       y       z     vdW  Elec       q    Type
REMARK                         _______ _______ _______ _____ _____    ______ ____
ROOT
ATOM      1  O   UNL     1     112.642 127.546 136.112  0.00  0.00    +0.000 OA
ATOM      2  O   UNL     1     111.440 124.972 136.592  0.00  0.00    +0.000 OA
ATOM      3  O   UNL     1     110.171 125.364 135.614  0.00  0.00    +0.000 OA
ATOM      4  O   UNL     1     110.121 126.840 134.878  0.00  0.00    +0.000 OA
ATOM      5  O   UNL     1     110.690 128.139 134.612  0.00  0.00    +0.000 OA
ATOM      6  C   UNL     1     112.026 126.252 136.346  0.00  0.00    +0.000 A 
ATOM      7  C   UNL     1     112.000 126.990 135.978  0.00  0.00    +0.000 A 
ATOM      8  C   UNL     1     111.416 125.711 136.224  0.00  0.00    +0.000 A 
ATOM      9  C   UNL     1     111.366 127.186 135.489  0.00  0.00    +0.000 A 
ATOM     10  C   UNL     1     110.781 125.907 135.735  0.00  0.00    +0.000 A 
ATOM     11  C   UNL     1     110.756 126.644 135.368  0.00  0.00    +0.000 A 
ATOM     12  C   UNL     1     111.329 127.952 135.100  0.00  0.00    +0.000 A 
ATOM     13  C   UNL     1     112.622 128.316 135.732  0.00  0.00    +0.000 A 
ATOM     14  C   UNL     1     111.961 128.520 135.222  0.00  0.00    +0.000 A 
ENDROOT
BRANCH   6  21
ATOM     15  O   UNL     1     113.346 125.733 136.511  0.00  0.00    +0.000 OA
ATOM     16  O   UNL     1     111.922 126.506 137.972  0.00  0.00    +0.000 OA
ATOM     17  O   UNL     1     113.191 126.114 138.951  0.00  0.00    +0.000 OA
ATOM     18  O   UNL     1     114.565 125.468 138.303  0.00  0.00    +0.000 OA
ATOM     19  C   UNL     1     112.609 126.183 137.648  0.00  0.00    +0.000 C 
ATOM     20  C   UNL     1     113.244 125.987 138.137  0.00  0.00    +0.000 C 
ATOM     21  C   UNL     1     112.660 126.056 136.834  0.00  0.00    +0.000 C 
ATOM     22  C   UNL     1     113.929 125.664 137.813  0.00  0.00    +0.000 C 
ATOM     23  C   UNL     1     113.981 125.537 137.000  0.00  0.00    +0.000 C 
BRANCH  23  25
ATOM     24  O   UNL     1     114.960 125.503 135.958  0.00  0.00    +0.000 OA
ATOM     25  C   UNL     1     114.667 125.214 136.675  0.00  0.00    +0.000 C 
ENDBRANCH  23  25
ENDBRANCH   6  21
BRANCH  13  27
ATOM     26  O   UNL     1     115.068 130.476 136.223  0.00  0.00    +0.000 OA
ATOM     27  C   UNL     1     113.233 128.856 135.855  0.00  0.00    +0.000 A 
ATOM     28  C   UNL     1     113.191 129.393 136.479  0.00  0.00    +0.000 A 
ATOM     29  C   UNL     1     113.888 128.860 135.352  0.00  0.00    +0.000 A 
ATOM     30  C   UNL     1     113.802 129.933 136.602  0.00  0.00    +0.000 A 
ATOM     31  C   UNL     1     114.500 129.400 135.475  0.00  0.00    +0.000 A 
ATOM     32  C   UNL     1     114.457 129.936 136.100  0.00  0.00    +0.000 A 
ENDBRANCH  13  27
TORSDOF 3
ENDMDL
MODEL 8
REMARK VINA RESULT:      -9.6     11.720     13.070
REMARK  Name = 131833502
REMARK  3 active torsions:
REMARK  status: ('A' for Active; 'I' for Inactive)
REMARK    1  A    between atoms: C_14  and  C_17
REMARK    2  A    between atoms: C_16  and  C_18
REMARK    3  A    between atoms: C_25  and  C_27
REMARK                            x       y       z     vdW  Elec       q    Type
REMARK                         _______ _______ _______ _____ _____    ______ ____
ROOT
ATOM      1  O   UNL     1     104.243 125.714 147.230  0.00  0.00    +0.000 OA
ATOM      2  O   UNL     1     104.613 123.616 145.290  0.00  0.00    +0.000 OA
ATOM      3  O   UNL     1     103.280 122.830 145.861  0.00  0.00    +0.000 OA
ATOM      4  O   UNL     1     102.418 123.470 147.115  0.00  0.00    +0.000 OA
ATOM      5  O   UNL     1     102.198 124.500 148.100  0.00  0.00    +0.000 OA
ATOM      6  C   UNL     1     104.418 124.650 146.257  0.00  0.00    +0.000 A 
ATOM      7  C   UNL     1     103.987 124.970 146.883  0.00  0.00    +0.000 A 
ATOM      8  C   UNL     1     104.182 123.937 145.917  0.00  0.00    +0.000 A 
ATOM      9  C   UNL     1     103.321 124.577 147.169  0.00  0.00    +0.000 A 
ATOM     10  C   UNL     1     103.516 123.543 146.203  0.00  0.00    +0.000 A 
ATOM     11  C   UNL     1     103.085 123.864 146.828  0.00  0.00    +0.000 A 
ATOM     12  C   UNL     1     102.864 124.900 147.821  0.00  0.00    +0.000 A 
ATOM     13  C   UNL     1     103.799 126.052 147.882  0.00  0.00    +0.000 A 
ATOM     14  C   UNL     1     103.104 125.643 148.180  0.00  0.00    +0.000 A 
ENDROOT
BRANCH   6  21
ATOM     15  O   UNL     1     105.002 125.641 145.409  0.00  0.00    +0.000 OA
ATOM     16  O   UNL     1     105.917 124.239 146.809  0.00  0.00    +0.000 OA
ATOM     17  O   UNL     1     107.251 125.025 146.238  0.00  0.00    +0.000 OA
ATOM     18  O   UNL     1     107.085 126.222 145.113  0.00  0.00    +0.000 OA
ATOM     19  C   UNL     1     105.834 124.838 146.247  0.00  0.00    +0.000 C 
ATOM     20  C   UNL     1     106.501 125.231 145.961  0.00  0.00    +0.000 C 
ATOM     21  C   UNL     1     105.084 125.042 145.971  0.00  0.00    +0.000 C 
ATOM     22  C   UNL     1     106.418 125.829 145.400  0.00  0.00    +0.000 C 
ATOM     23  C   UNL     1     105.668 126.034 145.124  0.00  0.00    +0.000 C 
BRANCH  23  25
ATOM     24  O   UNL     1     105.210 126.473 143.843  0.00  0.00    +0.000 OA
ATOM     25  C   UNL     1     105.584 126.632 144.562  0.00  0.00    +0.000 C 
ENDBRANCH  23  25
ENDBRANCH   6  21
BRANCH  13  27
ATOM     26  O   UNL     1     104.750 128.907 149.237  0.00  0.00    +0.000 OA
ATOM     27  C   UNL     1     104.037 126.766 148.221  0.00  0.00    +0.000 A 
ATOM     28  C   UNL     1     104.600 126.769 148.823  0.00  0.00    +0.000 A 
ATOM     29  C   UNL     1     103.711 127.476 147.957  0.00  0.00    +0.000 A 
ATOM     30  C   UNL     1     104.838 127.483 149.162  0.00  0.00    +0.000 A 
ATOM     31  C   UNL     1     103.948 128.191 148.296  0.00  0.00    +0.000 A 
ATOM     32  C   UNL     1     104.512 128.194 148.898  0.00  0.00    +0.000 A 
ENDBRANCH  13  27
TORSDOF 3
ENDMDL
MODEL 9
REMARK VINA RESULT:      -9.4     12.289     13.446
REMARK  Name = 131833502
REMARK  3 active torsions:
REMARK  status: ('A' for Active; 'I' for Inactive)
REMARK    1  A    between atoms: C_14  and  C_17
REMARK    2  A    between atoms: C_16  and  C_18
REMARK    3  A    between atoms: C_25  and  C_27
REMARK                            x       y       z     vdW  Elec       q    Type
REMARK                         _______ _______ _______ _____ _____    ______ ____
ROOT
ATOM      1  O   UNL     1     103.908 124.600 147.227  0.00  0.00    +0.000 OA
ATOM      2  O   UNL     1     106.554 125.307 146.335  0.00  0.00    +0.000 OA
ATOM      3  O   UNL     1     106.305 124.511 144.911  0.00  0.00    +0.000 OA
ATOM      4  O   UNL     1     104.865 123.755 144.629  0.00  0.00    +0.000 OA
ATOM      5  O   UNL     1     103.534 123.380 145.039  0.00  0.00    +0.000 OA
ATOM      6  C   UNL     1     105.239 124.950 146.765  0.00  0.00    +0.000 A 
ATOM      7  C   UNL     1     104.520 124.572 146.624  0.00  0.00    +0.000 A 
ATOM      8  C   UNL     1     105.834 124.929 146.194  0.00  0.00    +0.000 A 
ATOM      9  C   UNL     1     104.395 124.173 145.912  0.00  0.00    +0.000 A 
ATOM     10  C   UNL     1     105.709 124.531 145.482  0.00  0.00    +0.000 A 
ATOM     11  C   UNL     1     104.990 124.153 145.342  0.00  0.00    +0.000 A 
ATOM     12  C   UNL     1     103.650 123.776 145.754  0.00  0.00    +0.000 A 
ATOM     13  C   UNL     1     103.156 124.208 147.086  0.00  0.00    +0.000 A 
ATOM     14  C   UNL     1     103.026 123.793 146.345  0.00  0.00    +0.000 A 
ENDROOT
BRANCH   6  21
ATOM     15  O   UNL     1     105.097 126.123 147.568  0.00  0.00    +0.000 OA
ATOM     16  O   UNL     1     106.022 124.195 148.005  0.00  0.00    +0.000 OA
ATOM     17  O   UNL     1     106.272 124.991 149.429  0.00  0.00    +0.000 OA
ATOM     18  O   UNL     1     105.738 126.542 149.612  0.00  0.00    +0.000 OA
ATOM     19  C   UNL     1     105.755 124.971 148.097  0.00  0.00    +0.000 C 
ATOM     20  C   UNL     1     105.880 125.369 148.809  0.00  0.00    +0.000 C 
ATOM     21  C   UNL     1     105.364 125.347 147.476  0.00  0.00    +0.000 C 
ATOM     22  C   UNL     1     105.613 126.144 148.899  0.00  0.00    +0.000 C 
ATOM     23  C   UNL     1     105.222 126.521 148.279  0.00  0.00    +0.000 C 
BRANCH  23  25
ATOM     24  O   UNL     1     104.470 127.635 147.793  0.00  0.00    +0.000 OA
ATOM     25  C   UNL     1     104.955 127.296 148.370  0.00  0.00    +0.000 C 
ENDBRANCH  23  25
ENDBRANCH   6  21
BRANCH  13  27
ATOM     26  O   UNL     1     100.783 124.294 149.378  0.00  0.00    +0.000 OA
ATOM     27  C   UNL     1     102.563 124.230 147.659  0.00  0.00    +0.000 A 
ATOM     28  C   UNL     1     102.004 124.836 147.652  0.00  0.00    +0.000 A 
ATOM     29  C   UNL     1     102.528 123.644 148.239  0.00  0.00    +0.000 A 
ATOM     30  C   UNL     1     101.411 124.858 148.225  0.00  0.00    +0.000 A 
ATOM     31  C   UNL     1     101.935 123.665 148.813  0.00  0.00    +0.000 A 
ATOM     32  C   UNL     1     101.376 124.273 148.805  0.00  0.00    +0.000 A 
ENDBRANCH  13  27
TORSDOF 3
ENDMDL
MODEL 10
REMARK VINA RESULT:      -9.4      1.816      4.114
REMARK  Name = 131833502
REMARK  3 active torsions:
REMARK  status: ('A' for Active; 'I' for Inactive)
REMARK    1  A    between atoms: C_14  and  C_17
REMARK    2  A    between atoms: C_16  and  C_18
REMARK    3  A    between atoms: C_25  and  C_27
REMARK                            x       y       z     vdW  Elec       q    Type
REMARK                         _______ _______ _______ _____ _____    ______ ____
ROOT
ATOM      1  O   UNL     1     112.620 126.258 138.570  0.00  0.00    +0.000 OA
ATOM      2  O   UNL     1     111.011 124.646 136.805  0.00  0.00    +0.000 OA
ATOM      3  O   UNL     1     112.361 123.873 136.255  0.00  0.00    +0.000 OA
ATOM      4  O   UNL     1     113.846 124.278 136.851  0.00  0.00    +0.000 OA
ATOM      5  O   UNL     1     114.686 125.065 137.720  0.00  0.00    +0.000 OA
ATOM      6  C   UNL     1     111.821 125.439 137.676  0.00  0.00    +0.000 A 
ATOM      7  C   UNL     1     112.563 125.641 137.974  0.00  0.00    +0.000 A 
ATOM      8  C   UNL     1     111.754 124.849 137.103  0.00  0.00    +0.000 A 
ATOM      9  C   UNL     1     113.238 125.255 137.698  0.00  0.00    +0.000 A 
ATOM     10  C   UNL     1     112.429 124.462 136.828  0.00  0.00    +0.000 A 
ATOM     11  C   UNL     1     113.170 124.665 137.126  0.00  0.00    +0.000 A 
ATOM     12  C   UNL     1     114.017 125.457 138.001  0.00  0.00    +0.000 A 
ATOM     13  C   UNL     1     113.390 126.473 138.884  0.00  0.00    +0.000 A 
ATOM     14  C   UNL     1     114.093 126.071 138.598  0.00  0.00    +0.000 A 
ENDROOT
BRANCH   6  21
ATOM     15  O   UNL     1     110.787 125.580 138.651  0.00  0.00    +0.000 OA
ATOM     16  O   UNL     1     111.191 126.703 136.824  0.00  0.00    +0.000 OA
ATOM     17  O   UNL     1     109.841 127.476 137.375  0.00  0.00    +0.000 OA
ATOM     18  O   UNL     1     109.121 126.986 138.776  0.00  0.00    +0.000 OA
ATOM     19  C   UNL     1     110.831 126.457 137.526  0.00  0.00    +0.000 C 
ATOM     20  C   UNL     1     110.156 126.844 137.801  0.00  0.00    +0.000 C 
ATOM     21  C   UNL     1     111.147 125.825 137.951  0.00  0.00    +0.000 C 
ATOM     22  C   UNL     1     109.797 126.598 138.501  0.00  0.00    +0.000 C 
ATOM     23  C   UNL     1     110.112 125.967 138.927  0.00  0.00    +0.000 C 
BRANCH  23  25
ATOM     24  O   UNL     1     110.197 125.326 140.202  0.00  0.00    +0.000 OA
ATOM     25  C   UNL     1     109.753 125.720 139.628  0.00  0.00    +0.000 C 
ENDBRANCH  23  25
ENDBRANCH   6  21
BRANCH  13  27
ATOM     26  O   UNL     1     113.648 128.833 141.177  0.00  0.00    +0.000 OA
ATOM     27  C   UNL     1     113.454 127.063 139.457  0.00  0.00    +0.000 A 
ATOM     28  C   UNL     1     113.461 127.857 139.234  0.00  0.00    +0.000 A 
ATOM     29  C   UNL     1     113.513 126.860 140.254  0.00  0.00    +0.000 A 
ATOM     30  C   UNL     1     113.525 128.447 139.807  0.00  0.00    +0.000 A 
ATOM     31  C   UNL     1     113.577 127.449 140.828  0.00  0.00    +0.000 A 
ATOM     32  C   UNL     1     113.583 128.243 140.604  0.00  0.00    +0.000 A 
ENDBRANCH  13  27
TORSDOF 3
ENDMDL
