MODEL 1
REMARK VINA RESULT:      -9.8      0.000      0.000
REMARK  Name = 44258969
REMARK  8 active torsions:
REMARK  status: ('A' for Active; 'I' for Inactive)
REMARK    1  A    between atoms: O_1  and  C_17
REMARK    2  A    between atoms: O_1  and  C_19
REMARK    3  A    between atoms: O_8  and  C_26
REMARK    4  A    between atoms: O_8  and  C_29
REMARK    5  A    between atoms: O_10  and  C_28
REMARK    6  A    between atoms: O_10  and  C_32
REMARK    7  A    between atoms: C_25  and  C_28
REMARK    8  A    between atoms: C_30  and  C_34
REMARK                            x       y       z     vdW  Elec       q    Type
REMARK                         _______ _______ _______ _____ _____    ______ ____
ROOT
ATOM      1  O   UNL     1     111.809 128.040 137.527  0.00  0.00    +0.000 OA
ATOM      2  O   UNL     1     110.337 128.867 139.336  0.00  0.00    +0.000 OA
ATOM      3  O   UNL     1     110.243 127.293 138.851  0.00  0.00    +0.000 OA
ATOM      4  C   UNL     1     111.366 129.102 138.372  0.00  0.00    +0.000 C 
ATOM      5  C   UNL     1     110.827 128.592 138.733  0.00  0.00    +0.000 C 
ATOM      6  C   UNL     1     111.856 128.827 137.770  0.00  0.00    +0.000 C 
ATOM      7  C   UNL     1     110.780 127.804 138.491  0.00  0.00    +0.000 C 
ATOM      8  C   UNL     1     111.272 127.528 137.887  0.00  0.00    +0.000 C 
ATOM      9  C   UNL     1     112.394 129.338 137.409  0.00  0.00    +0.000 C 
ENDROOT
BRANCH   4  10
ATOM     10  O   UNL     1     111.413 129.890 138.615  0.00  0.00    +0.000 OA
BRANCH  10  15
ATOM     11  O   UNL     1     110.394 130.263 137.684  0.00  0.00    +0.000 OA
ATOM     12  O   UNL     1     111.247 131.343 139.379  0.00  0.00    +0.000 OA
ATOM     13  O   UNL     1     110.145 132.442 138.830  0.00  0.00    +0.000 OA
ATOM     14  O   UNL     1     109.210 132.089 137.517  0.00  0.00    +0.000 OA
ATOM     15  C   UNL     1     110.862 130.440 138.341  0.00  0.00    +0.000 C 
ATOM     16  C   UNL     1     110.779 131.166 138.723  0.00  0.00    +0.000 C 
ATOM     17  C   UNL     1     110.228 131.716 138.448  0.00  0.00    +0.000 C 
ATOM     18  C   UNL     1     109.761 131.539 137.792  0.00  0.00    +0.000 C 
ATOM     19  C   UNL     1     109.844 130.813 137.410  0.00  0.00    +0.000 C 
BRANCH  19  20
ATOM     20  C   UNL     1     109.376 130.636 136.753  0.00  0.00    +0.000 C 
BRANCH  20  21
ATOM     21  O   UNL     1     109.727 130.360 136.060  0.00  0.00    +0.000 OA
BRANCH  21  23
ATOM     22  O   UNL     1     108.601 129.598 135.620  0.00  0.00    +0.000 OA
ATOM     23  C   UNL     1     109.257 130.068 135.448  0.00  0.00    +0.000 C 
ATOM     24  C   UNL     1     109.443 130.247 134.664  0.00  0.00    +0.000 C 
ENDBRANCH  21  23
ENDBRANCH  20  21
ENDBRANCH  19  20
ENDBRANCH  10  15
ENDBRANCH   4  10
BRANCH   8  25
ATOM     25  O   UNL     1     111.225 126.741 137.645  0.00  0.00    +0.000 OA
BRANCH  25  30
ATOM     26  O   UNL     1     112.608 125.641 136.364  0.00  0.00    +0.000 OA
ATOM     27  O   UNL     1     112.524 126.585 138.650  0.00  0.00    +0.000 OA
ATOM     28  O   UNL     1     113.862 126.120 138.922  0.00  0.00    +0.000 OA
ATOM     29  O   UNL     1     115.313 124.674 136.841  0.00  0.00    +0.000 OA
ATOM     30  C   UNL     1     111.902 126.349 137.386  0.00  0.00    +0.000 A 
ATOM     31  C   UNL     1     111.930 126.034 136.623  0.00  0.00    +0.000 A 
ATOM     32  C   UNL     1     112.552 126.270 137.888  0.00  0.00    +0.000 A 
ATOM     33  C   UNL     1     113.229 125.878 137.629  0.00  0.00    +0.000 A 
ATOM     34  C   UNL     1     113.257 125.563 136.867  0.00  0.00    +0.000 A 
ATOM     35  C   UNL     1     113.899 125.803 138.162  0.00  0.00    +0.000 A 
ATOM     36  C   UNL     1     113.957 125.152 136.585  0.00  0.00    +0.000 A 
ATOM     37  C   UNL     1     114.607 125.395 137.897  0.00  0.00    +0.000 A 
ATOM     38  C   UNL     1     114.636 125.067 137.103  0.00  0.00    +0.000 A 
BRANCH  31  40
ATOM     39  O   UNL     1     109.332 126.343 134.612  0.00  0.00    +0.000 OA
ATOM     40  C   UNL     1     111.281 126.112 136.120  0.00  0.00    +0.000 A 
ATOM     41  C   UNL     1     111.305 126.649 135.495  0.00  0.00    +0.000 A 
ATOM     42  C   UNL     1     110.607 125.651 136.243  0.00  0.00    +0.000 A 
ATOM     43  C   UNL     1     110.655 126.726 134.992  0.00  0.00    +0.000 A 
ATOM     44  C   UNL     1     109.957 125.729 135.740  0.00  0.00    +0.000 A 
ATOM     45  C   UNL     1     109.982 126.267 135.115  0.00  0.00    +0.000 A 
ENDBRANCH  31  40
ENDBRANCH  25  30
ENDBRANCH   8  25
TORSDOF 8
ENDMDL
MODEL 2
REMARK VINA RESULT:      -9.8      1.490      3.240
REMARK  Name = 44258969
REMARK  8 active torsions:
REMARK  status: ('A' for Active; 'I' for Inactive)
REMARK    1  A    between atoms: O_1  and  C_17
REMARK    2  A    between atoms: O_1  and  C_19
REMARK    3  A    between atoms: O_8  and  C_26
REMARK    4  A    between atoms: O_8  and  C_29
REMARK    5  A    between atoms: O_10  and  C_28
REMARK    6  A    between atoms: O_10  and  C_32
REMARK    7  A    between atoms: C_25  and  C_28
REMARK    8  A    between atoms: C_30  and  C_34
REMARK                            x       y       z     vdW  Elec       q    Type
REMARK                         _______ _______ _______ _____ _____    ______ ____
ROOT
ATOM      1  O   UNL     1     111.252 127.396 137.484  0.00  0.00    +0.000 OA
ATOM      2  O   UNL     1     108.819 127.125 137.123  0.00  0.00    +0.000 OA
ATOM      3  O   UNL     1     109.594 126.198 138.246  0.00  0.00    +0.000 OA
ATOM      4  C   UNL     1     110.053 127.770 136.802  0.00  0.00    +0.000 C 
ATOM      5  C   UNL     1     109.629 127.216 137.243  0.00  0.00    +0.000 C 
ATOM      6  C   UNL     1     110.864 127.860 136.923  0.00  0.00    +0.000 C 
ATOM      7  C   UNL     1     110.017 126.752 137.804  0.00  0.00    +0.000 C 
ATOM      8  C   UNL     1     110.829 126.842 137.925  0.00  0.00    +0.000 C 
ATOM      9  C   UNL     1     111.288 128.414 136.482  0.00  0.00    +0.000 C 
ENDROOT
BRANCH   4  10
ATOM     10  O   UNL     1     109.666 128.233 136.241  0.00  0.00    +0.000 OA
BRANCH  10  15
ATOM     11  O   UNL     1     109.453 129.253 137.220  0.00  0.00    +0.000 OA
ATOM     12  O   UNL     1     108.712 129.057 135.176  0.00  0.00    +0.000 OA
ATOM     13  O   UNL     1     108.023 130.489 135.622  0.00  0.00    +0.000 OA
ATOM     14  O   UNL     1     108.287 131.096 137.134  0.00  0.00    +0.000 OA
ATOM     15  C   UNL     1     109.321 128.949 136.463  0.00  0.00    +0.000 C 
ATOM     16  C   UNL     1     108.844 129.361 135.931  0.00  0.00    +0.000 C 
ATOM     17  C   UNL     1     108.500 130.077 136.155  0.00  0.00    +0.000 C 
ATOM     18  C   UNL     1     108.632 130.380 136.910  0.00  0.00    +0.000 C 
ATOM     19  C   UNL     1     109.108 129.968 137.442  0.00  0.00    +0.000 C 
BRANCH  19  20
ATOM     20  C   UNL     1     109.241 130.272 138.199  0.00  0.00    +0.000 C 
BRANCH  20  21
ATOM     21  O   UNL     1     109.022 129.834 138.862  0.00  0.00    +0.000 OA
BRANCH  21  23
ATOM     22  O   UNL     1     109.997 130.499 139.668  0.00  0.00    +0.000 OA
ATOM     23  C   UNL     1     109.315 130.039 139.606  0.00  0.00    +0.000 C 
ATOM     24  C   UNL     1     108.925 129.784 140.287  0.00  0.00    +0.000 C 
ENDBRANCH  21  23
ENDBRANCH  20  21
ENDBRANCH  19  20
ENDBRANCH  10  15
ENDBRANCH   4  10
BRANCH   8  25
ATOM     25  O   UNL     1     111.217 126.378 138.486  0.00  0.00    +0.000 OA
BRANCH  25  30
ATOM     26  O   UNL     1     113.366 126.104 138.751  0.00  0.00    +0.000 OA
ATOM     27  O   UNL     1     111.579 125.460 137.164  0.00  0.00    +0.000 OA
ATOM     28  O   UNL     1     112.525 124.742 136.345  0.00  0.00    +0.000 OA
ATOM     29  O   UNL     1     115.333 124.676 137.147  0.00  0.00    +0.000 OA
ATOM     30  C   UNL     1     111.993 126.134 138.354  0.00  0.00    +0.000 A 
ATOM     31  C   UNL     1     112.588 126.349 138.883  0.00  0.00    +0.000 A 
ATOM     32  C   UNL     1     112.175 125.675 137.693  0.00  0.00    +0.000 A 
ATOM     33  C   UNL     1     112.951 125.430 137.561  0.00  0.00    +0.000 A 
ATOM     34  C   UNL     1     113.546 125.645 138.090  0.00  0.00    +0.000 A 
ATOM     35  C   UNL     1     113.127 124.952 136.868  0.00  0.00    +0.000 A 
ATOM     36  C   UNL     1     114.360 125.397 137.962  0.00  0.00    +0.000 A 
ATOM     37  C   UNL     1     113.934 124.695 136.725  0.00  0.00    +0.000 A 
ATOM     38  C   UNL     1     114.555 124.919 137.277  0.00  0.00    +0.000 A 
BRANCH  31  40
ATOM     39  O   UNL     1     111.867 128.187 141.527  0.00  0.00    +0.000 OA
ATOM     40  C   UNL     1     112.408 126.808 139.544  0.00  0.00    +0.000 A 
ATOM     41  C   UNL     1     112.003 126.474 140.181  0.00  0.00    +0.000 A 
ATOM     42  C   UNL     1     112.633 127.602 139.568  0.00  0.00    +0.000 A 
ATOM     43  C   UNL     1     111.823 126.934 140.841  0.00  0.00    +0.000 A 
ATOM     44  C   UNL     1     112.452 128.061 140.229  0.00  0.00    +0.000 A 
ATOM     45  C   UNL     1     112.047 127.727 140.866  0.00  0.00    +0.000 A 
ENDBRANCH  31  40
ENDBRANCH  25  30
ENDBRANCH   8  25
TORSDOF 8
ENDMDL
MODEL 3
REMARK VINA RESULT:      -9.7      1.739      4.274
REMARK  Name = 44258969
REMARK  8 active torsions:
REMARK  status: ('A' for Active; 'I' for Inactive)
REMARK    1  A    between atoms: O_1  and  C_17
REMARK    2  A    between atoms: O_1  and  C_19
REMARK    3  A    between atoms: O_8  and  C_26
REMARK    4  A    between atoms: O_8  and  C_29
REMARK    5  A    between atoms: O_10  and  C_28
REMARK    6  A    between atoms: O_10  and  C_32
REMARK    7  A    between atoms: C_25  and  C_28
REMARK    8  A    between atoms: C_30  and  C_34
REMARK                            x       y       z     vdW  Elec       q    Type
REMARK                         _______ _______ _______ _____ _____    ______ ____
ROOT
ATOM      1  O   UNL     1     112.039 127.985 137.714  0.00  0.00    +0.000 OA
ATOM      2  O   UNL     1     113.254 130.138 137.821  0.00  0.00    +0.000 OA
ATOM      3  O   UNL     1     113.683 129.003 136.703  0.00  0.00    +0.000 OA
ATOM      4  C   UNL     1     112.229 129.269 138.309  0.00  0.00    +0.000 C 
ATOM      5  C   UNL     1     112.849 129.420 137.786  0.00  0.00    +0.000 C 
ATOM      6  C   UNL     1     111.824 128.552 138.273  0.00  0.00    +0.000 C 
ATOM      7  C   UNL     1     113.064 128.853 137.227  0.00  0.00    +0.000 C 
ATOM      8  C   UNL     1     112.659 128.135 137.191  0.00  0.00    +0.000 C 
ATOM      9  C   UNL     1     111.204 128.401 138.797  0.00  0.00    +0.000 C 
ENDROOT
BRANCH   4  10
ATOM     10  O   UNL     1     112.014 129.837 138.868  0.00  0.00    +0.000 OA
BRANCH  10  15
ATOM     11  O   UNL     1     112.953 129.283 139.792  0.00  0.00    +0.000 OA
ATOM     12  O   UNL     1     111.649 131.026 139.952  0.00  0.00    +0.000 OA
ATOM     13  O   UNL     1     112.404 131.067 141.418  0.00  0.00    +0.000 OA
ATOM     14  O   UNL     1     113.526 129.918 141.800  0.00  0.00    +0.000 OA
ATOM     15  C   UNL     1     112.392 129.858 139.601  0.00  0.00    +0.000 C 
ATOM     16  C   UNL     1     112.209 130.452 140.143  0.00  0.00    +0.000 C 
ATOM     17  C   UNL     1     112.587 130.472 140.876  0.00  0.00    +0.000 C 
ATOM     18  C   UNL     1     113.148 129.899 141.067  0.00  0.00    +0.000 C 
ATOM     19  C   UNL     1     113.330 129.304 140.525  0.00  0.00    +0.000 C 
BRANCH  19  20
ATOM     20  C   UNL     1     113.892 128.729 140.717  0.00  0.00    +0.000 C 
BRANCH  20  21
ATOM     21  O   UNL     1     113.651 127.957 140.880  0.00  0.00    +0.000 OA
BRANCH  21  23
ATOM     22  O   UNL     1     114.968 127.475 140.602  0.00  0.00    +0.000 OA
ATOM     23  C   UNL     1     114.207 127.348 140.894  0.00  0.00    +0.000 C 
ATOM     24  C   UNL     1     114.001 126.610 141.202  0.00  0.00    +0.000 C 
ENDBRANCH  21  23
ENDBRANCH  20  21
ENDBRANCH  19  20
ENDBRANCH  10  15
ENDBRANCH   4  10
BRANCH   8  25
ATOM     25  O   UNL     1     112.873 127.567 136.632  0.00  0.00    +0.000 OA
BRANCH  25  30
ATOM     26  O   UNL     1     111.807 125.747 136.071  0.00  0.00    +0.000 OA
ATOM     27  O   UNL     1     111.573 128.199 135.837  0.00  0.00    +0.000 OA
ATOM     28  O   UNL     1     110.337 128.041 135.110  0.00  0.00    +0.000 OA
ATOM     29  O   UNL     1     109.319 125.349 134.612  0.00  0.00    +0.000 OA
ATOM     30  C   UNL     1     112.302 127.066 136.312  0.00  0.00    +0.000 A 
ATOM     31  C   UNL     1     112.380 126.249 136.391  0.00  0.00    +0.000 A 
ATOM     32  C   UNL     1     111.651 127.382 135.915  0.00  0.00    +0.000 A 
ATOM     33  C   UNL     1     111.079 126.881 135.596  0.00  0.00    +0.000 A 
ATOM     34  C   UNL     1     111.157 126.063 135.674  0.00  0.00    +0.000 A 
ATOM     35  C   UNL     1     110.406 127.222 135.184  0.00  0.00    +0.000 A 
ATOM     36  C   UNL     1     110.568 125.531 135.345  0.00  0.00    +0.000 A 
ATOM     37  C   UNL     1     109.808 126.705 134.849  0.00  0.00    +0.000 A 
ATOM     38  C   UNL     1     109.889 125.853 134.930  0.00  0.00    +0.000 A 
BRANCH  31  40
ATOM     39  O   UNL     1     114.978 124.981 137.982  0.00  0.00    +0.000 OA
ATOM     40  C   UNL     1     113.029 125.932 136.788  0.00  0.00    +0.000 A 
ATOM     41  C   UNL     1     113.768 125.910 136.420  0.00  0.00    +0.000 A 
ATOM     42  C   UNL     1     112.940 125.637 137.554  0.00  0.00    +0.000 A 
ATOM     43  C   UNL     1     114.417 125.592 136.819  0.00  0.00    +0.000 A 
ATOM     44  C   UNL     1     113.590 125.321 137.951  0.00  0.00    +0.000 A 
ATOM     45  C   UNL     1     114.328 125.298 137.584  0.00  0.00    +0.000 A 
ENDBRANCH  31  40
ENDBRANCH  25  30
ENDBRANCH   8  25
TORSDOF 8
ENDMDL
MODEL 4
REMARK VINA RESULT:      -9.7      2.422      4.240
REMARK  Name = 44258969
REMARK  8 active torsions:
REMARK  status: ('A' for Active; 'I' for Inactive)
REMARK    1  A    between atoms: O_1  and  C_17
REMARK    2  A    between atoms: O_1  and  C_19
REMARK    3  A    between atoms: O_8  and  C_26
REMARK    4  A    between atoms: O_8  and  C_29
REMARK    5  A    between atoms: O_10  and  C_28
REMARK    6  A    between atoms: O_10  and  C_32
REMARK    7  A    between atoms: C_25  and  C_28
REMARK    8  A    between atoms: C_30  and  C_34
REMARK                            x       y       z     vdW  Elec       q    Type
REMARK                         _______ _______ _______ _____ _____    ______ ____
ROOT
ATOM      1  O   UNL     1     112.171 126.995 139.015  0.00  0.00    +0.000 OA
ATOM      2  O   UNL     1     113.645 126.748 140.987  0.00  0.00    +0.000 OA
ATOM      3  O   UNL     1     114.219 126.401 139.480  0.00  0.00    +0.000 OA
ATOM      4  C   UNL     1     112.375 127.086 140.426  0.00  0.00    +0.000 C 
ATOM      5  C   UNL     1     113.154 126.830 140.330  0.00  0.00    +0.000 C 
ATOM      6  C   UNL     1     111.884 127.168 139.769  0.00  0.00    +0.000 C 
ATOM      7  C   UNL     1     113.441 126.657 139.577  0.00  0.00    +0.000 C 
ATOM      8  C   UNL     1     112.949 126.739 138.918  0.00  0.00    +0.000 C 
ATOM      9  C   UNL     1     111.105 127.424 139.864  0.00  0.00    +0.000 C 
ENDROOT
BRANCH   4  10
ATOM     10  O   UNL     1     112.088 127.259 141.179  0.00  0.00    +0.000 OA
BRANCH  10  15
ATOM     11  O   UNL     1     112.614 128.584 141.085  0.00  0.00    +0.000 OA
ATOM     12  O   UNL     1     111.306 127.669 142.574  0.00  0.00    +0.000 OA
ATOM     13  O   UNL     1     111.442 129.199 143.176  0.00  0.00    +0.000 OA
ATOM     14  O   UNL     1     112.360 130.319 142.385  0.00  0.00    +0.000 OA
ATOM     15  C   UNL     1     112.155 128.024 141.481  0.00  0.00    +0.000 C 
ATOM     16  C   UNL     1     111.764 128.229 142.178  0.00  0.00    +0.000 C 
ATOM     17  C   UNL     1     111.833 128.994 142.479  0.00  0.00    +0.000 C 
ATOM     18  C   UNL     1     112.291 129.554 142.084  0.00  0.00    +0.000 C 
ATOM     19  C   UNL     1     112.682 129.349 141.387  0.00  0.00    +0.000 C 
BRANCH  19  20
ATOM     20  C   UNL     1     113.141 129.909 140.991  0.00  0.00    +0.000 C 
BRANCH  20  21
ATOM     21  O   UNL     1     113.962 129.832 140.975  0.00  0.00    +0.000 OA
BRANCH  21  23
ATOM     22  O   UNL     1     114.052 130.946 140.084  0.00  0.00    +0.000 OA
ATOM     23  C   UNL     1     114.412 130.325 140.491  0.00  0.00    +0.000 C 
ATOM     24  C   UNL     1     115.224 130.197 140.413  0.00  0.00    +0.000 C 
ENDBRANCH  21  23
ENDBRANCH  20  21
ENDBRANCH  19  20
ENDBRANCH  10  15
ENDBRANCH   4  10
BRANCH   8  25
ATOM     25  O   UNL     1     113.236 126.566 138.165  0.00  0.00    +0.000 OA
BRANCH  25  30
ATOM     26  O   UNL     1     112.272 126.952 136.245  0.00  0.00    +0.000 OA
ATOM     27  O   UNL     1     113.389 128.205 138.064  0.00  0.00    +0.000 OA
ATOM     28  O   UNL     1     113.180 129.453 137.371  0.00  0.00    +0.000 OA
ATOM     29  O   UNL     1     111.815 129.432 134.789  0.00  0.00    +0.000 OA
ATOM     30  C   UNL     1     112.941 126.968 137.509  0.00  0.00    +0.000 A 
ATOM     31  C   UNL     1     112.568 126.550 136.902  0.00  0.00    +0.000 A 
ATOM     32  C   UNL     1     113.017 127.788 137.457  0.00  0.00    +0.000 A 
ATOM     33  C   UNL     1     112.721 128.190 136.801  0.00  0.00    +0.000 A 
ATOM     34  C   UNL     1     112.349 127.772 136.195  0.00  0.00    +0.000 A 
ATOM     35  C   UNL     1     112.807 129.044 136.760  0.00  0.00    +0.000 A 
ATOM     36  C   UNL     1     112.036 128.180 135.506  0.00  0.00    +0.000 A 
ATOM     37  C   UNL     1     112.500 129.468 136.079  0.00  0.00    +0.000 A 
ATOM     38  C   UNL     1     112.112 129.033 135.447  0.00  0.00    +0.000 A 
BRANCH  31  40
ATOM     39  O   UNL     1     112.259 123.270 137.103  0.00  0.00    +0.000 OA
ATOM     40  C   UNL     1     112.492 125.730 136.952  0.00  0.00    +0.000 A 
ATOM     41  C   UNL     1     113.148 125.246 136.831  0.00  0.00    +0.000 A 
ATOM     42  C   UNL     1     111.757 125.394 137.124  0.00  0.00    +0.000 A 
ATOM     43  C   UNL     1     113.070 124.426 136.881  0.00  0.00    +0.000 A 
ATOM     44  C   UNL     1     111.680 124.575 137.174  0.00  0.00    +0.000 A 
ATOM     45  C   UNL     1     112.337 124.090 137.052  0.00  0.00    +0.000 A 
ENDBRANCH  31  40
ENDBRANCH  25  30
ENDBRANCH   8  25
TORSDOF 8
ENDMDL
MODEL 5
REMARK VINA RESULT:      -9.6      1.636      2.769
REMARK  Name = 44258969
REMARK  8 active torsions:
REMARK  status: ('A' for Active; 'I' for Inactive)
REMARK    1  A    between atoms: O_1  and  C_17
REMARK    2  A    between atoms: O_1  and  C_19
REMARK    3  A    between atoms: O_8  and  C_26
REMARK    4  A    between atoms: O_8  and  C_29
REMARK    5  A    between atoms: O_10  and  C_28
REMARK    6  A    between atoms: O_10  and  C_32
REMARK    7  A    between atoms: C_25  and  C_28
REMARK    8  A    between atoms: C_30  and  C_34
REMARK                            x       y       z     vdW  Elec       q    Type
REMARK                         _______ _______ _______ _____ _____    ______ ____
ROOT
ATOM      1  O   UNL     1     111.106 128.177 137.552  0.00  0.00    +0.000 OA
ATOM      2  O   UNL     1     108.906 129.167 137.003  0.00  0.00    +0.000 OA
ATOM      3  O   UNL     1     109.918 128.685 135.792  0.00  0.00    +0.000 OA
ATOM      4  C   UNL     1     109.867 128.748 137.974  0.00  0.00    +0.000 C 
ATOM      5  C   UNL     1     109.639 128.838 137.186  0.00  0.00    +0.000 C 
ATOM      6  C   UNL     1     110.600 128.418 138.157  0.00  0.00    +0.000 C 
ATOM      7  C   UNL     1     110.145 128.596 136.581  0.00  0.00    +0.000 C 
ATOM      8  C   UNL     1     110.879 128.266 136.764  0.00  0.00    +0.000 C 
ATOM      9  C   UNL     1     110.828 128.329 138.945  0.00  0.00    +0.000 C 
ENDROOT
BRANCH   4  10
ATOM     10  O   UNL     1     109.361 128.989 138.579  0.00  0.00    +0.000 OA
BRANCH  10  15
ATOM     11  O   UNL     1     109.933 130.298 138.541  0.00  0.00    +0.000 OA
ATOM     12  O   UNL     1     108.451 129.425 139.885  0.00  0.00    +0.000 OA
ATOM     13  O   UNL     1     108.569 130.952 140.500  0.00  0.00    +0.000 OA
ATOM     14  O   UNL     1     109.596 132.043 139.809  0.00  0.00    +0.000 OA
ATOM     15  C   UNL     1     109.419 129.752 138.887  0.00  0.00    +0.000 C 
ATOM     16  C   UNL     1     108.964 129.970 139.540  0.00  0.00    +0.000 C 
ATOM     17  C   UNL     1     109.024 130.734 139.847  0.00  0.00    +0.000 C 
ATOM     18  C   UNL     1     109.537 131.279 139.502  0.00  0.00    +0.000 C 
ATOM     19  C   UNL     1     109.992 131.061 138.849  0.00  0.00    +0.000 C 
BRANCH  19  20
ATOM     20  C   UNL     1     110.506 131.607 138.503  0.00  0.00    +0.000 C 
BRANCH  20  21
ATOM     21  O   UNL     1     110.426 131.799 137.705  0.00  0.00    +0.000 OA
BRANCH  21  23
ATOM     22  O   UNL     1     111.801 132.051 137.405  0.00  0.00    +0.000 OA
ATOM     23  C   UNL     1     111.004 132.254 137.331  0.00  0.00    +0.000 C 
ATOM     24  C   UNL     1     110.785 132.913 136.884  0.00  0.00    +0.000 C 
ENDBRANCH  21  23
ENDBRANCH  20  21
ENDBRANCH  19  20
ENDBRANCH  10  15
ENDBRANCH   4  10
BRANCH   8  25
ATOM     25  O   UNL     1     111.386 128.025 136.158  0.00  0.00    +0.000 OA
BRANCH  25  30
ATOM     26  O   UNL     1     113.158 126.761 136.316  0.00  0.00    +0.000 OA
ATOM     27  O   UNL     1     110.695 126.555 136.451  0.00  0.00    +0.000 OA
ATOM     28  O   UNL     1     110.799 125.138 136.703  0.00  0.00    +0.000 OA
ATOM     29  O   UNL     1     113.445 123.907 136.820  0.00  0.00    +0.000 OA
ATOM     30  C   UNL     1     111.861 127.359 136.260  0.00  0.00    +0.000 A 
ATOM     31  C   UNL     1     112.682 127.427 136.215  0.00  0.00    +0.000 A 
ATOM     32  C   UNL     1     111.516 126.623 136.406  0.00  0.00    +0.000 A 
ATOM     33  C   UNL     1     111.992 125.957 136.508  0.00  0.00    +0.000 A 
ATOM     34  C   UNL     1     112.813 126.026 136.463  0.00  0.00    +0.000 A 
ATOM     35  C   UNL     1     111.620 125.197 136.660  0.00  0.00    +0.000 A 
ATOM     36  C   UNL     1     113.319 125.339 136.567  0.00  0.00    +0.000 A 
ATOM     37  C   UNL     1     112.111 124.500 136.766  0.00  0.00    +0.000 A 
ATOM     38  C   UNL     1     112.966 124.571 136.719  0.00  0.00    +0.000 A 
BRANCH  31  40
ATOM     39  O   UNL     1     114.066 130.366 135.632  0.00  0.00    +0.000 OA
ATOM     40  C   UNL     1     113.027 128.162 136.068  0.00  0.00    +0.000 A 
ATOM     41  C   UNL     1     112.987 128.495 135.315  0.00  0.00    +0.000 A 
ATOM     42  C   UNL     1     113.414 128.564 136.677  0.00  0.00    +0.000 A 
ATOM     43  C   UNL     1     113.333 129.230 135.170  0.00  0.00    +0.000 A 
ATOM     44  C   UNL     1     113.760 129.298 136.531  0.00  0.00    +0.000 A 
ATOM     45  C   UNL     1     113.719 129.631 135.777  0.00  0.00    +0.000 A 
ENDBRANCH  31  40
ENDBRANCH  25  30
ENDBRANCH   8  25
TORSDOF 8
ENDMDL
MODEL 6
REMARK VINA RESULT:      -9.6      2.785      4.497
REMARK  Name = 44258969
REMARK  8 active torsions:
REMARK  status: ('A' for Active; 'I' for Inactive)
REMARK    1  A    between atoms: O_1  and  C_17
REMARK    2  A    between atoms: O_1  and  C_19
REMARK    3  A    between atoms: O_8  and  C_26
REMARK    4  A    between atoms: O_8  and  C_29
REMARK    5  A    between atoms: O_10  and  C_28
REMARK    6  A    between atoms: O_10  and  C_32
REMARK    7  A    between atoms: C_25  and  C_28
REMARK    8  A    between atoms: C_30  and  C_34
REMARK                            x       y       z     vdW  Elec       q    Type
REMARK                         _______ _______ _______ _____ _____    ______ ____
ROOT
ATOM      1  O   UNL     1     112.544 127.806 139.472  0.00  0.00    +0.000 OA
ATOM      2  O   UNL     1     114.485 127.836 141.007  0.00  0.00    +0.000 OA
ATOM      3  O   UNL     1     113.461 126.542 140.997  0.00  0.00    +0.000 OA
ATOM      4  C   UNL     1     113.702 128.463 139.989  0.00  0.00    +0.000 C 
ATOM      5  C   UNL     1     113.838 127.826 140.496  0.00  0.00    +0.000 C 
ATOM      6  C   UNL     1     113.056 128.453 139.477  0.00  0.00    +0.000 C 
ATOM      7  C   UNL     1     113.326 127.179 140.491  0.00  0.00    +0.000 C 
ATOM      8  C   UNL     1     112.679 127.169 139.979  0.00  0.00    +0.000 C 
ATOM      9  C   UNL     1     112.920 129.090 138.970  0.00  0.00    +0.000 C 
ENDROOT
BRANCH   4  10
ATOM     10  O   UNL     1     114.214 129.110 139.994  0.00  0.00    +0.000 OA
BRANCH  10  15
ATOM     11  O   UNL     1     113.405 129.747 140.984  0.00  0.00    +0.000 OA
ATOM     12  O   UNL     1     115.324 130.324 140.119  0.00  0.00    +0.000 OA
ATOM     13  O   UNL     1     115.070 131.569 141.172  0.00  0.00    +0.000 OA
ATOM     14  O   UNL     1     113.705 131.599 142.100  0.00  0.00    +0.000 OA
ATOM     15  C   UNL     1     114.087 129.732 140.520  0.00  0.00    +0.000 C 
ATOM     16  C   UNL     1     114.642 130.340 140.582  0.00  0.00    +0.000 C 
ATOM     17  C   UNL     1     114.515 130.962 141.109  0.00  0.00    +0.000 C 
ATOM     18  C   UNL     1     113.833 130.977 141.573  0.00  0.00    +0.000 C 
ATOM     19  C   UNL     1     113.278 130.370 141.510  0.00  0.00    +0.000 C 
BRANCH  19  20
ATOM     20  C   UNL     1     112.596 130.385 141.975  0.00  0.00    +0.000 C 
BRANCH  20  21
ATOM     21  O   UNL     1     112.448 129.775 142.510  0.00  0.00    +0.000 OA
BRANCH  21  23
ATOM     22  O   UNL     1     111.049 130.065 142.471  0.00  0.00    +0.000 OA
ATOM     23  C   UNL     1     111.687 129.664 142.808  0.00  0.00    +0.000 C 
ATOM     24  C   UNL     1     111.564 129.151 143.443  0.00  0.00    +0.000 C 
ENDBRANCH  21  23
ENDBRANCH  20  21
ENDBRANCH  19  20
ENDBRANCH  10  15
ENDBRANCH   4  10
BRANCH   8  25
ATOM     25  O   UNL     1     112.167 126.522 139.974  0.00  0.00    +0.000 OA
BRANCH  25  30
ATOM     26  O   UNL     1     110.652 126.028 138.482  0.00  0.00    +0.000 OA
ATOM     27  O   UNL     1     113.116 126.033 138.715  0.00  0.00    +0.000 OA
ATOM     28  O   UNL     1     113.273 125.539 137.369  0.00  0.00    +0.000 OA
ATOM     29  O   UNL     1     110.892 125.029 135.757  0.00  0.00    +0.000 OA
ATOM     30  C   UNL     1     111.821 126.276 139.267  0.00  0.00    +0.000 A 
ATOM     31  C   UNL     1     110.999 126.274 139.190  0.00  0.00    +0.000 A 
ATOM     32  C   UNL     1     112.294 126.032 138.637  0.00  0.00    +0.000 A 
ATOM     33  C   UNL     1     111.948 125.786 137.931  0.00  0.00    +0.000 A 
ATOM     34  C   UNL     1     111.127 125.784 137.853  0.00  0.00    +0.000 A 
ATOM     35  C   UNL     1     112.453 125.534 137.282  0.00  0.00    +0.000 A 
ATOM     36  C   UNL     1     110.753 125.530 137.122  0.00  0.00    +0.000 A 
ATOM     37  C   UNL     1     112.097 125.277 136.544  0.00  0.00    +0.000 A 
ATOM     38  C   UNL     1     111.241 125.274 136.463  0.00  0.00    +0.000 A 
BRANCH  31  40
ATOM     39  O   UNL     1     109.099 127.252 141.704  0.00  0.00    +0.000 OA
ATOM     40  C   UNL     1     110.524 126.518 139.818  0.00  0.00    +0.000 A 
ATOM     41  C   UNL     1     110.432 126.032 140.479  0.00  0.00    +0.000 A 
ATOM     42  C   UNL     1     110.141 127.248 139.786  0.00  0.00    +0.000 A 
ATOM     43  C   UNL     1     109.957 126.277 141.108  0.00  0.00    +0.000 A 
ATOM     44  C   UNL     1     109.666 127.492 140.415  0.00  0.00    +0.000 A 
ATOM     45  C   UNL     1     109.574 127.007 141.076  0.00  0.00    +0.000 A 
ENDBRANCH  31  40
ENDBRANCH  25  30
ENDBRANCH   8  25
TORSDOF 8
ENDMDL
MODEL 7
REMARK VINA RESULT:      -9.5      1.591      3.268
REMARK  Name = 44258969
REMARK  8 active torsions:
REMARK  status: ('A' for Active; 'I' for Inactive)
REMARK    1  A    between atoms: O_1  and  C_17
REMARK    2  A    between atoms: O_1  and  C_19
REMARK    3  A    between atoms: O_8  and  C_26
REMARK    4  A    between atoms: O_8  and  C_29
REMARK    5  A    between atoms: O_10  and  C_28
REMARK    6  A    between atoms: O_10  and  C_32
REMARK    7  A    between atoms: C_25  and  C_28
REMARK    8  A    between atoms: C_30  and  C_34
REMARK                            x       y       z     vdW  Elec       q    Type
REMARK                         _______ _______ _______ _____ _____    ______ ____
ROOT
ATOM      1  O   UNL     1     111.575 127.333 137.089  0.00  0.00    +0.000 OA
ATOM      2  O   UNL     1     111.428 128.713 135.041  0.00  0.00    +0.000 OA
ATOM      3  O   UNL     1     112.902 128.250 135.620  0.00  0.00    +0.000 OA
ATOM      4  C   UNL     1     110.789 128.024 136.117  0.00  0.00    +0.000 C 
ATOM      5  C   UNL     1     111.477 128.253 135.723  0.00  0.00    +0.000 C 
ATOM      6  C   UNL     1     110.838 127.565 136.800  0.00  0.00    +0.000 C 
ATOM      7  C   UNL     1     112.214 128.022 136.013  0.00  0.00    +0.000 C 
ATOM      8  C   UNL     1     112.263 127.561 136.696  0.00  0.00    +0.000 C 
ATOM      9  C   UNL     1     110.150 127.336 137.194  0.00  0.00    +0.000 C 
ENDROOT
BRANCH   4  10
ATOM     10  O   UNL     1     110.052 128.256 135.828  0.00  0.00    +0.000 OA
BRANCH  10  15
ATOM     11  O   UNL     1     110.139 129.490 136.544  0.00  0.00    +0.000 OA
ATOM     12  O   UNL     1     108.459 128.550 135.516  0.00  0.00    +0.000 OA
ATOM     13  O   UNL     1     107.749 129.931 136.076  0.00  0.00    +0.000 OA
ATOM     14  O   UNL     1     108.633 131.017 136.947  0.00  0.00    +0.000 OA
ATOM     15  C   UNL     1     109.697 128.946 136.108  0.00  0.00    +0.000 C 
ATOM     16  C   UNL     1     108.900 129.093 135.951  0.00  0.00    +0.000 C 
ATOM     17  C   UNL     1     108.546 129.784 136.232  0.00  0.00    +0.000 C 
ATOM     18  C   UNL     1     108.988 130.327 136.667  0.00  0.00    +0.000 C 
ATOM     19  C   UNL     1     109.784 130.180 136.823  0.00  0.00    +0.000 C 
BRANCH  19  20
ATOM     20  C   UNL     1     110.227 130.723 137.260  0.00  0.00    +0.000 C 
BRANCH  20  21
ATOM     21  O   UNL     1     110.826 131.155 136.893  0.00  0.00    +0.000 OA
BRANCH  21  23
ATOM     22  O   UNL     1     111.172 131.813 138.114  0.00  0.00    +0.000 OA
ATOM     23  C   UNL     1     111.371 131.573 137.350  0.00  0.00    +0.000 C 
ATOM     24  C   UNL     1     112.116 131.751 137.042  0.00  0.00    +0.000 C 
ENDBRANCH  21  23
ENDBRANCH  20  21
ENDBRANCH  19  20
ENDBRANCH  10  15
ENDBRANCH   4  10
BRANCH   8  25
ATOM     25  O   UNL     1     113.000 127.329 136.986  0.00  0.00    +0.000 OA
BRANCH  25  30
ATOM     26  O   UNL     1     113.436 126.368 138.896  0.00  0.00    +0.000 OA
ATOM     27  O   UNL     1     112.780 128.590 138.027  0.00  0.00    +0.000 OA
ATOM     28  O   UNL     1     112.771 129.141 139.360  0.00  0.00    +0.000 OA
ATOM     29  O   UNL     1     113.439 127.410 141.615  0.00  0.00    +0.000 OA
ATOM     30  C   UNL     1     113.109 127.219 137.795  0.00  0.00    +0.000 A 
ATOM     31  C   UNL     1     113.327 126.478 138.085  0.00  0.00    +0.000 A 
ATOM     32  C   UNL     1     112.999 127.850 138.317  0.00  0.00    +0.000 A 
ATOM     33  C   UNL     1     113.108 127.739 139.126  0.00  0.00    +0.000 A 
ATOM     34  C   UNL     1     113.326 126.999 139.416  0.00  0.00    +0.000 A 
ATOM     35  C   UNL     1     112.990 128.404 139.659  0.00  0.00    +0.000 A 
ATOM     36  C   UNL     1     113.443 126.871 140.258  0.00  0.00    +0.000 A 
ATOM     37  C   UNL     1     113.102 128.295 140.504  0.00  0.00    +0.000 A 
ATOM     38  C   UNL     1     113.330 127.523 140.806  0.00  0.00    +0.000 A 
BRANCH  31  40
ATOM     39  O   UNL     1     113.766 123.954 136.005  0.00  0.00    +0.000 OA
ATOM     40  C   UNL     1     113.438 125.848 137.565  0.00  0.00    +0.000 A 
ATOM     41  C   UNL     1     114.108 125.821 137.084  0.00  0.00    +0.000 A 
ATOM     42  C   UNL     1     112.877 125.243 137.526  0.00  0.00    +0.000 A 
ATOM     43  C   UNL     1     114.217 125.189 136.565  0.00  0.00    +0.000 A 
ATOM     44  C   UNL     1     112.987 124.612 137.006  0.00  0.00    +0.000 A 
ATOM     45  C   UNL     1     113.657 124.585 136.525  0.00  0.00    +0.000 A 
ENDBRANCH  31  40
ENDBRANCH  25  30
ENDBRANCH   8  25
TORSDOF 8
ENDMDL
MODEL 8
REMARK VINA RESULT:      -9.5      2.376      4.328
REMARK  Name = 44258969
REMARK  8 active torsions:
REMARK  status: ('A' for Active; 'I' for Inactive)
REMARK    1  A    between atoms: O_1  and  C_17
REMARK    2  A    between atoms: O_1  and  C_19
REMARK    3  A    between atoms: O_8  and  C_26
REMARK    4  A    between atoms: O_8  and  C_29
REMARK    5  A    between atoms: O_10  and  C_28
REMARK    6  A    between atoms: O_10  and  C_32
REMARK    7  A    between atoms: C_25  and  C_28
REMARK    8  A    between atoms: C_30  and  C_34
REMARK                            x       y       z     vdW  Elec       q    Type
REMARK                         _______ _______ _______ _____ _____    ______ ____
ROOT
ATOM      1  O   UNL     1     111.951 127.486 138.713  0.00  0.00    +0.000 OA
ATOM      2  O   UNL     1     113.367 126.613 140.545  0.00  0.00    +0.000 OA
ATOM      3  O   UNL     1     113.923 126.594 138.991  0.00  0.00    +0.000 OA
ATOM      4  C   UNL     1     112.144 127.205 140.100  0.00  0.00    +0.000 C 
ATOM      5  C   UNL     1     112.895 126.904 139.934  0.00  0.00    +0.000 C 
ATOM      6  C   UNL     1     111.673 127.496 139.489  0.00  0.00    +0.000 C 
ATOM      7  C   UNL     1     113.173 126.895 139.158  0.00  0.00    +0.000 C 
ATOM      8  C   UNL     1     112.701 127.186 138.546  0.00  0.00    +0.000 C 
ATOM      9  C   UNL     1     110.922 127.796 139.654  0.00  0.00    +0.000 C 
ENDROOT
BRANCH   4  10
ATOM     10  O   UNL     1     111.866 127.214 140.876  0.00  0.00    +0.000 OA
BRANCH  10  15
ATOM     11  O   UNL     1     112.399 128.528 141.053  0.00  0.00    +0.000 OA
ATOM     12  O   UNL     1     111.221 127.272 142.394  0.00  0.00    +0.000 OA
ATOM     13  O   UNL     1     111.432 128.615 143.329  0.00  0.00    +0.000 OA
ATOM     14  O   UNL     1     112.288 129.900 142.747  0.00  0.00    +0.000 OA
ATOM     15  C   UNL     1     111.971 127.885 141.344  0.00  0.00    +0.000 C 
ATOM     16  C   UNL     1     111.649 127.914 142.103  0.00  0.00    +0.000 C 
ATOM     17  C   UNL     1     111.755 128.586 142.571  0.00  0.00    +0.000 C 
ATOM     18  C   UNL     1     112.182 129.228 142.280  0.00  0.00    +0.000 C 
ATOM     19  C   UNL     1     112.504 129.199 141.521  0.00  0.00    +0.000 C 
BRANCH  19  20
ATOM     20  C   UNL     1     112.933 129.842 141.230  0.00  0.00    +0.000 C 
BRANCH  20  21
ATOM     21  O   UNL     1     113.708 129.736 140.968  0.00  0.00    +0.000 OA
BRANCH  21  23
ATOM     22  O   UNL     1     113.610 130.760 139.975  0.00  0.00    +0.000 OA
ATOM     23  C   UNL     1     114.065 130.312 140.497  0.00  0.00    +0.000 C 
ATOM     24  C   UNL     1     114.879 130.439 140.549  0.00  0.00    +0.000 C 
ENDBRANCH  21  23
ENDBRANCH  20  21
ENDBRANCH  19  20
ENDBRANCH  10  15
ENDBRANCH   4  10
BRANCH   8  25
ATOM     25  O   UNL     1     112.979 127.176 137.770  0.00  0.00    +0.000 OA
BRANCH  25  30
ATOM     26  O   UNL     1     111.841 127.389 135.919  0.00  0.00    +0.000 OA
ATOM     27  O   UNL     1     112.157 125.746 137.743  0.00  0.00    +0.000 OA
ATOM     28  O   UNL     1     111.224 124.836 137.125  0.00  0.00    +0.000 OA
ATOM     29  O   UNL     1     109.948 125.604 134.612  0.00  0.00    +0.000 OA
ATOM     30  C   UNL     1     112.463 127.009 137.149  0.00  0.00    +0.000 A 
ATOM     31  C   UNL     1     112.358 127.557 136.541  0.00  0.00    +0.000 A 
ATOM     32  C   UNL     1     112.051 126.294 137.135  0.00  0.00    +0.000 A 
ATOM     33  C   UNL     1     111.535 126.126 136.515  0.00  0.00    +0.000 A 
ATOM     34  C   UNL     1     111.430 126.674 135.907  0.00  0.00    +0.000 A 
ATOM     35  C   UNL     1     111.112 125.378 136.512  0.00  0.00    +0.000 A 
ATOM     36  C   UNL     1     110.895 126.511 135.254  0.00  0.00    +0.000 A 
ATOM     37  C   UNL     1     110.573 125.198 135.868  0.00  0.00    +0.000 A 
ATOM     38  C   UNL     1     110.464 125.769 135.234  0.00  0.00    +0.000 A 
BRANCH  31  40
ATOM     39  O   UNL     1     114.004 130.416 136.591  0.00  0.00    +0.000 OA
ATOM     40  C   UNL     1     112.769 128.272 136.554  0.00  0.00    +0.000 A 
ATOM     41  C   UNL     1     112.379 128.968 136.762  0.00  0.00    +0.000 A 
ATOM     42  C   UNL     1     113.571 128.290 136.358  0.00  0.00    +0.000 A 
ATOM     43  C   UNL     1     112.791 129.683 136.774  0.00  0.00    +0.000 A 
ATOM     44  C   UNL     1     113.981 129.005 136.370  0.00  0.00    +0.000 A 
ATOM     45  C   UNL     1     113.592 129.702 136.579  0.00  0.00    +0.000 A 
ENDBRANCH  31  40
ENDBRANCH  25  30
ENDBRANCH   8  25
TORSDOF 8
ENDMDL
MODEL 9
REMARK VINA RESULT:      -9.5      1.407      5.038
REMARK  Name = 44258969
REMARK  8 active torsions:
REMARK  status: ('A' for Active; 'I' for Inactive)
REMARK    1  A    between atoms: O_1  and  C_17
REMARK    2  A    between atoms: O_1  and  C_19
REMARK    3  A    between atoms: O_8  and  C_26
REMARK    4  A    between atoms: O_8  and  C_29
REMARK    5  A    between atoms: O_10  and  C_28
REMARK    6  A    between atoms: O_10  and  C_32
REMARK    7  A    between atoms: C_25  and  C_28
REMARK    8  A    between atoms: C_30  and  C_34
REMARK                            x       y       z     vdW  Elec       q    Type
REMARK                         _______ _______ _______ _____ _____    ______ ____
ROOT
ATOM      1  O   UNL     1     110.596 128.805 137.496  0.00  0.00    +0.000 OA
ATOM      2  O   UNL     1     110.541 127.758 139.737  0.00  0.00    +0.000 OA
ATOM      3  O   UNL     1     109.228 127.651 138.743  0.00  0.00    +0.000 OA
ATOM      4  C   UNL     1     111.234 128.510 138.739  0.00  0.00    +0.000 C 
ATOM      5  C   UNL     1     110.559 128.107 138.990  0.00  0.00    +0.000 C 
ATOM      6  C   UNL     1     111.253 128.859 137.992  0.00  0.00    +0.000 C 
ATOM      7  C   UNL     1     109.903 128.053 138.493  0.00  0.00    +0.000 C 
ATOM      8  C   UNL     1     109.921 128.402 137.745  0.00  0.00    +0.000 C 
ATOM      9  C   UNL     1     111.928 129.262 137.741  0.00  0.00    +0.000 C 
ENDROOT
BRANCH   4  10
ATOM     10  O   UNL     1     111.890 128.564 139.236  0.00  0.00    +0.000 OA
BRANCH  10  15
ATOM     11  O   UNL     1     112.449 127.385 138.653  0.00  0.00    +0.000 OA
ATOM     12  O   UNL     1     113.014 128.501 140.443  0.00  0.00    +0.000 OA
ATOM     13  O   UNL     1     114.135 127.290 140.463  0.00  0.00    +0.000 OA
ATOM     14  O   UNL     1     114.132 126.142 139.277  0.00  0.00    +0.000 OA
ATOM     15  C   UNL     1     112.451 127.959 139.247  0.00  0.00    +0.000 C 
ATOM     16  C   UNL     1     113.013 127.927 139.850  0.00  0.00    +0.000 C 
ATOM     17  C   UNL     1     113.573 127.322 139.860  0.00  0.00    +0.000 C 
ATOM     18  C   UNL     1     113.572 126.748 139.268  0.00  0.00    +0.000 C 
ATOM     19  C   UNL     1     113.010 126.780 138.664  0.00  0.00    +0.000 C 
BRANCH  19  20
ATOM     20  C   UNL     1     113.008 126.206 138.071  0.00  0.00    +0.000 C 
BRANCH  20  21
ATOM     21  O   UNL     1     112.328 125.762 137.929  0.00  0.00    +0.000 OA
BRANCH  21  23
ATOM     22  O   UNL     1     112.644 125.523 136.556  0.00  0.00    +0.000 OA
ATOM     23  C   UNL     1     112.280 125.286 137.258  0.00  0.00    +0.000 C 
ATOM     24  C   UNL     1     111.867 124.571 137.288  0.00  0.00    +0.000 C 
ENDBRANCH  21  23
ENDBRANCH  20  21
ENDBRANCH  19  20
ENDBRANCH  10  15
ENDBRANCH   4  10
BRANCH   8  25
ATOM     25  O   UNL     1     109.265 128.349 137.249  0.00  0.00    +0.000 OA
BRANCH  25  30
ATOM     26  O   UNL     1     108.887 129.468 135.413  0.00  0.00    +0.000 OA
ATOM     27  O   UNL     1     108.920 129.842 137.859  0.00  0.00    +0.000 OA
ATOM     28  O   UNL     1     108.562 131.228 137.682  0.00  0.00    +0.000 OA
ATOM     29  O   UNL     1     108.162 132.254 134.977  0.00  0.00    +0.000 OA
ATOM     30  C   UNL     1     109.082 128.970 136.739  0.00  0.00    +0.000 A 
ATOM     31  C   UNL     1     109.070 128.845 135.924  0.00  0.00    +0.000 A 
ATOM     32  C   UNL     1     108.909 129.717 137.044  0.00  0.00    +0.000 A 
ATOM     33  C   UNL     1     108.726 130.339 136.535  0.00  0.00    +0.000 A 
ATOM     34  C   UNL     1     108.715 130.214 135.719  0.00  0.00    +0.000 A 
ATOM     35  C   UNL     1     108.548 131.113 136.865  0.00  0.00    +0.000 A 
ATOM     36  C   UNL     1     108.525 130.854 135.178  0.00  0.00    +0.000 A 
ATOM     37  C   UNL     1     108.356 131.764 136.339  0.00  0.00    +0.000 A 
ATOM     38  C   UNL     1     108.345 131.634 135.489  0.00  0.00    +0.000 A 
BRANCH  31  40
ATOM     39  O   UNL     1     109.762 125.860 134.698  0.00  0.00    +0.000 OA
ATOM     40  C   UNL     1     109.243 128.099 135.618  0.00  0.00    +0.000 A 
ATOM     41  C   UNL     1     108.716 127.475 135.731  0.00  0.00    +0.000 A 
ATOM     42  C   UNL     1     109.943 127.977 135.198  0.00  0.00    +0.000 A 
ATOM     43  C   UNL     1     108.889 126.728 135.424  0.00  0.00    +0.000 A 
ATOM     44  C   UNL     1     110.115 127.231 134.892  0.00  0.00    +0.000 A 
ATOM     45  C   UNL     1     109.588 126.606 135.005  0.00  0.00    +0.000 A 
ENDBRANCH  31  40
ENDBRANCH  25  30
ENDBRANCH   8  25
TORSDOF 8
ENDMDL
MODEL 10
REMARK VINA RESULT:      -9.5      1.507      3.300
REMARK  Name = 44258969
REMARK  8 active torsions:
REMARK  status: ('A' for Active; 'I' for Inactive)
REMARK    1  A    between atoms: O_1  and  C_17
REMARK    2  A    between atoms: O_1  and  C_19
REMARK    3  A    between atoms: O_8  and  C_26
REMARK    4  A    between atoms: O_8  and  C_29
REMARK    5  A    between atoms: O_10  and  C_28
REMARK    6  A    between atoms: O_10  and  C_32
REMARK    7  A    between atoms: C_25  and  C_28
REMARK    8  A    between atoms: C_30  and  C_34
REMARK                            x       y       z     vdW  Elec       q    Type
REMARK                         _______ _______ _______ _____ _____    ______ ____
ROOT
ATOM      1  O   UNL     1     111.704 128.520 138.184  0.00  0.00    +0.000 OA
ATOM      2  O   UNL     1     109.341 129.070 137.700  0.00  0.00    +0.000 OA
ATOM      3  O   UNL     1     109.711 127.719 138.571  0.00  0.00    +0.000 OA
ATOM      4  C   UNL     1     110.732 129.379 137.587  0.00  0.00    +0.000 C 
ATOM      5  C   UNL     1     110.128 128.887 137.861  0.00  0.00    +0.000 C 
ATOM      6  C   UNL     1     111.519 129.195 137.749  0.00  0.00    +0.000 C 
ATOM      7  C   UNL     1     110.313 128.211 138.297  0.00  0.00    +0.000 C 
ATOM      8  C   UNL     1     111.102 128.027 138.459  0.00  0.00    +0.000 C 
ATOM      9  C   UNL     1     112.122 129.687 137.475  0.00  0.00    +0.000 C 
ENDROOT
BRANCH   4  10
ATOM     10  O   UNL     1     110.547 130.054 137.152  0.00  0.00    +0.000 OA
BRANCH  10  15
ATOM     11  O   UNL     1     110.321 130.791 138.355  0.00  0.00    +0.000 OA
ATOM     12  O   UNL     1     110.517 131.459 136.287  0.00  0.00    +0.000 OA
ATOM     13  O   UNL     1     110.276 132.898 137.058  0.00  0.00    +0.000 OA
ATOM     14  O   UNL     1     110.065 132.932 138.694  0.00  0.00    +0.000 OA
ATOM     15  C   UNL     1     110.426 130.774 137.536  0.00  0.00    +0.000 C 
ATOM     16  C   UNL     1     110.411 131.476 137.104  0.00  0.00    +0.000 C 
ATOM     17  C   UNL     1     110.291 132.195 137.490  0.00  0.00    +0.000 C 
ATOM     18  C   UNL     1     110.186 132.213 138.308  0.00  0.00    +0.000 C 
ATOM     19  C   UNL     1     110.201 131.510 138.740  0.00  0.00    +0.000 C 
BRANCH  19  20
ATOM     20  C   UNL     1     110.095 131.527 139.559  0.00  0.00    +0.000 C 
BRANCH  20  21
ATOM     21  O   UNL     1     110.661 131.188 140.054  0.00  0.00    +0.000 OA
BRANCH  21  23
ATOM     22  O   UNL     1     110.924 131.680 141.370  0.00  0.00    +0.000 OA
ATOM     23  C   UNL     1     110.530 131.157 140.868  0.00  0.00    +0.000 C 
ATOM     24  C   UNL     1     110.005 130.601 141.179  0.00  0.00    +0.000 C 
ENDBRANCH  21  23
ENDBRANCH  20  21
ENDBRANCH  19  20
ENDBRANCH  10  15
ENDBRANCH   4  10
BRANCH   8  25
ATOM     25  O   UNL     1     111.287 127.352 138.894  0.00  0.00    +0.000 OA
BRANCH  25  30
ATOM     26  O   UNL     1     113.229 126.383 139.130  0.00  0.00    +0.000 OA
ATOM     27  O   UNL     1     111.506 126.721 137.385  0.00  0.00    +0.000 OA
ATOM     28  O   UNL     1     112.286 125.975 136.429  0.00  0.00    +0.000 OA
ATOM     29  O   UNL     1     114.859 124.866 137.253  0.00  0.00    +0.000 OA
ATOM     30  C   UNL     1     111.970 126.924 138.721  0.00  0.00    +0.000 A 
ATOM     31  C   UNL     1     112.544 126.811 139.303  0.00  0.00    +0.000 A 
ATOM     32  C   UNL     1     112.080 126.608 137.967  0.00  0.00    +0.000 A 
ATOM     33  C   UNL     1     112.763 126.181 137.794  0.00  0.00    +0.000 A 
ATOM     34  C   UNL     1     113.338 126.068 138.375  0.00  0.00    +0.000 A 
ATOM     35  C   UNL     1     112.866 125.857 137.004  0.00  0.00    +0.000 A 
ATOM     36  C   UNL     1     114.054 125.624 138.207  0.00  0.00    +0.000 A 
ATOM     37  C   UNL     1     113.576 125.411 136.818  0.00  0.00    +0.000 A 
ATOM     38  C   UNL     1     114.175 125.293 137.424  0.00  0.00    +0.000 A 
BRANCH  31  40
ATOM     39  O   UNL     1     112.107 128.070 142.322  0.00  0.00    +0.000 OA
ATOM     40  C   UNL     1     112.436 127.126 140.057  0.00  0.00    +0.000 A 
ATOM     41  C   UNL     1     112.867 127.788 140.295  0.00  0.00    +0.000 A 
ATOM     42  C   UNL     1     111.894 126.779 140.575  0.00  0.00    +0.000 A 
ATOM     43  C   UNL     1     112.757 128.102 141.050  0.00  0.00    +0.000 A 
ATOM     44  C   UNL     1     111.786 127.094 141.329  0.00  0.00    +0.000 A 
ATOM     45  C   UNL     1     112.217 127.756 141.567  0.00  0.00    +0.000 A 
ENDBRANCH  31  40
ENDBRANCH  25  30
ENDBRANCH   8  25
TORSDOF 8
ENDMDL
