MODEL 1
REMARK VINA RESULT:     -10.9      0.000      0.000
REMARK  Name = 44258082
REMARK  6 active torsions:
REMARK  status: ('A' for Active; 'I' for Inactive)
REMARK    1  A    between atoms: O_3  and  C_21
REMARK    2  A    between atoms: O_3  and  C_26
REMARK    3  A    between atoms: O_6  and  C_24
REMARK    4  A    between atoms: O_6  and  C_28
REMARK    5  A    between atoms: C_16  and  C_26
REMARK    6  A    between atoms: C_35  and  C_37
REMARK                            x       y       z     vdW  Elec       q    Type
REMARK                         _______ _______ _______ _____ _____    ______ ____
ROOT
ATOM      1  O   UNL     1     109.107 128.204 136.637  0.00  0.00    +0.000 OA
ENDROOT
BRANCH   1   5
ATOM      2  O   UNL     1     111.379 126.382 136.635  0.00  0.00    +0.000 OA
ATOM      3  O   UNL     1     109.187 125.928 134.808  0.00  0.00    +0.000 OA
ATOM      4  O   UNL     1     110.329 125.047 134.835  0.00  0.00    +0.000 OA
ATOM      5  C   UNL     1     109.490 127.537 136.338  0.00  0.00    +0.000 A 
ATOM      6  C   UNL     1     110.255 127.301 136.649  0.00  0.00    +0.000 A 
ATOM      7  C   UNL     1     109.125 127.073 135.713  0.00  0.00    +0.000 A 
ATOM      8  C   UNL     1     110.645 126.604 136.332  0.00  0.00    +0.000 A 
ATOM      9  C   UNL     1     109.530 126.379 135.408  0.00  0.00    +0.000 A 
ATOM     10  C   UNL     1     110.294 126.159 135.732  0.00  0.00    +0.000 A 
ATOM     11  C   UNL     1     110.678 125.492 135.435  0.00  0.00    +0.000 A 
ATOM     12  C   UNL     1     111.763 125.715 136.338  0.00  0.00    +0.000 A 
ATOM     13  C   UNL     1     111.413 125.270 135.738  0.00  0.00    +0.000 A 
BRANCH  12  16
ATOM     14  O   UNL     1     114.590 126.106 136.511  0.00  0.00    +0.000 OA
ATOM     15  O   UNL     1     114.702 124.828 137.549  0.00  0.00    +0.000 OA
ATOM     16  C   UNL     1     112.498 125.493 136.640  0.00  0.00    +0.000 A 
ATOM     17  C   UNL     1     113.177 125.910 136.425  0.00  0.00    +0.000 A 
ATOM     18  C   UNL     1     112.554 124.854 137.159  0.00  0.00    +0.000 A 
ATOM     19  C   UNL     1     113.912 125.689 136.727  0.00  0.00    +0.000 A 
ATOM     20  C   UNL     1     113.290 124.633 137.462  0.00  0.00    +0.000 A 
ATOM     21  C   UNL     1     113.968 125.050 137.246  0.00  0.00    +0.000 A 
ENDBRANCH  12  16
ENDBRANCH   1   5
BRANCH   1  30
ATOM     22  O   UNL     1     110.048 129.217 136.274  0.00  0.00    +0.000 OA
ATOM     23  O   UNL     1     109.752 131.182 135.369  0.00  0.00    +0.000 OA
ATOM     24  O   UNL     1     108.195 130.645 135.462  0.00  0.00    +0.000 OA
ATOM     25  O   UNL     1     107.873 129.156 136.096  0.00  0.00    +0.000 OA
ATOM     26  C   UNL     1     110.209 129.961 135.957  0.00  0.00    +0.000 C 
ATOM     27  C   UNL     1     109.591 130.438 135.686  0.00  0.00    +0.000 C 
ATOM     28  C   UNL     1     108.813 130.168 135.733  0.00  0.00    +0.000 C 
ATOM     29  C   UNL     1     108.652 129.424 136.050  0.00  0.00    +0.000 C 
ATOM     30  C   UNL     1     109.269 128.949 136.320  0.00  0.00    +0.000 C 
BRANCH  26  31
ATOM     31  C   UNL     1     110.987 130.231 135.910  0.00  0.00    +0.000 C 
BRANCH  31  32
ATOM     32  O   UNL     1     111.465 130.232 136.583  0.00  0.00    +0.000 OA
BRANCH  32  38
ATOM     33  O   UNL     1     112.652 129.803 135.913  0.00  0.00    +0.000 OA
ATOM     34  O   UNL     1     112.376 131.144 137.613  0.00  0.00    +0.000 OA
ATOM     35  O   UNL     1     114.018 131.170 137.458  0.00  0.00    +0.000 OA
ATOM     36  O   UNL     1     114.750 130.285 136.274  0.00  0.00    +0.000 OA
ATOM     37  C   UNL     1     112.742 130.701 137.020  0.00  0.00    +0.000 C 
ATOM     38  C   UNL     1     112.286 130.245 136.505  0.00  0.00    +0.000 C 
ATOM     39  C   UNL     1     113.563 130.715 136.943  0.00  0.00    +0.000 C 
ATOM     40  C   UNL     1     113.928 130.272 136.351  0.00  0.00    +0.000 C 
ATOM     41  C   UNL     1     113.472 129.816 135.836  0.00  0.00    +0.000 C 
ATOM     42  C   UNL     1     113.839 129.373 135.243  0.00  0.00    +0.000 C 
ENDBRANCH  32  38
ENDBRANCH  31  32
ENDBRANCH  26  31
ENDBRANCH   1  30
TORSDOF 6
ENDMDL
MODEL 2
REMARK VINA RESULT:     -10.7      1.730      2.187
REMARK  Name = 44258082
REMARK  6 active torsions:
REMARK  status: ('A' for Active; 'I' for Inactive)
REMARK    1  A    between atoms: O_3  and  C_21
REMARK    2  A    between atoms: O_3  and  C_26
REMARK    3  A    between atoms: O_6  and  C_24
REMARK    4  A    between atoms: O_6  and  C_28
REMARK    5  A    between atoms: C_16  and  C_26
REMARK    6  A    between atoms: C_35  and  C_37
REMARK                            x       y       z     vdW  Elec       q    Type
REMARK                         _______ _______ _______ _____ _____    ______ ____
ROOT
ATOM      1  O   UNL     1     110.369 128.687 135.116  0.00  0.00    +0.000 OA
ENDROOT
BRANCH   1   5
ATOM      2  O   UNL     1     112.138 126.651 136.215  0.00  0.00    +0.000 OA
ATOM      3  O   UNL     1     109.671 125.856 134.940  0.00  0.00    +0.000 OA
ATOM      4  O   UNL     1     110.571 124.876 135.495  0.00  0.00    +0.000 OA
ATOM      5  C   UNL     1     110.543 127.894 135.266  0.00  0.00    +0.000 A 
ATOM      6  C   UNL     1     111.268 127.680 135.673  0.00  0.00    +0.000 A 
ATOM      7  C   UNL     1     109.998 127.278 135.016  0.00  0.00    +0.000 A 
ATOM      8  C   UNL     1     111.440 126.852 135.824  0.00  0.00    +0.000 A 
ATOM      9  C   UNL     1     110.187 126.455 135.176  0.00  0.00    +0.000 A 
ATOM     10  C   UNL     1     110.917 126.260 135.584  0.00  0.00    +0.000 A 
ATOM     11  C   UNL     1     111.093 125.468 135.735  0.00  0.00    +0.000 A 
ATOM     12  C   UNL     1     112.314 125.860 136.366  0.00  0.00    +0.000 A 
ATOM     13  C   UNL     1     111.791 125.268 136.126  0.00  0.00    +0.000 A 
BRANCH  12  16
ATOM     14  O   UNL     1     113.937 125.916 138.719  0.00  0.00    +0.000 OA
ATOM     15  O   UNL     1     115.107 125.059 137.932  0.00  0.00    +0.000 OA
ATOM     16  C   UNL     1     113.012 125.659 136.757  0.00  0.00    +0.000 A 
ATOM     17  C   UNL     1     113.125 125.888 137.542  0.00  0.00    +0.000 A 
ATOM     18  C   UNL     1     113.597 125.231 136.364  0.00  0.00    +0.000 A 
ATOM     19  C   UNL     1     113.823 125.688 137.934  0.00  0.00    +0.000 A 
ATOM     20  C   UNL     1     114.296 125.031 136.756  0.00  0.00    +0.000 A 
ATOM     21  C   UNL     1     114.408 125.259 137.541  0.00  0.00    +0.000 A 
ENDBRANCH  12  16
ENDBRANCH   1   5
BRANCH   1  30
ATOM     22  O   UNL     1     110.161 129.162 136.447  0.00  0.00    +0.000 OA
ATOM     23  O   UNL     1     108.589 130.426 137.283  0.00  0.00    +0.000 OA
ATOM     24  O   UNL     1     108.117 130.345 135.704  0.00  0.00    +0.000 OA
ATOM     25  O   UNL     1     109.007 129.476 134.620  0.00  0.00    +0.000 OA
ATOM     26  C   UNL     1     109.716 129.597 136.989  0.00  0.00    +0.000 C 
ATOM     27  C   UNL     1     109.034 129.991 136.741  0.00  0.00    +0.000 C 
ATOM     28  C   UNL     1     108.798 129.950 135.952  0.00  0.00    +0.000 C 
ATOM     29  C   UNL     1     109.244 129.516 135.410  0.00  0.00    +0.000 C 
ATOM     30  C   UNL     1     109.924 129.122 135.658  0.00  0.00    +0.000 C 
BRANCH  26  31
ATOM     31  C   UNL     1     109.951 129.638 137.778  0.00  0.00    +0.000 C 
BRANCH  31  32
ATOM     32  O   UNL     1     110.692 129.944 137.973  0.00  0.00    +0.000 OA
BRANCH  32  38
ATOM     33  O   UNL     1     110.986 128.979 138.986  0.00  0.00    +0.000 OA
ATOM     34  O   UNL     1     111.504 131.094 138.833  0.00  0.00    +0.000 OA
ATOM     35  O   UNL     1     112.204 130.705 140.276  0.00  0.00    +0.000 OA
ATOM     36  O   UNL     1     112.092 129.165 140.859  0.00  0.00    +0.000 OA
ATOM     37  C   UNL     1     111.448 130.324 139.125  0.00  0.00    +0.000 C 
ATOM     38  C   UNL     1     111.042 129.748 138.695  0.00  0.00    +0.000 C 
ATOM     39  C   UNL     1     111.798 130.130 139.846  0.00  0.00    +0.000 C 
ATOM     40  C   UNL     1     111.742 129.360 140.137  0.00  0.00    +0.000 C 
ATOM     41  C   UNL     1     111.335 128.785 139.707  0.00  0.00    +0.000 C 
ATOM     42  C   UNL     1     111.280 128.015 139.999  0.00  0.00    +0.000 C 
ENDBRANCH  32  38
ENDBRANCH  31  32
ENDBRANCH  26  31
ENDBRANCH   1  30
TORSDOF 6
ENDMDL
MODEL 3
REMARK VINA RESULT:     -10.6      1.785      3.603
REMARK  Name = 44258082
REMARK  6 active torsions:
REMARK  status: ('A' for Active; 'I' for Inactive)
REMARK    1  A    between atoms: O_3  and  C_21
REMARK    2  A    between atoms: O_3  and  C_26
REMARK    3  A    between atoms: O_6  and  C_24
REMARK    4  A    between atoms: O_6  and  C_28
REMARK    5  A    between atoms: C_16  and  C_26
REMARK    6  A    between atoms: C_35  and  C_37
REMARK                            x       y       z     vdW  Elec       q    Type
REMARK                         _______ _______ _______ _____ _____    ______ ____
ROOT
ATOM      1  O   UNL     1     112.826 129.441 134.913  0.00  0.00    +0.000 OA
ENDROOT
BRANCH   1   5
ATOM      2  O   UNL     1     111.820 126.878 135.864  0.00  0.00    +0.000 OA
ATOM      3  O   UNL     1     110.005 128.745 134.612  0.00  0.00    +0.000 OA
ATOM      4  O   UNL     1     109.543 127.467 135.095  0.00  0.00    +0.000 OA
ATOM      5  C   UNL     1     112.202 128.911 135.018  0.00  0.00    +0.000 A 
ATOM      6  C   UNL     1     112.339 128.152 135.395  0.00  0.00    +0.000 A 
ATOM      7  C   UNL     1     111.411 129.116 134.751  0.00  0.00    +0.000 A 
ATOM      8  C   UNL     1     111.683 127.606 135.501  0.00  0.00    +0.000 A 
ATOM      9  C   UNL     1     110.767 128.558 134.865  0.00  0.00    +0.000 A 
ATOM     10  C   UNL     1     110.924 127.803 135.244  0.00  0.00    +0.000 A 
ATOM     11  C   UNL     1     110.302 127.271 135.351  0.00  0.00    +0.000 A 
ATOM     12  C   UNL     1     111.199 126.347 135.970  0.00  0.00    +0.000 A 
ATOM     13  C   UNL     1     110.439 126.543 135.714  0.00  0.00    +0.000 A 
BRANCH  12  16
ATOM     14  O   UNL     1     111.456 124.773 138.343  0.00  0.00    +0.000 OA
ATOM     15  O   UNL     1     111.748 123.435 137.422  0.00  0.00    +0.000 OA
ATOM     16  C   UNL     1     111.336 125.619 136.333  0.00  0.00    +0.000 A 
ATOM     17  C   UNL     1     111.328 125.560 137.156  0.00  0.00    +0.000 A 
ATOM     18  C   UNL     1     111.482 124.950 135.873  0.00  0.00    +0.000 A 
ATOM     19  C   UNL     1     111.465 124.832 137.520  0.00  0.00    +0.000 A 
ATOM     20  C   UNL     1     111.619 124.221 136.237  0.00  0.00    +0.000 A 
ATOM     21  C   UNL     1     111.611 124.163 137.060  0.00  0.00    +0.000 A 
ENDBRANCH  12  16
ENDBRANCH   1   5
BRANCH   1  30
ATOM     22  O   UNL     1     112.652 130.134 136.150  0.00  0.00    +0.000 OA
ATOM     23  O   UNL     1     114.113 131.013 137.513  0.00  0.00    +0.000 OA
ATOM     24  O   UNL     1     115.104 130.415 136.337  0.00  0.00    +0.000 OA
ATOM     25  O   UNL     1     114.460 129.629 135.037  0.00  0.00    +0.000 OA
ATOM     26  C   UNL     1     112.974 130.527 136.800  0.00  0.00    +0.000 C 
ATOM     27  C   UNL     1     113.791 130.620 136.863  0.00  0.00    +0.000 C 
ATOM     28  C   UNL     1     114.286 130.321 136.275  0.00  0.00    +0.000 C 
ATOM     29  C   UNL     1     113.964 129.928 135.625  0.00  0.00    +0.000 C 
ATOM     30  C   UNL     1     113.148 129.834 135.563  0.00  0.00    +0.000 C 
BRANCH  26  31
ATOM     31  C   UNL     1     112.479 130.826 137.389  0.00  0.00    +0.000 C 
BRANCH  31  32
ATOM     32  O   UNL     1     111.844 131.313 137.186  0.00  0.00    +0.000 OA
BRANCH  32  38
ATOM     33  O   UNL     1     111.091 130.904 138.330  0.00  0.00    +0.000 OA
ATOM     34  O   UNL     1     110.936 132.686 137.080  0.00  0.00    +0.000 OA
ATOM     35  O   UNL     1     109.729 132.964 138.170  0.00  0.00    +0.000 OA
ATOM     36  O   UNL     1     109.430 131.868 139.367  0.00  0.00    +0.000 OA
ATOM     37  C   UNL     1     110.787 132.138 137.678  0.00  0.00    +0.000 C 
ATOM     38  C   UNL     1     111.241 131.451 137.732  0.00  0.00    +0.000 C 
ATOM     39  C   UNL     1     110.183 132.277 138.223  0.00  0.00    +0.000 C 
ATOM     40  C   UNL     1     110.034 131.729 138.821  0.00  0.00    +0.000 C 
ATOM     41  C   UNL     1     110.488 131.042 138.875  0.00  0.00    +0.000 C 
ATOM     42  C   UNL     1     110.338 130.495 139.473  0.00  0.00    +0.000 C 
ENDBRANCH  32  38
ENDBRANCH  31  32
ENDBRANCH  26  31
ENDBRANCH   1  30
TORSDOF 6
ENDMDL
MODEL 4
REMARK VINA RESULT:     -10.6     10.655     12.892
REMARK  Name = 44258082
REMARK  6 active torsions:
REMARK  status: ('A' for Active; 'I' for Inactive)
REMARK    1  A    between atoms: O_3  and  C_21
REMARK    2  A    between atoms: O_3  and  C_26
REMARK    3  A    between atoms: O_6  and  C_24
REMARK    4  A    between atoms: O_6  and  C_28
REMARK    5  A    between atoms: C_16  and  C_26
REMARK    6  A    between atoms: C_35  and  C_37
REMARK                            x       y       z     vdW  Elec       q    Type
REMARK                         _______ _______ _______ _____ _____    ______ ____
ROOT
ATOM      1  O   UNL     1     107.142 125.979 146.086  0.00  0.00    +0.000 OA
ENDROOT
BRANCH   1   5
ATOM      2  O   UNL     1     105.704 127.537 144.089  0.00  0.00    +0.000 OA
ATOM      3  O   UNL     1     106.310 128.721 146.654  0.00  0.00    +0.000 OA
ATOM      4  O   UNL     1     105.599 129.462 145.640  0.00  0.00    +0.000 OA
ATOM      5  C   UNL     1     106.772 126.680 145.854  0.00  0.00    +0.000 A 
ATOM      6  C   UNL     1     106.422 126.746 145.073  0.00  0.00    +0.000 A 
ATOM      7  C   UNL     1     106.736 127.348 146.393  0.00  0.00    +0.000 A 
ATOM      8  C   UNL     1     106.039 127.479 144.840  0.00  0.00    +0.000 A 
ATOM      9  C   UNL     1     106.349 128.074 146.143  0.00  0.00    +0.000 A 
ATOM     10  C   UNL     1     106.004 128.121 145.358  0.00  0.00    +0.000 A 
ATOM     11  C   UNL     1     105.635 128.820 145.124  0.00  0.00    +0.000 A 
ATOM     12  C   UNL     1     105.334 128.236 143.855  0.00  0.00    +0.000 A 
ATOM     13  C   UNL     1     105.300 128.878 144.372  0.00  0.00    +0.000 A 
BRANCH  12  16
ATOM     14  O   UNL     1     105.092 127.278 141.172  0.00  0.00    +0.000 OA
ATOM     15  O   UNL     1     103.994 128.466 140.848  0.00  0.00    +0.000 OA
ATOM     16  C   UNL     1     104.999 128.294 143.103  0.00  0.00    +0.000 A 
ATOM     17  C   UNL     1     105.213 127.757 142.514  0.00  0.00    +0.000 A 
ATOM     18  C   UNL     1     104.450 128.888 142.941  0.00  0.00    +0.000 A 
ATOM     19  C   UNL     1     104.879 127.814 141.762  0.00  0.00    +0.000 A 
ATOM     20  C   UNL     1     104.115 128.945 142.188  0.00  0.00    +0.000 A 
ATOM     21  C   UNL     1     104.330 128.408 141.599  0.00  0.00    +0.000 A 
ENDBRANCH  12  16
ENDBRANCH   1   5
BRANCH   1  30
ATOM     22  O   UNL     1     106.060 125.307 146.734  0.00  0.00    +0.000 OA
ATOM     23  O   UNL     1     105.969 124.265 148.650  0.00  0.00    +0.000 OA
ATOM     24  O   UNL     1     107.545 124.753 148.636  0.00  0.00    +0.000 OA
ATOM     25  O   UNL     1     108.131 125.610 147.354  0.00  0.00    +0.000 OA
ATOM     26  C   UNL     1     105.767 124.878 147.375  0.00  0.00    +0.000 C 
ATOM     27  C   UNL     1     106.262 124.693 148.009  0.00  0.00    +0.000 C 
ATOM     28  C   UNL     1     107.050 124.937 148.001  0.00  0.00    +0.000 C 
ATOM     29  C   UNL     1     107.343 125.366 147.360  0.00  0.00    +0.000 C 
ATOM     30  C   UNL     1     106.848 125.550 146.727  0.00  0.00    +0.000 C 
BRANCH  26  31
ATOM     31  C   UNL     1     104.979 124.634 147.383  0.00  0.00    +0.000 C 
BRANCH  31  32
ATOM     32  O   UNL     1     104.621 124.371 146.688  0.00  0.00    +0.000 OA
BRANCH  32  38
ATOM     33  O   UNL     1     103.290 124.665 147.117  0.00  0.00    +0.000 OA
ATOM     34  O   UNL     1     104.053 123.108 145.790  0.00  0.00    +0.000 OA
ATOM     35  O   UNL     1     102.438 122.770 145.771  0.00  0.00    +0.000 OA
ATOM     36  O   UNL     1     101.391 123.695 146.649  0.00  0.00    +0.000 OA
ATOM     37  C   UNL     1     103.529 123.571 146.230  0.00  0.00    +0.000 C 
ATOM     38  C   UNL     1     103.813 124.203 146.678  0.00  0.00    +0.000 C 
ATOM     39  C   UNL     1     102.722 123.402 146.220  0.00  0.00    +0.000 C 
ATOM     40  C   UNL     1     102.199 123.865 146.659  0.00  0.00    +0.000 C 
ATOM     41  C   UNL     1     102.483 124.496 147.107  0.00  0.00    +0.000 C 
ATOM     42  C   UNL     1     101.959 124.958 147.546  0.00  0.00    +0.000 C 
ENDBRANCH  32  38
ENDBRANCH  31  32
ENDBRANCH  26  31
ENDBRANCH   1  30
TORSDOF 6
ENDMDL
MODEL 5
REMARK VINA RESULT:     -10.4      2.036      5.789
REMARK  Name = 44258082
REMARK  6 active torsions:
REMARK  status: ('A' for Active; 'I' for Inactive)
REMARK    1  A    between atoms: O_3  and  C_21
REMARK    2  A    between atoms: O_3  and  C_26
REMARK    3  A    between atoms: O_6  and  C_24
REMARK    4  A    between atoms: O_6  and  C_28
REMARK    5  A    between atoms: C_16  and  C_26
REMARK    6  A    between atoms: C_35  and  C_37
REMARK                            x       y       z     vdW  Elec       q    Type
REMARK                         _______ _______ _______ _____ _____    ______ ____
ROOT
ATOM      1  O   UNL     1     113.148 128.895 138.777  0.00  0.00    +0.000 OA
ENDROOT
BRANCH   1   5
ATOM      2  O   UNL     1     110.980 129.701 137.008  0.00  0.00    +0.000 OA
ATOM      3  O   UNL     1     113.549 129.003 135.886  0.00  0.00    +0.000 OA
ATOM      4  O   UNL     1     112.452 129.407 135.041  0.00  0.00    +0.000 OA
ATOM      5  C   UNL     1     112.861 129.043 138.018  0.00  0.00    +0.000 A 
ATOM      6  C   UNL     1     112.050 129.301 137.905  0.00  0.00    +0.000 A 
ATOM      7  C   UNL     1     113.373 128.941 137.334  0.00  0.00    +0.000 A 
ATOM      8  C   UNL     1     111.760 129.454 137.111  0.00  0.00    +0.000 A 
ATOM      9  C   UNL     1     113.065 129.098 136.548  0.00  0.00    +0.000 A 
ATOM     10  C   UNL     1     112.251 129.355 136.455  0.00  0.00    +0.000 A 
ATOM     11  C   UNL     1     111.962 129.505 135.697  0.00  0.00    +0.000 A 
ATOM     12  C   UNL     1     110.690 129.850 136.250  0.00  0.00    +0.000 A 
ATOM     13  C   UNL     1     111.181 129.752 135.595  0.00  0.00    +0.000 A 
BRANCH  12  16
ATOM     14  O   UNL     1     107.929 129.230 135.847  0.00  0.00    +0.000 OA
ATOM     15  O   UNL     1     107.569 130.840 135.841  0.00  0.00    +0.000 OA
ATOM     16  C   UNL     1     109.910 130.098 136.148  0.00  0.00    +0.000 A 
ATOM     17  C   UNL     1     109.310 129.541 136.049  0.00  0.00    +0.000 A 
ATOM     18  C   UNL     1     109.730 130.903 136.145  0.00  0.00    +0.000 A 
ATOM     19  C   UNL     1     108.529 129.787 135.947  0.00  0.00    +0.000 A 
ATOM     20  C   UNL     1     108.948 131.150 136.042  0.00  0.00    +0.000 A 
ATOM     21  C   UNL     1     108.349 130.592 135.943  0.00  0.00    +0.000 A 
ENDBRANCH  12  16
ENDBRANCH   1   5
BRANCH   1  30
ATOM     22  O   UNL     1     112.764 127.519 138.760  0.00  0.00    +0.000 OA
ATOM     23  O   UNL     1     112.225 126.165 140.386  0.00  0.00    +0.000 OA
ATOM     24  O   UNL     1     112.533 127.553 141.224  0.00  0.00    +0.000 OA
ATOM     25  O   UNL     1     112.994 128.917 140.420  0.00  0.00    +0.000 OA
ATOM     26  C   UNL     1     112.533 126.836 139.162  0.00  0.00    +0.000 C 
ATOM     27  C   UNL     1     112.456 126.848 139.984  0.00  0.00    +0.000 C 
ATOM     28  C   UNL     1     112.610 127.541 140.402  0.00  0.00    +0.000 C 
ATOM     29  C   UNL     1     112.841 128.224 140.000  0.00  0.00    +0.000 C 
ATOM     30  C   UNL     1     112.917 128.212 139.180  0.00  0.00    +0.000 C 
BRANCH  26  31
ATOM     31  C   UNL     1     112.379 126.142 138.743  0.00  0.00    +0.000 C 
BRANCH  31  32
ATOM     32  O   UNL     1     111.777 126.125 138.179  0.00  0.00    +0.000 OA
BRANCH  32  38
ATOM     33  O   UNL     1     112.318 124.920 137.634  0.00  0.00    +0.000 OA
ATOM     34  O   UNL     1     110.662 126.174 136.964  0.00  0.00    +0.000 OA
ATOM     35  O   UNL     1     110.645 124.993 135.812  0.00  0.00    +0.000 OA
ATOM     36  O   UNL     1     111.743 123.763 135.875  0.00  0.00    +0.000 OA
ATOM     37  C   UNL     1     111.211 125.558 136.996  0.00  0.00    +0.000 C 
ATOM     38  C   UNL     1     111.769 125.534 137.603  0.00  0.00    +0.000 C 
ATOM     39  C   UNL     1     111.202 124.968 136.420  0.00  0.00    +0.000 C 
ATOM     40  C   UNL     1     111.752 124.354 136.452  0.00  0.00    +0.000 C 
ATOM     41  C   UNL     1     112.309 124.330 137.059  0.00  0.00    +0.000 C 
ATOM     42  C   UNL     1     112.858 123.714 137.090  0.00  0.00    +0.000 C 
ENDBRANCH  32  38
ENDBRANCH  31  32
ENDBRANCH  26  31
ENDBRANCH   1  30
TORSDOF 6
ENDMDL
MODEL 6
REMARK VINA RESULT:     -10.4      1.562      4.564
REMARK  Name = 44258082
REMARK  6 active torsions:
REMARK  status: ('A' for Active; 'I' for Inactive)
REMARK    1  A    between atoms: O_3  and  C_21
REMARK    2  A    between atoms: O_3  and  C_26
REMARK    3  A    between atoms: O_6  and  C_24
REMARK    4  A    between atoms: O_6  and  C_28
REMARK    5  A    between atoms: C_16  and  C_26
REMARK    6  A    between atoms: C_35  and  C_37
REMARK                            x       y       z     vdW  Elec       q    Type
REMARK                         _______ _______ _______ _____ _____    ______ ____
ROOT
ATOM      1  O   UNL     1     110.526 129.624 135.467  0.00  0.00    +0.000 OA
ENDROOT
BRANCH   1   5
ATOM      2  O   UNL     1     112.580 129.692 137.531  0.00  0.00    +0.000 OA
ATOM      3  O   UNL     1     113.318 129.075 134.806  0.00  0.00    +0.000 OA
ATOM      4  O   UNL     1     114.308 129.118 135.855  0.00  0.00    +0.000 OA
ATOM      5  C   UNL     1     111.316 129.545 135.694  0.00  0.00    +0.000 A 
ATOM      6  C   UNL     1     111.543 129.662 136.514  0.00  0.00    +0.000 A 
ATOM      7  C   UNL     1     111.916 129.346 135.112  0.00  0.00    +0.000 A 
ATOM      8  C   UNL     1     112.367 129.578 136.742  0.00  0.00    +0.000 A 
ATOM      9  C   UNL     1     112.735 129.266 135.358  0.00  0.00    +0.000 A 
ATOM     10  C   UNL     1     112.943 129.387 136.183  0.00  0.00    +0.000 A 
ATOM     11  C   UNL     1     113.732 129.309 136.413  0.00  0.00    +0.000 A 
ATOM     12  C   UNL     1     113.368 129.614 137.761  0.00  0.00    +0.000 A 
ATOM     13  C   UNL     1     113.944 129.422 137.202  0.00  0.00    +0.000 A 
BRANCH  12  16
ATOM     14  O   UNL     1     114.574 131.223 139.793  0.00  0.00    +0.000 OA
ATOM     15  O   UNL     1     114.219 130.069 140.917  0.00  0.00    +0.000 OA
ATOM     16  C   UNL     1     113.581 129.727 138.550  0.00  0.00    +0.000 A 
ATOM     17  C   UNL     1     113.971 130.418 138.777  0.00  0.00    +0.000 A 
ATOM     18  C   UNL     1     113.403 129.150 139.112  0.00  0.00    +0.000 A 
ATOM     19  C   UNL     1     114.184 130.532 139.566  0.00  0.00    +0.000 A 
ATOM     20  C   UNL     1     113.616 129.265 139.902  0.00  0.00    +0.000 A 
ATOM     21  C   UNL     1     114.006 129.955 140.128  0.00  0.00    +0.000 A 
ENDBRANCH  12  16
ENDBRANCH   1   5
BRANCH   1  30
ATOM     22  O   UNL     1     110.244 128.299 135.921  0.00  0.00    +0.000 OA
ATOM     23  O   UNL     1     108.344 127.272 136.240  0.00  0.00    +0.000 OA
ATOM     24  O   UNL     1     107.818 128.746 135.718  0.00  0.00    +0.000 OA
ATOM     25  O   UNL     1     108.909 129.922 135.331  0.00  0.00    +0.000 OA
ATOM     26  C   UNL     1     109.699 127.711 136.114  0.00  0.00    +0.000 C 
ATOM     27  C   UNL     1     108.889 127.860 136.047  0.00  0.00    +0.000 C 
ATOM     28  C   UNL     1     108.627 128.597 135.786  0.00  0.00    +0.000 C 
ATOM     29  C   UNL     1     109.173 129.185 135.592  0.00  0.00    +0.000 C 
ATOM     30  C   UNL     1     109.981 129.036 135.660  0.00  0.00    +0.000 C 
BRANCH  26  31
ATOM     31  C   UNL     1     109.961 126.974 136.375  0.00  0.00    +0.000 C 
BRANCH  31  32
ATOM     32  O   UNL     1     110.499 126.543 135.922  0.00  0.00    +0.000 OA
BRANCH  32  38
ATOM     33  O   UNL     1     111.405 126.165 136.961  0.00  0.00    +0.000 OA
ATOM     34  O   UNL     1     110.604 125.026 135.280  0.00  0.00    +0.000 OA
ATOM     35  O   UNL     1     111.562 123.891 135.998  0.00  0.00    +0.000 OA
ATOM     36  O   UNL     1     112.416 124.272 137.358  0.00  0.00    +0.000 OA
ATOM     37  C   UNL     1     111.031 125.217 135.961  0.00  0.00    +0.000 C 
ATOM     38  C   UNL     1     110.979 125.975 136.282  0.00  0.00    +0.000 C 
ATOM     39  C   UNL     1     111.510 124.649 136.319  0.00  0.00    +0.000 C 
ATOM     40  C   UNL     1     111.936 124.840 136.999  0.00  0.00    +0.000 C 
ATOM     41  C   UNL     1     111.884 125.598 137.320  0.00  0.00    +0.000 C 
ATOM     42  C   UNL     1     112.311 125.788 138.000  0.00  0.00    +0.000 C 
ENDBRANCH  32  38
ENDBRANCH  31  32
ENDBRANCH  26  31
ENDBRANCH   1  30
TORSDOF 6
ENDMDL
MODEL 7
REMARK VINA RESULT:     -10.4      2.342      5.464
REMARK  Name = 44258082
REMARK  6 active torsions:
REMARK  status: ('A' for Active; 'I' for Inactive)
REMARK    1  A    between atoms: O_3  and  C_21
REMARK    2  A    between atoms: O_3  and  C_26
REMARK    3  A    between atoms: O_6  and  C_24
REMARK    4  A    between atoms: O_6  and  C_28
REMARK    5  A    between atoms: C_16  and  C_26
REMARK    6  A    between atoms: C_35  and  C_37
REMARK                            x       y       z     vdW  Elec       q    Type
REMARK                         _______ _______ _______ _____ _____    ______ ____
ROOT
ATOM      1  O   UNL     1     110.921 127.507 135.542  0.00  0.00    +0.000 OA
ENDROOT
BRANCH   1   5
ATOM      2  O   UNL     1     110.153 130.106 136.609  0.00  0.00    +0.000 OA
ATOM      3  O   UNL     1     108.115 128.313 135.621  0.00  0.00    +0.000 OA
ATOM      4  O   UNL     1     107.772 129.607 136.156  0.00  0.00    +0.000 OA
ATOM      5  C   UNL     1     110.338 128.061 135.729  0.00  0.00    +0.000 A 
ATOM      6  C   UNL     1     110.554 128.814 136.081  0.00  0.00    +0.000 A 
ATOM      7  C   UNL     1     109.511 127.888 135.571  0.00  0.00    +0.000 A 
ATOM      8  C   UNL     1     109.940 129.384 136.271  0.00  0.00    +0.000 A 
ATOM      9  C   UNL     1     108.911 128.470 135.768  0.00  0.00    +0.000 A 
ATOM     10  C   UNL     1     109.146 129.218 136.120  0.00  0.00    +0.000 A 
ATOM     11  C   UNL     1     108.565 129.773 136.307  0.00  0.00    +0.000 A 
ATOM     12  C   UNL     1     109.572 130.661 136.796  0.00  0.00    +0.000 A 
ATOM     13  C   UNL     1     108.778 130.495 136.645  0.00  0.00    +0.000 A 
BRANCH  12  16
ATOM     14  O   UNL     1     110.112 132.246 139.114  0.00  0.00    +0.000 OA
ATOM     15  O   UNL     1     110.424 133.548 138.150  0.00  0.00    +0.000 OA
ATOM     16  C   UNL     1     109.785 131.383 137.135  0.00  0.00    +0.000 A 
ATOM     17  C   UNL     1     109.842 131.454 137.955  0.00  0.00    +0.000 A 
ATOM     18  C   UNL     1     109.941 132.034 136.653  0.00  0.00    +0.000 A 
ATOM     19  C   UNL     1     110.055 132.175 138.294  0.00  0.00    +0.000 A 
ATOM     20  C   UNL     1     110.155 132.756 136.992  0.00  0.00    +0.000 A 
ATOM     21  C   UNL     1     110.211 132.826 137.812  0.00  0.00    +0.000 A 
ENDBRANCH  12  16
ENDBRANCH   1   5
BRANCH   1  30
ATOM     22  O   UNL     1     111.088 126.845 136.797  0.00  0.00    +0.000 OA
ATOM     23  O   UNL     1     111.170 124.720 137.292  0.00  0.00    +0.000 OA
ATOM     24  O   UNL     1     110.960 124.652 135.656  0.00  0.00    +0.000 OA
ATOM     25  O   UNL     1     110.836 126.045 134.782  0.00  0.00    +0.000 OA
ATOM     26  C   UNL     1     111.150 126.148 137.235  0.00  0.00    +0.000 C 
ATOM     27  C   UNL     1     111.108 125.417 136.854  0.00  0.00    +0.000 C 
ATOM     28  C   UNL     1     111.003 125.383 136.037  0.00  0.00    +0.000 C 
ATOM     29  C   UNL     1     110.941 126.080 135.599  0.00  0.00    +0.000 C 
ATOM     30  C   UNL     1     110.983 126.810 135.980  0.00  0.00    +0.000 C 
BRANCH  26  31
ATOM     31  C   UNL     1     111.255 126.182 138.052  0.00  0.00    +0.000 C 
BRANCH  31  32
ATOM     32  O   UNL     1     111.857 126.645 138.373  0.00  0.00    +0.000 OA
BRANCH  32  38
ATOM     33  O   UNL     1     111.280 126.647 139.680  0.00  0.00    +0.000 OA
ATOM     34  O   UNL     1     113.352 126.871 139.033  0.00  0.00    +0.000 OA
ATOM     35  O   UNL     1     113.522 126.985 140.671  0.00  0.00    +0.000 OA
ATOM     36  O   UNL     1     112.197 126.874 141.648  0.00  0.00    +0.000 OA
ATOM     37  C   UNL     1     112.689 126.815 139.522  0.00  0.00    +0.000 C 
ATOM     38  C   UNL     1     111.942 126.702 139.192  0.00  0.00    +0.000 C 
ATOM     39  C   UNL     1     112.775 126.872 140.340  0.00  0.00    +0.000 C 
ATOM     40  C   UNL     1     112.112 126.817 140.828  0.00  0.00    +0.000 C 
ATOM     41  C   UNL     1     111.365 126.704 140.498  0.00  0.00    +0.000 C 
ATOM     42  C   UNL     1     110.702 126.648 140.987  0.00  0.00    +0.000 C 
ENDBRANCH  32  38
ENDBRANCH  31  32
ENDBRANCH  26  31
ENDBRANCH   1  30
TORSDOF 6
ENDMDL
MODEL 8
REMARK VINA RESULT:     -10.3      2.003      2.925
REMARK  Name = 44258082
REMARK  6 active torsions:
REMARK  status: ('A' for Active; 'I' for Inactive)
REMARK    1  A    between atoms: O_3  and  C_21
REMARK    2  A    between atoms: O_3  and  C_26
REMARK    3  A    between atoms: O_6  and  C_24
REMARK    4  A    between atoms: O_6  and  C_28
REMARK    5  A    between atoms: C_16  and  C_26
REMARK    6  A    between atoms: C_35  and  C_37
REMARK                            x       y       z     vdW  Elec       q    Type
REMARK                         _______ _______ _______ _____ _____    ______ ____
ROOT
ATOM      1  O   UNL     1     110.543 130.239 135.857  0.00  0.00    +0.000 OA
ENDROOT
BRANCH   1   5
ATOM      2  O   UNL     1     110.608 127.365 136.325  0.00  0.00    +0.000 OA
ATOM      3  O   UNL     1     108.084 128.664 135.788  0.00  0.00    +0.000 OA
ATOM      4  O   UNL     1     108.154 127.243 136.024  0.00  0.00    +0.000 OA
ATOM      5  C   UNL     1     110.152 129.515 135.922  0.00  0.00    +0.000 A 
ATOM      6  C   UNL     1     110.594 128.799 136.094  0.00  0.00    +0.000 A 
ATOM      7  C   UNL     1     109.299 129.472 135.817  0.00  0.00    +0.000 A 
ATOM      8  C   UNL     1     110.178 128.050 136.160  0.00  0.00    +0.000 A 
ATOM      9  C   UNL     1     108.901 128.715 135.886  0.00  0.00    +0.000 A 
ATOM     10  C   UNL     1     109.360 128.009 136.059  0.00  0.00    +0.000 A 
ATOM     11  C   UNL     1     108.972 127.284 136.125  0.00  0.00    +0.000 A 
ATOM     12  C   UNL     1     110.219 126.640 136.390  0.00  0.00    +0.000 A 
ATOM     13  C   UNL     1     109.402 126.600 136.290  0.00  0.00    +0.000 A 
BRANCH  12  16
ATOM     14  O   UNL     1     111.389 124.850 138.288  0.00  0.00    +0.000 OA
ATOM     15  O   UNL     1     111.938 123.902 137.054  0.00  0.00    +0.000 OA
ATOM     16  C   UNL     1     110.649 125.956 136.556  0.00  0.00    +0.000 A 
ATOM     17  C   UNL     1     110.804 125.745 137.339  0.00  0.00    +0.000 A 
ATOM     18  C   UNL     1     110.924 125.481 135.939  0.00  0.00    +0.000 A 
ATOM     19  C   UNL     1     111.234 125.061 137.505  0.00  0.00    +0.000 A 
ATOM     20  C   UNL     1     111.354 124.796 136.106  0.00  0.00    +0.000 A 
ATOM     21  C   UNL     1     111.508 124.587 136.888  0.00  0.00    +0.000 A 
ENDBRANCH  12  16
ENDBRANCH   1   5
BRANCH   1  30
ATOM     22  O   UNL     1     110.953 130.462 137.207  0.00  0.00    +0.000 OA
ATOM     23  O   UNL     1     110.780 132.227 138.480  0.00  0.00    +0.000 OA
ATOM     24  O   UNL     1     110.078 132.775 137.091  0.00  0.00    +0.000 OA
ATOM     25  O   UNL     1     109.960 131.781 135.779  0.00  0.00    +0.000 OA
ATOM     26  C   UNL     1     111.013 130.959 137.863  0.00  0.00    +0.000 C 
ATOM     27  C   UNL     1     110.721 131.730 137.824  0.00  0.00    +0.000 C 
ATOM     28  C   UNL     1     110.370 132.003 137.130  0.00  0.00    +0.000 C 
ATOM     29  C   UNL     1     110.311 131.506 136.474  0.00  0.00    +0.000 C 
ATOM     30  C   UNL     1     110.602 130.736 136.513  0.00  0.00    +0.000 C 
BRANCH  26  31
ATOM     31  C   UNL     1     111.363 130.685 138.558  0.00  0.00    +0.000 C 
BRANCH  31  32
ATOM     32  O   UNL     1     112.154 130.450 138.557  0.00  0.00    +0.000 OA
BRANCH  32  38
ATOM     33  O   UNL     1     111.983 129.284 139.366  0.00  0.00    +0.000 OA
ATOM     34  O   UNL     1     113.611 130.737 139.276  0.00  0.00    +0.000 OA
ATOM     35  O   UNL     1     114.169 129.715 140.445  0.00  0.00    +0.000 OA
ATOM     36  O   UNL     1     113.270 128.406 140.895  0.00  0.00    +0.000 OA
ATOM     37  C   UNL     1     113.161 130.082 139.501  0.00  0.00    +0.000 C 
ATOM     38  C   UNL     1     112.432 129.938 139.141  0.00  0.00    +0.000 C 
ATOM     39  C   UNL     1     113.440 129.571 140.086  0.00  0.00    +0.000 C 
ATOM     40  C   UNL     1     112.990 128.917 140.310  0.00  0.00    +0.000 C 
ATOM     41  C   UNL     1     112.262 128.774 139.950  0.00  0.00    +0.000 C 
ATOM     42  C   UNL     1     111.813 128.119 140.175  0.00  0.00    +0.000 C 
ENDBRANCH  32  38
ENDBRANCH  31  32
ENDBRANCH  26  31
ENDBRANCH   1  30
TORSDOF 6
ENDMDL
MODEL 9
REMARK VINA RESULT:     -10.2      2.377      5.526
REMARK  Name = 44258082
REMARK  6 active torsions:
REMARK  status: ('A' for Active; 'I' for Inactive)
REMARK    1  A    between atoms: O_3  and  C_21
REMARK    2  A    between atoms: O_3  and  C_26
REMARK    3  A    between atoms: O_6  and  C_24
REMARK    4  A    between atoms: O_6  and  C_28
REMARK    5  A    between atoms: C_16  and  C_26
REMARK    6  A    between atoms: C_35  and  C_37
REMARK                            x       y       z     vdW  Elec       q    Type
REMARK                         _______ _______ _______ _____ _____    ______ ____
ROOT
ATOM      1  O   UNL     1     110.876 127.122 135.769  0.00  0.00    +0.000 OA
ENDROOT
BRANCH   1   5
ATOM      2  O   UNL     1     111.029 129.841 136.802  0.00  0.00    +0.000 OA
ATOM      3  O   UNL     1     113.317 128.697 135.458  0.00  0.00    +0.000 OA
ATOM      4  O   UNL     1     113.356 130.040 135.983  0.00  0.00    +0.000 OA
ATOM      5  C   UNL     1     111.300 127.821 135.886  0.00  0.00    +0.000 A 
ATOM      6  C   UNL     1     110.936 128.484 136.293  0.00  0.00    +0.000 A 
ATOM      7  C   UNL     1     112.108 127.890 135.601  0.00  0.00    +0.000 A 
ATOM      8  C   UNL     1     111.384 129.207 136.411  0.00  0.00    +0.000 A 
ATOM      9  C   UNL     1     112.541 128.621 135.728  0.00  0.00    +0.000 A 
ATOM     10  C   UNL     1     112.160 129.273 136.137  0.00  0.00    +0.000 A 
ATOM     11  C   UNL     1     112.581 129.973 136.256  0.00  0.00    +0.000 A 
ATOM     12  C   UNL     1     111.450 130.540 136.921  0.00  0.00    +0.000 A 
ATOM     13  C   UNL     1     112.226 130.606 136.647  0.00  0.00    +0.000 A 
BRANCH  12  16
ATOM     14  O   UNL     1     110.568 131.770 139.346  0.00  0.00    +0.000 OA
ATOM     15  O   UNL     1     110.031 133.074 138.489  0.00  0.00    +0.000 OA
ATOM     16  C   UNL     1     111.095 131.174 137.313  0.00  0.00    +0.000 A 
ATOM     17  C   UNL     1     111.009 131.155 138.133  0.00  0.00    +0.000 A 
ATOM     18  C   UNL     1     110.827 131.826 136.884  0.00  0.00    +0.000 A 
ATOM     19  C   UNL     1     110.654 131.788 138.526  0.00  0.00    +0.000 A 
ATOM     20  C   UNL     1     110.472 132.459 137.277  0.00  0.00    +0.000 A 
ATOM     21  C   UNL     1     110.386 132.440 138.097  0.00  0.00    +0.000 A 
ENDBRANCH  12  16
ENDBRANCH   1   5
BRANCH   1  30
ATOM     22  O   UNL     1     111.380 126.479 136.941  0.00  0.00    +0.000 OA
ATOM     23  O   UNL     1     111.761 124.370 137.361  0.00  0.00    +0.000 OA
ATOM     24  O   UNL     1     111.195 124.282 135.813  0.00  0.00    +0.000 OA
ATOM     25  O   UNL     1     110.753 125.658 135.017  0.00  0.00    +0.000 OA
ATOM     26  C   UNL     1     111.601 125.791 137.339  0.00  0.00    +0.000 C 
ATOM     27  C   UNL     1     111.540 125.058 136.963  0.00  0.00    +0.000 C 
ATOM     28  C   UNL     1     111.257 125.015 136.189  0.00  0.00    +0.000 C 
ATOM     29  C   UNL     1     111.036 125.703 135.791  0.00  0.00    +0.000 C 
ATOM     30  C   UNL     1     111.097 126.434 136.167  0.00  0.00    +0.000 C 
BRANCH  26  31
ATOM     31  C   UNL     1     111.884 125.834 138.112  0.00  0.00    +0.000 C 
BRANCH  31  32
ATOM     32  O   UNL     1     111.475 126.273 138.678  0.00  0.00    +0.000 OA
BRANCH  32  38
ATOM     33  O   UNL     1     112.604 126.767 139.401  0.00  0.00    +0.000 OA
ATOM     34  O   UNL     1     110.666 126.043 140.097  0.00  0.00    +0.000 OA
ATOM     35  O   UNL     1     111.391 126.422 141.531  0.00  0.00    +0.000 OA
ATOM     36  O   UNL     1     112.925 127.030 141.544  0.00  0.00    +0.000 OA
ATOM     37  C   UNL     1     111.434 126.348 140.104  0.00  0.00    +0.000 C 
ATOM     38  C   UNL     1     111.838 126.463 139.394  0.00  0.00    +0.000 C 
ATOM     39  C   UNL     1     111.795 126.537 140.821  0.00  0.00    +0.000 C 
ATOM     40  C   UNL     1     112.562 126.841 140.827  0.00  0.00    +0.000 C 
ATOM     41  C   UNL     1     112.966 126.956 140.117  0.00  0.00    +0.000 C 
ATOM     42  C   UNL     1     113.733 127.261 140.125  0.00  0.00    +0.000 C 
ENDBRANCH  32  38
ENDBRANCH  31  32
ENDBRANCH  26  31
ENDBRANCH   1  30
TORSDOF 6
ENDMDL
MODEL 10
REMARK VINA RESULT:     -10.2      1.884      4.195
REMARK  Name = 44258082
REMARK  6 active torsions:
REMARK  status: ('A' for Active; 'I' for Inactive)
REMARK    1  A    between atoms: O_3  and  C_21
REMARK    2  A    between atoms: O_3  and  C_26
REMARK    3  A    between atoms: O_6  and  C_24
REMARK    4  A    between atoms: O_6  and  C_28
REMARK    5  A    between atoms: C_16  and  C_26
REMARK    6  A    between atoms: C_35  and  C_37
REMARK                            x       y       z     vdW  Elec       q    Type
REMARK                         _______ _______ _______ _____ _____    ______ ____
ROOT
ATOM      1  O   UNL     1     112.944 130.103 138.871  0.00  0.00    +0.000 OA
ENDROOT
BRANCH   1   5
ATOM      2  O   UNL     1     113.264 127.534 137.536  0.00  0.00    +0.000 OA
ATOM      3  O   UNL     1     113.451 129.972 135.997  0.00  0.00    +0.000 OA
ATOM      4  O   UNL     1     113.604 128.682 135.370  0.00  0.00    +0.000 OA
ATOM      5  C   UNL     1     113.079 129.664 138.184  0.00  0.00    +0.000 A 
ATOM      6  C   UNL     1     113.102 128.806 138.218  0.00  0.00    +0.000 A 
ATOM      7  C   UNL     1     113.197 130.063 137.432  0.00  0.00    +0.000 A 
ATOM      8  C   UNL     1     113.243 128.358 137.498  0.00  0.00    +0.000 A 
ATOM      9  C   UNL     1     113.336 129.598 136.723  0.00  0.00    +0.000 A 
ATOM     10  C   UNL     1     113.356 128.741 136.776  0.00  0.00    +0.000 A 
ATOM     11  C   UNL     1     113.491 128.300 136.092  0.00  0.00    +0.000 A 
ATOM     12  C   UNL     1     113.398 127.093 136.852  0.00  0.00    +0.000 A 
ATOM     13  C   UNL     1     113.512 127.476 136.130  0.00  0.00    +0.000 A 
BRANCH  12  16
ATOM     14  O   UNL     1     114.831 124.676 137.376  0.00  0.00    +0.000 OA
ATOM     15  O   UNL     1     113.484 123.798 137.004  0.00  0.00    +0.000 OA
ATOM     16  C   UNL     1     113.420 126.269 136.890  0.00  0.00    +0.000 A 
ATOM     17  C   UNL     1     114.114 125.884 137.114  0.00  0.00    +0.000 A 
ATOM     18  C   UNL     1     112.746 125.831 136.704  0.00  0.00    +0.000 A 
ATOM     19  C   UNL     1     114.136 125.061 137.152  0.00  0.00    +0.000 A 
ATOM     20  C   UNL     1     112.769 125.006 136.742  0.00  0.00    +0.000 A 
ATOM     21  C   UNL     1     113.463 124.622 136.966  0.00  0.00    +0.000 A 
ENDBRANCH  12  16
ENDBRANCH   1   5
BRANCH   1  30
ATOM     22  O   UNL     1     111.539 130.269 138.670  0.00  0.00    +0.000 OA
ATOM     23  O   UNL     1     109.891 130.347 140.101  0.00  0.00    +0.000 OA
ATOM     24  O   UNL     1     111.176 130.138 141.116  0.00  0.00    +0.000 OA
ATOM     25  O   UNL     1     112.702 130.016 140.501  0.00  0.00    +0.000 OA
ATOM     26  C   UNL     1     110.776 130.330 138.978  0.00  0.00    +0.000 C 
ATOM     27  C   UNL     1     110.655 130.286 139.793  0.00  0.00    +0.000 C 
ATOM     28  C   UNL     1     111.297 130.182 140.300  0.00  0.00    +0.000 C 
ATOM     29  C   UNL     1     112.060 130.121 139.993  0.00  0.00    +0.000 C 
ATOM     30  C   UNL     1     112.181 130.164 139.178  0.00  0.00    +0.000 C 
BRANCH  26  31
ATOM     31  C   UNL     1     110.133 130.434 138.471  0.00  0.00    +0.000 C 
BRANCH  31  32
ATOM     32  O   UNL     1     110.002 129.901 137.856  0.00  0.00    +0.000 OA
BRANCH  32  38
ATOM     33  O   UNL     1     109.120 130.832 137.224  0.00  0.00    +0.000 OA
ATOM     34  O   UNL     1     109.553 128.741 136.771  0.00  0.00    +0.000 OA
ATOM     35  O   UNL     1     108.447 129.092 135.598  0.00  0.00    +0.000 OA
ATOM     36  O   UNL     1     107.790 130.603 135.509  0.00  0.00    +0.000 OA
ATOM     37  C   UNL     1     109.224 129.497 136.727  0.00  0.00    +0.000 C 
ATOM     38  C   UNL     1     109.449 130.077 137.269  0.00  0.00    +0.000 C 
ATOM     39  C   UNL     1     108.672 129.672 136.140  0.00  0.00    +0.000 C 
ATOM     40  C   UNL     1     108.344 130.427 136.096  0.00  0.00    +0.000 C 
ATOM     41  C   UNL     1     108.568 131.007 136.638  0.00  0.00    +0.000 C 
ATOM     42  C   UNL     1     108.239 131.763 136.593  0.00  0.00    +0.000 C 
ENDBRANCH  32  38
ENDBRANCH  31  32
ENDBRANCH  26  31
ENDBRANCH   1  30
TORSDOF 6
ENDMDL
