MODEL 1
REMARK VINA RESULT:      -8.5      0.000      0.000
REMARK  Name = 42607572
REMARK  7 active torsions:
REMARK  status: ('A' for Active; 'I' for Inactive)
REMARK    1  A    between atoms: O_4  and  C_16
REMARK    2  A    between atoms: O_4  and  C_18
REMARK    3  A    between atoms: O_7  and  C_19
REMARK    4  A    between atoms: C_14  and  C_17
REMARK    5  A    between atoms: C_23  and  C_24
REMARK    6  A    between atoms: C_24  and  C_26
REMARK    7  A    between atoms: C_27  and  C_28
REMARK                            x       y       z     vdW  Elec       q    Type
REMARK                         _______ _______ _______ _____ _____    ______ ____
ROOT
ATOM      1  O   UNL     1     106.953 124.914 139.808  0.00  0.00    +0.000 OA
ATOM      2  C   UNL     1     106.600 125.732 141.801  0.00  0.00    +0.000 A 
ATOM      3  C   UNL     1     106.925 125.620 141.051  0.00  0.00    +0.000 A 
ATOM      4  C   UNL     1     105.980 125.254 142.059  0.00  0.00    +0.000 A 
ATOM      5  C   UNL     1     106.629 125.028 140.559  0.00  0.00    +0.000 A 
ATOM      6  C   UNL     1     105.684 124.662 141.566  0.00  0.00    +0.000 A 
ATOM      7  C   UNL     1     106.008 124.549 140.815  0.00  0.00    +0.000 A 
ENDROOT
BRANCH   3   8
ATOM      8  O   UNL     1     107.546 126.098 140.793  0.00  0.00    +0.000 OA
ATOM      9  C   UNL     1     108.305 125.785 140.719  0.00  0.00    +0.000 C 
ENDBRANCH   3   8
BRANCH   7  11
ATOM     10  O   UNL     1     106.149 123.269 140.197  0.00  0.00    +0.000 OA
ATOM     11  C   UNL     1     105.712 123.957 140.323  0.00  0.00    +0.000 C 
BRANCH  11  12
ATOM     12  C   UNL     1     104.979 124.054 139.957  0.00  0.00    +0.000 C 
ATOM     13  C   UNL     1     104.669 123.449 139.489  0.00  0.00    +0.000 C 
BRANCH  13  16
ATOM     14  O   UNL     1     101.834 123.082 139.493  0.00  0.00    +0.000 OA
ATOM     15  O   UNL     1     101.735 123.831 138.026  0.00  0.00    +0.000 OA
ATOM     16  C   UNL     1     103.936 123.545 139.123  0.00  0.00    +0.000 A 
ATOM     17  C   UNL     1     103.251 123.266 139.491  0.00  0.00    +0.000 A 
ATOM     18  C   UNL     1     103.886 123.920 138.390  0.00  0.00    +0.000 A 
ATOM     19  C   UNL     1     102.519 123.361 139.125  0.00  0.00    +0.000 A 
ATOM     20  C   UNL     1     103.152 124.015 138.024  0.00  0.00    +0.000 A 
ATOM     21  C   UNL     1     102.469 123.736 138.391  0.00  0.00    +0.000 A 
ENDBRANCH  13  16
ENDBRANCH  11  12
ENDBRANCH   7  11
BRANCH   2  22
ATOM     22  O   UNL     1     106.897 126.324 142.293  0.00  0.00    +0.000 OA
BRANCH  22  31
ATOM     23  O   UNL     1     105.845 127.284 142.175  0.00  0.00    +0.000 OA
ATOM     24  O   UNL     1     105.913 127.661 144.620  0.00  0.00    +0.000 OA
ATOM     25  O   UNL     1     104.839 128.495 143.687  0.00  0.00    +0.000 OA
ATOM     26  O   UNL     1     106.942 126.575 143.923  0.00  0.00    +0.000 OA
ATOM     27  C   UNL     1     105.354 127.952 143.339  0.00  0.00    +0.000 C 
ATOM     28  C   UNL     1     105.890 127.535 143.805  0.00  0.00    +0.000 C 
ATOM     29  C   UNL     1     105.331 127.827 142.524  0.00  0.00    +0.000 C 
ATOM     30  C   UNL     1     106.405 126.992 143.457  0.00  0.00    +0.000 C 
ATOM     31  C   UNL     1     106.383 126.867 142.642  0.00  0.00    +0.000 C 
BRANCH  29  33
ATOM     32  O   UNL     1     105.034 128.556 141.331  0.00  0.00    +0.000 OA
ATOM     33  C   UNL     1     104.794 128.244 142.057  0.00  0.00    +0.000 C 
ENDBRANCH  29  33
ENDBRANCH  22  31
ENDBRANCH   2  22
TORSDOF 7
ENDMDL
MODEL 2
REMARK VINA RESULT:      -8.4      3.636      5.478
REMARK  Name = 42607572
REMARK  7 active torsions:
REMARK  status: ('A' for Active; 'I' for Inactive)
REMARK    1  A    between atoms: O_4  and  C_16
REMARK    2  A    between atoms: O_4  and  C_18
REMARK    3  A    between atoms: O_7  and  C_19
REMARK    4  A    between atoms: C_14  and  C_17
REMARK    5  A    between atoms: C_23  and  C_24
REMARK    6  A    between atoms: C_24  and  C_26
REMARK    7  A    between atoms: C_27  and  C_28
REMARK                            x       y       z     vdW  Elec       q    Type
REMARK                         _______ _______ _______ _____ _____    ______ ____
ROOT
ATOM      1  O   UNL     1     106.347 125.688 143.522  0.00  0.00    +0.000 OA
ATOM      2  C   UNL     1     105.581 125.417 145.548  0.00  0.00    +0.000 A 
ATOM      3  C   UNL     1     105.894 125.248 144.805  0.00  0.00    +0.000 A 
ATOM      4  C   UNL     1     105.407 126.197 145.756  0.00  0.00    +0.000 A 
ATOM      5  C   UNL     1     106.033 125.858 144.267  0.00  0.00    +0.000 A 
ATOM      6  C   UNL     1     105.546 126.807 145.218  0.00  0.00    +0.000 A 
ATOM      7  C   UNL     1     105.860 126.637 144.473  0.00  0.00    +0.000 A 
ENDROOT
BRANCH   3   8
ATOM      8  O   UNL     1     106.068 124.468 144.598  0.00  0.00    +0.000 OA
ATOM      9  C   UNL     1     105.613 124.080 144.031  0.00  0.00    +0.000 C 
ENDBRANCH   3   8
BRANCH   7  11
ATOM     10  O   UNL     1     106.766 127.528 143.820  0.00  0.00    +0.000 OA
ATOM     11  C   UNL     1     105.999 127.247 143.936  0.00  0.00    +0.000 C 
BRANCH  11  12
ATOM     12  C   UNL     1     105.371 127.576 143.514  0.00  0.00    +0.000 C 
ATOM     13  C   UNL     1     105.500 128.228 143.024  0.00  0.00    +0.000 C 
BRANCH  13  16
ATOM     14  O   UNL     1     103.884 128.328 140.669  0.00  0.00    +0.000 OA
ATOM     15  O   UNL     1     102.990 129.546 141.333  0.00  0.00    +0.000 OA
ATOM     16  C   UNL     1     104.872 128.557 142.602  0.00  0.00    +0.000 A 
ATOM     17  C   UNL     1     104.692 128.278 141.846  0.00  0.00    +0.000 A 
ATOM     18  C   UNL     1     104.426 129.166 142.934  0.00  0.00    +0.000 A 
ATOM     19  C   UNL     1     104.064 128.608 141.424  0.00  0.00    +0.000 A 
ATOM     20  C   UNL     1     103.798 129.495 142.511  0.00  0.00    +0.000 A 
ATOM     21  C   UNL     1     103.618 129.216 141.757  0.00  0.00    +0.000 A 
ENDBRANCH  13  16
ENDBRANCH  11  12
ENDBRANCH   7  11
BRANCH   2  22
ATOM     22  O   UNL     1     105.442 124.807 146.086  0.00  0.00    +0.000 OA
BRANCH  22  31
ATOM     23  O   UNL     1     106.517 125.073 146.989  0.00  0.00    +0.000 OA
ATOM     24  O   UNL     1     105.023 124.607 148.906  0.00  0.00    +0.000 OA
ATOM     25  O   UNL     1     106.596 125.028 149.169  0.00  0.00    +0.000 OA
ATOM     26  O   UNL     1     104.446 124.497 147.364  0.00  0.00    +0.000 OA
ATOM     27  C   UNL     1     106.308 124.973 148.399  0.00  0.00    +0.000 C 
ATOM     28  C   UNL     1     105.521 124.763 148.267  0.00  0.00    +0.000 C 
ATOM     29  C   UNL     1     106.806 125.128 147.759  0.00  0.00    +0.000 C 
ATOM     30  C   UNL     1     105.232 124.707 147.496  0.00  0.00    +0.000 C 
ATOM     31  C   UNL     1     105.730 124.862 146.857  0.00  0.00    +0.000 C 
BRANCH  29  33
ATOM     32  O   UNL     1     108.171 125.132 147.339  0.00  0.00    +0.000 OA
ATOM     33  C   UNL     1     107.592 125.338 147.890  0.00  0.00    +0.000 C 
ENDBRANCH  29  33
ENDBRANCH  22  31
ENDBRANCH   2  22
TORSDOF 7
ENDMDL
MODEL 3
REMARK VINA RESULT:      -8.3      3.510      5.803
REMARK  Name = 42607572
REMARK  7 active torsions:
REMARK  status: ('A' for Active; 'I' for Inactive)
REMARK    1  A    between atoms: O_4  and  C_16
REMARK    2  A    between atoms: O_4  and  C_18
REMARK    3  A    between atoms: O_7  and  C_19
REMARK    4  A    between atoms: C_14  and  C_17
REMARK    5  A    between atoms: C_23  and  C_24
REMARK    6  A    between atoms: C_24  and  C_26
REMARK    7  A    between atoms: C_27  and  C_28
REMARK                            x       y       z     vdW  Elec       q    Type
REMARK                         _______ _______ _______ _____ _____    ______ ____
ROOT
ATOM      1  O   UNL     1     107.067 126.120 145.496  0.00  0.00    +0.000 OA
ATOM      2  C   UNL     1     105.310 125.360 146.545  0.00  0.00    +0.000 A 
ATOM      3  C   UNL     1     106.086 125.433 146.277  0.00  0.00    +0.000 A 
ATOM      4  C   UNL     1     104.736 125.901 146.302  0.00  0.00    +0.000 A 
ATOM      5  C   UNL     1     106.289 126.047 145.765  0.00  0.00    +0.000 A 
ATOM      6  C   UNL     1     104.940 126.515 145.790  0.00  0.00    +0.000 A 
ATOM      7  C   UNL     1     105.717 126.588 145.521  0.00  0.00    +0.000 A 
ENDROOT
BRANCH   3   8
ATOM      8  O   UNL     1     106.660 124.892 146.520  0.00  0.00    +0.000 OA
ATOM      9  C   UNL     1     107.213 125.106 147.092  0.00  0.00    +0.000 C 
ENDBRANCH   3   8
BRANCH   7  11
ATOM     10  O   UNL     1     106.516 127.732 145.217  0.00  0.00    +0.000 OA
ATOM     11  C   UNL     1     105.920 127.202 145.009  0.00  0.00    +0.000 C 
BRANCH  11  12
ATOM     12  C   UNL     1     105.527 127.285 144.288  0.00  0.00    +0.000 C 
ATOM     13  C   UNL     1     105.715 127.911 143.786  0.00  0.00    +0.000 C 
BRANCH  13  16
ATOM     14  O   UNL     1     105.272 127.053 141.096  0.00  0.00    +0.000 OA
ATOM     15  O   UNL     1     104.147 128.245 140.901  0.00  0.00    +0.000 OA
ATOM     16  C   UNL     1     105.323 127.995 143.065  0.00  0.00    +0.000 A 
ATOM     17  C   UNL     1     105.494 127.482 142.441  0.00  0.00    +0.000 A 
ATOM     18  C   UNL     1     104.761 128.591 142.967  0.00  0.00    +0.000 A 
ATOM     19  C   UNL     1     105.101 127.566 141.720  0.00  0.00    +0.000 A 
ATOM     20  C   UNL     1     104.369 128.674 142.246  0.00  0.00    +0.000 A 
ATOM     21  C   UNL     1     104.539 128.162 141.623  0.00  0.00    +0.000 A 
ENDBRANCH  13  16
ENDBRANCH  11  12
ENDBRANCH   7  11
BRANCH   2  22
ATOM     22  O   UNL     1     105.106 124.746 147.057  0.00  0.00    +0.000 OA
BRANCH  22  31
ATOM     23  O   UNL     1     104.392 123.859 146.194  0.00  0.00    +0.000 OA
ATOM     24  O   UNL     1     102.554 123.731 147.848  0.00  0.00    +0.000 OA
ATOM     25  O   UNL     1     102.453 122.887 146.434  0.00  0.00    +0.000 OA
ATOM     26  O   UNL     1     103.881 124.661 148.159  0.00  0.00    +0.000 OA
ATOM     27  C   UNL     1     103.116 123.352 146.590  0.00  0.00    +0.000 C 
ATOM     28  C   UNL     1     103.167 123.774 147.296  0.00  0.00    +0.000 C 
ATOM     29  C   UNL     1     103.728 123.395 146.039  0.00  0.00    +0.000 C 
ATOM     30  C   UNL     1     103.830 124.239 147.453  0.00  0.00    +0.000 C 
ATOM     31  C   UNL     1     104.443 124.282 146.902  0.00  0.00    +0.000 C 
BRANCH  29  33
ATOM     32  O   UNL     1     104.367 122.740 144.941  0.00  0.00    +0.000 OA
ATOM     33  C   UNL     1     103.678 122.973 145.332  0.00  0.00    +0.000 C 
ENDBRANCH  29  33
ENDBRANCH  22  31
ENDBRANCH   2  22
TORSDOF 7
ENDMDL
MODEL 4
REMARK VINA RESULT:      -8.3      6.899      9.454
REMARK  Name = 42607572
REMARK  7 active torsions:
REMARK  status: ('A' for Active; 'I' for Inactive)
REMARK    1  A    between atoms: O_4  and  C_16
REMARK    2  A    between atoms: O_4  and  C_18
REMARK    3  A    between atoms: O_7  and  C_19
REMARK    4  A    between atoms: C_14  and  C_17
REMARK    5  A    between atoms: C_23  and  C_24
REMARK    6  A    between atoms: C_24  and  C_26
REMARK    7  A    between atoms: C_27  and  C_28
REMARK                            x       y       z     vdW  Elec       q    Type
REMARK                         _______ _______ _______ _____ _____    ______ ____
ROOT
ATOM      1  O   UNL     1     113.490 129.151 137.358  0.00  0.00    +0.000 OA
ATOM      2  C   UNL     1     111.716 129.693 136.208  0.00  0.00    +0.000 A 
ATOM      3  C   UNL     1     112.292 129.693 136.798  0.00  0.00    +0.000 A 
ATOM      4  C   UNL     1     111.762 129.153 135.586  0.00  0.00    +0.000 A 
ATOM      5  C   UNL     1     112.914 129.152 136.767  0.00  0.00    +0.000 A 
ATOM      6  C   UNL     1     112.384 128.612 135.555  0.00  0.00    +0.000 A 
ATOM      7  C   UNL     1     112.960 128.611 136.146  0.00  0.00    +0.000 A 
ENDROOT
BRANCH   3   8
ATOM      8  O   UNL     1     112.246 130.233 137.420  0.00  0.00    +0.000 OA
ATOM      9  C   UNL     1     112.795 130.845 137.476  0.00  0.00    +0.000 C 
ENDBRANCH   3   8
BRANCH   7  11
ATOM     10  O   UNL     1     114.314 128.300 135.811  0.00  0.00    +0.000 OA
ATOM     11  C   UNL     1     113.582 128.070 136.115  0.00  0.00    +0.000 C 
BRANCH  11  12
ATOM     12  C   UNL     1     113.472 127.299 136.388  0.00  0.00    +0.000 C 
ATOM     13  C   UNL     1     114.012 126.709 136.185  0.00  0.00    +0.000 C 
BRANCH  13  16
ATOM     14  O   UNL     1     114.972 124.435 137.625  0.00  0.00    +0.000 OA
ATOM     15  O   UNL     1     113.578 123.625 137.276  0.00  0.00    +0.000 OA
ATOM     16  C   UNL     1     113.903 125.938 136.458  0.00  0.00    +0.000 A 
ATOM     17  C   UNL     1     114.492 125.572 136.905  0.00  0.00    +0.000 A 
ATOM     18  C   UNL     1     113.206 125.534 136.283  0.00  0.00    +0.000 A 
ATOM     19  C   UNL     1     114.383 124.801 137.177  0.00  0.00    +0.000 A 
ATOM     20  C   UNL     1     113.097 124.762 136.556  0.00  0.00    +0.000 A 
ATOM     21  C   UNL     1     113.686 124.396 137.003  0.00  0.00    +0.000 A 
ENDBRANCH  13  16
ENDBRANCH  11  12
ENDBRANCH   7  11
BRANCH   2  22
ATOM     22  O   UNL     1     111.094 130.234 136.239  0.00  0.00    +0.000 OA
BRANCH  22  31
ATOM     23  O   UNL     1     110.057 129.290 136.513  0.00  0.00    +0.000 OA
ATOM     24  O   UNL     1     108.507 130.574 135.074  0.00  0.00    +0.000 OA
ATOM     25  O   UNL     1     107.987 129.202 135.828  0.00  0.00    +0.000 OA
ATOM     26  O   UNL     1     110.060 131.091 135.279  0.00  0.00    +0.000 OA
ATOM     27  C   UNL     1     108.764 129.461 135.930  0.00  0.00    +0.000 C 
ATOM     28  C   UNL     1     109.023 130.146 135.554  0.00  0.00    +0.000 C 
ATOM     29  C   UNL     1     109.281 129.032 136.410  0.00  0.00    +0.000 C 
ATOM     30  C   UNL     1     109.800 130.405 135.656  0.00  0.00    +0.000 C 
ATOM     31  C   UNL     1     110.317 129.977 136.136  0.00  0.00    +0.000 C 
BRANCH  29  33
ATOM     32  O   UNL     1     109.186 128.229 137.588  0.00  0.00    +0.000 OA
ATOM     33  C   UNL     1     109.021 128.346 136.787  0.00  0.00    +0.000 C 
ENDBRANCH  29  33
ENDBRANCH  22  31
ENDBRANCH   2  22
TORSDOF 7
ENDMDL
MODEL 5
REMARK VINA RESULT:      -8.3      5.726      9.392
REMARK  Name = 42607572
REMARK  7 active torsions:
REMARK  status: ('A' for Active; 'I' for Inactive)
REMARK    1  A    between atoms: O_4  and  C_16
REMARK    2  A    between atoms: O_4  and  C_18
REMARK    3  A    between atoms: O_7  and  C_19
REMARK    4  A    between atoms: C_14  and  C_17
REMARK    5  A    between atoms: C_23  and  C_24
REMARK    6  A    between atoms: C_24  and  C_26
REMARK    7  A    between atoms: C_27  and  C_28
REMARK                            x       y       z     vdW  Elec       q    Type
REMARK                         _______ _______ _______ _____ _____    ______ ____
ROOT
ATOM      1  O   UNL     1     111.521 126.351 140.976  0.00  0.00    +0.000 OA
ATOM      2  C   UNL     1     111.200 126.227 138.820  0.00  0.00    +0.000 A 
ATOM      3  C   UNL     1     111.080 126.144 139.632  0.00  0.00    +0.000 A 
ATOM      4  C   UNL     1     111.881 126.598 138.539  0.00  0.00    +0.000 A 
ATOM      5  C   UNL     1     111.641 126.433 140.163  0.00  0.00    +0.000 A 
ATOM      6  C   UNL     1     112.442 126.887 139.070  0.00  0.00    +0.000 A 
ATOM      7  C   UNL     1     112.322 126.804 139.883  0.00  0.00    +0.000 A 
ENDROOT
BRANCH   3   8
ATOM      8  O   UNL     1     110.399 125.773 139.913  0.00  0.00    +0.000 OA
ATOM      9  C   UNL     1     109.835 126.206 140.332  0.00  0.00    +0.000 C 
ENDBRANCH   3   8
BRANCH   7  11
ATOM     10  O   UNL     1     113.233 126.585 140.961  0.00  0.00    +0.000 OA
ATOM     11  C   UNL     1     112.883 127.093 140.414  0.00  0.00    +0.000 C 
BRANCH  11  12
ATOM     12  C   UNL     1     113.095 127.890 140.398  0.00  0.00    +0.000 C 
ATOM     13  C   UNL     1     113.649 128.181 140.935  0.00  0.00    +0.000 C 
BRANCH  13  16
ATOM     14  O   UNL     1     113.099 130.901 141.618  0.00  0.00    +0.000 OA
ATOM     15  O   UNL     1     114.495 131.370 140.873  0.00  0.00    +0.000 OA
ATOM     16  C   UNL     1     113.861 128.978 140.919  0.00  0.00    +0.000 A 
ATOM     17  C   UNL     1     113.374 129.541 141.276  0.00  0.00    +0.000 A 
ATOM     18  C   UNL     1     114.559 129.213 140.547  0.00  0.00    +0.000 A 
ATOM     19  C   UNL     1     113.586 130.338 141.261  0.00  0.00    +0.000 A 
ATOM     20  C   UNL     1     114.770 130.010 140.532  0.00  0.00    +0.000 A 
ATOM     21  C   UNL     1     114.284 130.573 140.888  0.00  0.00    +0.000 A 
ENDBRANCH  13  16
ENDBRANCH  11  12
ENDBRANCH   7  11
BRANCH   2  22
ATOM     22  O   UNL     1     110.639 125.938 138.289  0.00  0.00    +0.000 OA
BRANCH  22  31
ATOM     23  O   UNL     1     111.351 124.834 137.727  0.00  0.00    +0.000 OA
ATOM     24  O   UNL     1     110.658 125.540 135.459  0.00  0.00    +0.000 OA
ATOM     25  O   UNL     1     111.600 124.201 135.654  0.00  0.00    +0.000 OA
ATOM     26  O   UNL     1     110.177 126.409 136.777  0.00  0.00    +0.000 OA
ATOM     27  C   UNL     1     111.360 124.635 136.312  0.00  0.00    +0.000 C 
ATOM     28  C   UNL     1     110.889 125.305 136.215  0.00  0.00    +0.000 C 
ATOM     29  C   UNL     1     111.591 124.400 137.068  0.00  0.00    +0.000 C 
ATOM     30  C   UNL     1     110.648 125.740 136.874  0.00  0.00    +0.000 C 
ATOM     31  C   UNL     1     110.879 125.504 137.630  0.00  0.00    +0.000 C 
BRANCH  29  33
ATOM     32  O   UNL     1     111.822 123.129 137.679  0.00  0.00    +0.000 OA
ATOM     33  C   UNL     1     112.062 123.730 137.166  0.00  0.00    +0.000 C 
ENDBRANCH  29  33
ENDBRANCH  22  31
ENDBRANCH   2  22
TORSDOF 7
ENDMDL
MODEL 6
REMARK VINA RESULT:      -8.1      6.816      8.188
REMARK  Name = 42607572
REMARK  7 active torsions:
REMARK  status: ('A' for Active; 'I' for Inactive)
REMARK    1  A    between atoms: O_4  and  C_16
REMARK    2  A    between atoms: O_4  and  C_18
REMARK    3  A    between atoms: O_7  and  C_19
REMARK    4  A    between atoms: C_14  and  C_17
REMARK    5  A    between atoms: C_23  and  C_24
REMARK    6  A    between atoms: C_24  and  C_26
REMARK    7  A    between atoms: C_27  and  C_28
REMARK                            x       y       z     vdW  Elec       q    Type
REMARK                         _______ _______ _______ _____ _____    ______ ____
ROOT
ATOM      1  O   UNL     1     110.660 125.230 135.829  0.00  0.00    +0.000 OA
ATOM      2  C   UNL     1     112.344 125.777 137.105  0.00  0.00    +0.000 A 
ATOM      3  C   UNL     1     111.738 125.336 136.762  0.00  0.00    +0.000 A 
ATOM      4  C   UNL     1     112.480 126.554 136.861  0.00  0.00    +0.000 A 
ATOM      5  C   UNL     1     111.267 125.672 136.173  0.00  0.00    +0.000 A 
ATOM      6  C   UNL     1     112.009 126.889 136.272  0.00  0.00    +0.000 A 
ATOM      7  C   UNL     1     111.402 126.448 135.928  0.00  0.00    +0.000 A 
ENDROOT
BRANCH   3   8
ATOM      8  O   UNL     1     111.602 124.560 137.006  0.00  0.00    +0.000 OA
ATOM      9  C   UNL     1     111.817 123.930 136.519  0.00  0.00    +0.000 C 
ENDBRANCH   3   8
BRANCH   7  11
ATOM     10  O   UNL     1     110.848 126.403 134.612  0.00  0.00    +0.000 OA
ATOM     11  C   UNL     1     110.931 126.783 135.339  0.00  0.00    +0.000 C 
BRANCH  11  12
ATOM     12  C   UNL     1     110.544 127.498 135.479  0.00  0.00    +0.000 C 
ATOM     13  C   UNL     1     110.083 127.839 134.886  0.00  0.00    +0.000 C 
BRANCH  13  16
ATOM     14  O   UNL     1     107.974 129.309 136.136  0.00  0.00    +0.000 OA
ATOM     15  O   UNL     1     108.530 130.698 135.441  0.00  0.00    +0.000 OA
ATOM     16  C   UNL     1     109.695 128.554 135.025  0.00  0.00    +0.000 A 
ATOM     17  C   UNL     1     109.028 128.574 135.511  0.00  0.00    +0.000 A 
ATOM     18  C   UNL     1     109.973 129.249 134.677  0.00  0.00    +0.000 A 
ATOM     19  C   UNL     1     108.641 129.289 135.649  0.00  0.00    +0.000 A 
ATOM     20  C   UNL     1     109.585 129.963 134.817  0.00  0.00    +0.000 A 
ATOM     21  C   UNL     1     108.919 129.984 135.302  0.00  0.00    +0.000 A 
ENDBRANCH  13  16
ENDBRANCH  11  12
ENDBRANCH   7  11
BRANCH   2  22
ATOM     22  O   UNL     1     112.815 125.442 137.694  0.00  0.00    +0.000 OA
BRANCH  22  31
ATOM     23  O   UNL     1     112.282 126.081 138.856  0.00  0.00    +0.000 OA
ATOM     24  O   UNL     1     114.578 126.558 139.648  0.00  0.00    +0.000 OA
ATOM     25  O   UNL     1     113.279 127.037 140.544  0.00  0.00    +0.000 OA
ATOM     26  O   UNL     1     114.346 125.760 138.222  0.00  0.00    +0.000 OA
ATOM     27  C   UNL     1     113.164 126.638 139.832  0.00  0.00    +0.000 C 
ATOM     28  C   UNL     1     113.812 126.399 139.384  0.00  0.00    +0.000 C 
ATOM     29  C   UNL     1     112.398 126.479 139.568  0.00  0.00    +0.000 C 
ATOM     30  C   UNL     1     113.697 126.000 138.670  0.00  0.00    +0.000 C 
ATOM     31  C   UNL     1     112.932 125.841 138.406  0.00  0.00    +0.000 C 
BRANCH  29  33
ATOM     32  O   UNL     1     111.158 126.175 140.209  0.00  0.00    +0.000 OA
ATOM     33  C   UNL     1     111.749 126.719 140.016  0.00  0.00    +0.000 C 
ENDBRANCH  29  33
ENDBRANCH  22  31
ENDBRANCH   2  22
TORSDOF 7
ENDMDL
MODEL 7
REMARK VINA RESULT:      -8.0      7.651      9.840
REMARK  Name = 42607572
REMARK  7 active torsions:
REMARK  status: ('A' for Active; 'I' for Inactive)
REMARK    1  A    between atoms: O_4  and  C_16
REMARK    2  A    between atoms: O_4  and  C_18
REMARK    3  A    between atoms: O_7  and  C_19
REMARK    4  A    between atoms: C_14  and  C_17
REMARK    5  A    between atoms: C_23  and  C_24
REMARK    6  A    between atoms: C_24  and  C_26
REMARK    7  A    between atoms: C_27  and  C_28
REMARK                            x       y       z     vdW  Elec       q    Type
REMARK                         _______ _______ _______ _____ _____    ______ ____
ROOT
ATOM      1  O   UNL     1     114.589 126.118 138.824  0.00  0.00    +0.000 OA
ATOM      2  C   UNL     1     112.784 125.775 137.644  0.00  0.00    +0.000 A 
ATOM      3  C   UNL     1     113.576 125.778 137.873  0.00  0.00    +0.000 A 
ATOM      4  C   UNL     1     112.210 126.106 138.135  0.00  0.00    +0.000 A 
ATOM      5  C   UNL     1     113.796 126.114 138.594  0.00  0.00    +0.000 A 
ATOM      6  C   UNL     1     112.430 126.442 138.856  0.00  0.00    +0.000 A 
ATOM      7  C   UNL     1     113.223 126.446 139.086  0.00  0.00    +0.000 A 
ENDROOT
BRANCH   3   8
ATOM      8  O   UNL     1     114.150 125.447 137.382  0.00  0.00    +0.000 OA
ATOM      9  C   UNL     1     114.544 124.760 137.612  0.00  0.00    +0.000 C 
ENDBRANCH   3   8
BRANCH   7  11
ATOM     10  O   UNL     1     113.518 126.308 140.476  0.00  0.00    +0.000 OA
ATOM     11  C   UNL     1     113.442 126.782 139.807  0.00  0.00    +0.000 C 
BRANCH  11  12
ATOM     12  C   UNL     1     113.585 127.594 139.857  0.00  0.00    +0.000 C 
ATOM     13  C   UNL     1     113.675 127.951 140.595  0.00  0.00    +0.000 C 
BRANCH  13  16
ATOM     14  O   UNL     1     112.708 130.614 140.973  0.00  0.00    +0.000 OA
ATOM     15  O   UNL     1     114.243 131.195 140.801  0.00  0.00    +0.000 OA
ATOM     16  C   UNL     1     113.818 128.762 140.646  0.00  0.00    +0.000 A 
ATOM     17  C   UNL     1     113.192 129.283 140.784  0.00  0.00    +0.000 A 
ATOM     18  C   UNL     1     114.585 129.053 140.560  0.00  0.00    +0.000 A 
ATOM     19  C   UNL     1     113.334 130.093 140.836  0.00  0.00    +0.000 A 
ATOM     20  C   UNL     1     114.726 129.864 140.612  0.00  0.00    +0.000 A 
ATOM     21  C   UNL     1     114.102 130.384 140.750  0.00  0.00    +0.000 A 
ENDBRANCH  13  16
ENDBRANCH  11  12
ENDBRANCH   7  11
BRANCH   2  22
ATOM     22  O   UNL     1     112.565 125.439 136.923  0.00  0.00    +0.000 OA
BRANCH  22  31
ATOM     23  O   UNL     1     112.125 126.622 136.253  0.00  0.00    +0.000 OA
ATOM     24  O   UNL     1     110.184 125.385 135.344  0.00  0.00    +0.000 OA
ATOM     25  O   UNL     1     110.392 126.979 134.977  0.00  0.00    +0.000 OA
ATOM     26  O   UNL     1     111.271 124.614 136.317  0.00  0.00    +0.000 OA
ATOM     27  C   UNL     1     110.935 126.594 135.463  0.00  0.00    +0.000 C 
ATOM     28  C   UNL     1     110.831 125.797 135.647  0.00  0.00    +0.000 C 
ATOM     29  C   UNL     1     111.582 127.006 135.767  0.00  0.00    +0.000 C 
ATOM     30  C   UNL     1     111.374 125.411 136.134  0.00  0.00    +0.000 C 
ATOM     31  C   UNL     1     112.022 125.823 136.437  0.00  0.00    +0.000 C 
BRANCH  29  33
ATOM     32  O   UNL     1     112.435 128.085 135.379  0.00  0.00    +0.000 OA
ATOM     33  C   UNL     1     111.686 127.804 135.584  0.00  0.00    +0.000 C 
ENDBRANCH  29  33
ENDBRANCH  22  31
ENDBRANCH   2  22
TORSDOF 7
ENDMDL
MODEL 8
REMARK VINA RESULT:      -7.9      7.087      9.940
REMARK  Name = 42607572
REMARK  7 active torsions:
REMARK  status: ('A' for Active; 'I' for Inactive)
REMARK    1  A    between atoms: O_4  and  C_16
REMARK    2  A    between atoms: O_4  and  C_18
REMARK    3  A    between atoms: O_7  and  C_19
REMARK    4  A    between atoms: C_14  and  C_17
REMARK    5  A    between atoms: C_23  and  C_24
REMARK    6  A    between atoms: C_24  and  C_26
REMARK    7  A    between atoms: C_27  and  C_28
REMARK                            x       y       z     vdW  Elec       q    Type
REMARK                         _______ _______ _______ _____ _____    ______ ____
ROOT
ATOM      1  O   UNL     1     113.500 128.197 137.144  0.00  0.00    +0.000 OA
ATOM      2  C   UNL     1     111.613 129.133 136.574  0.00  0.00    +0.000 A 
ATOM      3  C   UNL     1     112.339 128.747 136.517  0.00  0.00    +0.000 A 
ATOM      4  C   UNL     1     111.319 129.355 137.312  0.00  0.00    +0.000 A 
ATOM      5  C   UNL     1     112.773 128.583 137.200  0.00  0.00    +0.000 A 
ATOM      6  C   UNL     1     111.752 129.190 137.994  0.00  0.00    +0.000 A 
ATOM      7  C   UNL     1     112.479 128.804 137.939  0.00  0.00    +0.000 A 
ENDROOT
BRANCH   3   8
ATOM      8  O   UNL     1     112.634 128.526 135.779  0.00  0.00    +0.000 OA
ATOM      9  C   UNL     1     113.299 128.902 135.470  0.00  0.00    +0.000 C 
ENDBRANCH   3   8
BRANCH   7  11
ATOM     10  O   UNL     1     112.993 127.861 138.880  0.00  0.00    +0.000 OA
ATOM     11  C   UNL     1     112.913 128.639 138.621  0.00  0.00    +0.000 C 
BRANCH  11  12
ATOM     12  C   UNL     1     113.266 129.254 139.043  0.00  0.00    +0.000 C 
ATOM     13  C   UNL     1     113.554 129.119 139.804  0.00  0.00    +0.000 C 
BRANCH  13  16
ATOM     14  O   UNL     1     113.435 131.082 141.878  0.00  0.00    +0.000 OA
ATOM     15  O   UNL     1     114.964 131.574 141.499  0.00  0.00    +0.000 OA
ATOM     16  C   UNL     1     113.907 129.732 140.228  0.00  0.00    +0.000 A 
ATOM     17  C   UNL     1     113.495 130.100 140.841  0.00  0.00    +0.000 A 
ATOM     18  C   UNL     1     114.671 129.979 140.038  0.00  0.00    +0.000 A 
ATOM     19  C   UNL     1     113.847 130.714 141.265  0.00  0.00    +0.000 A 
ATOM     20  C   UNL     1     115.023 130.593 140.462  0.00  0.00    +0.000 A 
ATOM     21  C   UNL     1     114.612 130.960 141.075  0.00  0.00    +0.000 A 
ENDBRANCH  13  16
ENDBRANCH  11  12
ENDBRANCH   7  11
BRANCH   2  22
ATOM     22  O   UNL     1     111.180 129.298 135.891  0.00  0.00    +0.000 OA
BRANCH  22  31
ATOM     23  O   UNL     1     110.107 128.367 136.049  0.00  0.00    +0.000 OA
ATOM     24  O   UNL     1     108.488 130.124 135.403  0.00  0.00    +0.000 OA
ATOM     25  O   UNL     1     107.955 128.609 135.776  0.00  0.00    +0.000 OA
ATOM     26  O   UNL     1     110.100 130.469 135.460  0.00  0.00    +0.000 OA
ATOM     27  C   UNL     1     108.761 128.781 135.805  0.00  0.00    +0.000 C 
ATOM     28  C   UNL     1     109.027 129.539 135.618  0.00  0.00    +0.000 C 
ATOM     29  C   UNL     1     109.300 128.196 136.020  0.00  0.00    +0.000 C 
ATOM     30  C   UNL     1     109.834 129.712 135.647  0.00  0.00    +0.000 C 
ATOM     31  C   UNL     1     110.373 129.126 135.862  0.00  0.00    +0.000 C 
BRANCH  29  33
ATOM     32  O   UNL     1     109.432 126.777 135.912  0.00  0.00    +0.000 OA
ATOM     33  C   UNL     1     109.034 127.437 136.207  0.00  0.00    +0.000 C 
ENDBRANCH  29  33
ENDBRANCH  22  31
ENDBRANCH   2  22
TORSDOF 7
ENDMDL
MODEL 9
REMARK VINA RESULT:      -7.9      8.068      9.137
REMARK  Name = 42607572
REMARK  7 active torsions:
REMARK  status: ('A' for Active; 'I' for Inactive)
REMARK    1  A    between atoms: O_4  and  C_16
REMARK    2  A    between atoms: O_4  and  C_18
REMARK    3  A    between atoms: O_7  and  C_19
REMARK    4  A    between atoms: C_14  and  C_17
REMARK    5  A    between atoms: C_23  and  C_24
REMARK    6  A    between atoms: C_24  and  C_26
REMARK    7  A    between atoms: C_27  and  C_28
REMARK                            x       y       z     vdW  Elec       q    Type
REMARK                         _______ _______ _______ _____ _____    ______ ____
ROOT
ATOM      1  O   UNL     1     114.082 129.733 137.277  0.00  0.00    +0.000 OA
ATOM      2  C   UNL     1     112.222 130.260 138.291  0.00  0.00    +0.000 A 
ATOM      3  C   UNL     1     113.012 130.275 138.055  0.00  0.00    +0.000 A 
ATOM      4  C   UNL     1     111.711 129.688 137.987  0.00  0.00    +0.000 A 
ATOM      5  C   UNL     1     113.291 129.718 137.514  0.00  0.00    +0.000 A 
ATOM      6  C   UNL     1     111.990 129.131 137.446  0.00  0.00    +0.000 A 
ATOM      7  C   UNL     1     112.781 129.146 137.209  0.00  0.00    +0.000 A 
ENDROOT
BRANCH   3   8
ATOM      8  O   UNL     1     113.524 130.847 138.359  0.00  0.00    +0.000 OA
ATOM      9  C   UNL     1     114.129 130.627 138.874  0.00  0.00    +0.000 C 
ENDBRANCH   3   8
BRANCH   7  11
ATOM     10  O   UNL     1     113.302 128.829 135.918  0.00  0.00    +0.000 OA
ATOM     11  C   UNL     1     113.060 128.589 136.668  0.00  0.00    +0.000 C 
BRANCH  11  12
ATOM     12  C   UNL     1     113.097 127.792 136.879  0.00  0.00    +0.000 C 
ATOM     13  C   UNL     1     113.361 127.234 136.333  0.00  0.00    +0.000 C 
BRANCH  13  16
ATOM     14  O   UNL     1     114.835 125.014 137.367  0.00  0.00    +0.000 OA
ATOM     15  O   UNL     1     113.513 124.046 137.173  0.00  0.00    +0.000 OA
ATOM     16  C   UNL     1     113.399 126.437 136.543  0.00  0.00    +0.000 A 
ATOM     17  C   UNL     1     114.098 126.124 136.850  0.00  0.00    +0.000 A 
ATOM     18  C   UNL     1     112.738 125.953 136.446  0.00  0.00    +0.000 A 
ATOM     19  C   UNL     1     114.135 125.327 137.060  0.00  0.00    +0.000 A 
ATOM     20  C   UNL     1     112.776 125.156 136.656  0.00  0.00    +0.000 A 
ATOM     21  C   UNL     1     113.474 124.843 136.963  0.00  0.00    +0.000 A 
ENDBRANCH  13  16
ENDBRANCH  11  12
ENDBRANCH   7  11
BRANCH   2  22
ATOM     22  O   UNL     1     111.943 130.817 138.832  0.00  0.00    +0.000 OA
BRANCH  22  31
ATOM     23  O   UNL     1     111.180 131.676 137.983  0.00  0.00    +0.000 OA
ATOM     24  O   UNL     1     109.298 131.591 139.588  0.00  0.00    +0.000 OA
ATOM     25  O   UNL     1     109.163 132.478 138.205  0.00  0.00    +0.000 OA
ATOM     26  O   UNL     1     110.689 130.760 139.902  0.00  0.00    +0.000 OA
ATOM     27  C   UNL     1     109.858 132.063 138.362  0.00  0.00    +0.000 C 
ATOM     28  C   UNL     1     109.926 131.619 139.053  0.00  0.00    +0.000 C 
ATOM     29  C   UNL     1     110.485 132.092 137.827  0.00  0.00    +0.000 C 
ATOM     30  C   UNL     1     110.621 131.204 139.211  0.00  0.00    +0.000 C 
ATOM     31  C   UNL     1     111.248 131.232 138.676  0.00  0.00    +0.000 C 
BRANCH  29  33
ATOM     32  O   UNL     1     111.036 133.030 136.900  0.00  0.00    +0.000 OA
ATOM     33  C   UNL     1     110.418 132.535 137.135  0.00  0.00    +0.000 C 
ENDBRANCH  29  33
ENDBRANCH  22  31
ENDBRANCH   2  22
TORSDOF 7
ENDMDL
MODEL 10
REMARK VINA RESULT:      -7.9      7.639      9.110
REMARK  Name = 42607572
REMARK  7 active torsions:
REMARK  status: ('A' for Active; 'I' for Inactive)
REMARK    1  A    between atoms: O_4  and  C_16
REMARK    2  A    between atoms: O_4  and  C_18
REMARK    3  A    between atoms: O_7  and  C_19
REMARK    4  A    between atoms: C_14  and  C_17
REMARK    5  A    between atoms: C_23  and  C_24
REMARK    6  A    between atoms: C_24  and  C_26
REMARK    7  A    between atoms: C_27  and  C_28
REMARK                            x       y       z     vdW  Elec       q    Type
REMARK                         _______ _______ _______ _____ _____    ______ ____
ROOT
ATOM      1  O   UNL     1     112.143 130.219 136.126  0.00  0.00    +0.000 OA
ATOM      2  C   UNL     1     111.647 128.098 135.979  0.00  0.00    +0.000 A 
ATOM      3  C   UNL     1     112.076 128.801 135.952  0.00  0.00    +0.000 A 
ATOM      4  C   UNL     1     110.854 128.107 136.207  0.00  0.00    +0.000 A 
ATOM      5  C   UNL     1     111.713 129.514 136.153  0.00  0.00    +0.000 A 
ATOM      6  C   UNL     1     110.491 128.820 136.408  0.00  0.00    +0.000 A 
ATOM      7  C   UNL     1     110.921 129.524 136.381  0.00  0.00    +0.000 A 
ENDROOT
BRANCH   3   8
ATOM      8  O   UNL     1     112.869 128.793 135.723  0.00  0.00    +0.000 OA
ATOM      9  C   UNL     1     113.095 129.124 135.003  0.00  0.00    +0.000 C 
ENDBRANCH   3   8
BRANCH   7  11
ATOM     10  O   UNL     1     110.833 130.672 137.226  0.00  0.00    +0.000 OA
ATOM     11  C   UNL     1     110.558 130.237 136.582  0.00  0.00    +0.000 C 
BRANCH  11  12
ATOM     12  C   UNL     1     109.919 130.514 136.139  0.00  0.00    +0.000 C 
ATOM     13  C   UNL     1     109.511 131.188 136.382  0.00  0.00    +0.000 C 
BRANCH  13  16
ATOM     14  O   UNL     1     106.690 131.405 135.974  0.00  0.00    +0.000 OA
ATOM     15  O   UNL     1     106.956 132.299 134.613  0.00  0.00    +0.000 OA
ATOM     16  C   UNL     1     108.872 131.466 135.939  0.00  0.00    +0.000 A 
ATOM     17  C   UNL     1     108.100 131.297 136.178  0.00  0.00    +0.000 A 
ATOM     18  C   UNL     1     109.005 131.913 135.258  0.00  0.00    +0.000 A 
ATOM     19  C   UNL     1     107.462 131.575 135.735  0.00  0.00    +0.000 A 
ATOM     20  C   UNL     1     108.366 132.190 134.816  0.00  0.00    +0.000 A 
ATOM     21  C   UNL     1     107.595 132.021 135.054  0.00  0.00    +0.000 A 
ENDBRANCH  13  16
ENDBRANCH  11  12
ENDBRANCH   7  11
BRANCH   2  22
ATOM     22  O   UNL     1     112.010 127.385 135.777  0.00  0.00    +0.000 OA
BRANCH  22  31
ATOM     23  O   UNL     1     112.113 126.741 137.048  0.00  0.00    +0.000 OA
ATOM     24  O   UNL     1     111.155 124.675 136.078  0.00  0.00    +0.000 OA
ATOM     25  O   UNL     1     111.577 124.719 137.672  0.00  0.00    +0.000 OA
ATOM     26  O   UNL     1     111.371 126.008 135.130  0.00  0.00    +0.000 OA
ATOM     27  C   UNL     1     111.685 125.385 137.198  0.00  0.00    +0.000 C 
ATOM     28  C   UNL     1     111.474 125.364 136.402  0.00  0.00    +0.000 C 
ATOM     29  C   UNL     1     112.004 126.074 137.522  0.00  0.00    +0.000 C 
ATOM     30  C   UNL     1     111.582 126.030 135.927  0.00  0.00    +0.000 C 
ATOM     31  C   UNL     1     111.902 126.719 136.250  0.00  0.00    +0.000 C 
BRANCH  29  33
ATOM     32  O   UNL     1     112.730 126.681 138.592  0.00  0.00    +0.000 OA
ATOM     33  C   UNL     1     112.215 126.096 138.319  0.00  0.00    +0.000 C 
ENDBRANCH  29  33
ENDBRANCH  22  31
ENDBRANCH   2  22
TORSDOF 7
ENDMDL
