MODEL 1
REMARK VINA RESULT:      -9.5      0.000      0.000
REMARK  Name = 76970196
REMARK  4 active torsions:
REMARK  status: ('A' for Active; 'I' for Inactive)
REMARK    1  A    between atoms: O_2  and  C_17
REMARK    2  A    between atoms: O_2  and  C_24
REMARK    3  A    between atoms: C_18  and  C_25
REMARK    4  A    between atoms: C_19  and  C_22
REMARK                            x       y       z     vdW  Elec       q    Type
REMARK                         _______ _______ _______ _____ _____    ______ ____
ROOT
ATOM      1  O   UNL     1     107.627 125.638 146.668  0.00  0.00    +0.000 OA
ATOM      2  O   UNL     1     107.118 124.480 147.727  0.00  0.00    +0.000 OA
ATOM      3  C   UNL     1     105.216 125.121 146.872  0.00  0.00    +0.000 A 
ATOM      4  C   UNL     1     106.274 125.873 146.274  0.00  0.00    +0.000 A 
ATOM      5  C   UNL     1     105.470 125.701 146.343  0.00  0.00    +0.000 A 
ATOM      6  C   UNL     1     105.765 124.715 147.333  0.00  0.00    +0.000 A 
ATOM      7  C   UNL     1     106.824 125.465 146.736  0.00  0.00    +0.000 A 
ATOM      8  C   UNL     1     106.569 124.886 147.266  0.00  0.00    +0.000 A 
ENDROOT
BRANCH   3  13
ATOM      9  O   UNL     1     104.080 124.342 146.489  0.00  0.00    +0.000 OA
ATOM     10  O   UNL     1     104.269 125.992 147.906  0.00  0.00    +0.000 OA
ATOM     11  O   UNL     1     101.499 124.876 147.672  0.00  0.00    +0.000 OA
ATOM     12  O   UNL     1     101.778 122.743 145.697  0.00  0.00    +0.000 OA
ATOM     13  C   UNL     1     104.411 124.950 146.940  0.00  0.00    +0.000 C 
ATOM     14  C   UNL     1     103.938 125.385 147.456  0.00  0.00    +0.000 C 
ATOM     15  C   UNL     1     103.134 125.213 147.524  0.00  0.00    +0.000 C 
ATOM     16  C   UNL     1     102.803 124.605 147.073  0.00  0.00    +0.000 A 
ATOM     17  C   UNL     1     103.277 124.170 146.556  0.00  0.00    +0.000 A 
ATOM     18  C   UNL     1     101.965 124.436 147.152  0.00  0.00    +0.000 A 
ATOM     19  C   UNL     1     102.944 123.535 146.083  0.00  0.00    +0.000 A 
ATOM     20  C   UNL     1     101.614 123.805 146.686  0.00  0.00    +0.000 A 
ATOM     21  C   UNL     1     102.107 123.351 146.148  0.00  0.00    +0.000 A 
ENDBRANCH   3  13
BRANCH   4  22
ATOM     22  O   UNL     1     106.528 126.451 145.745  0.00  0.00    +0.000 OA
BRANCH  22  30
ATOM     23  O   UNL     1     106.308 125.757 144.516  0.00  0.00    +0.000 OA
ATOM     24  O   UNL     1     105.338 127.810 143.531  0.00  0.00    +0.000 OA
ATOM     25  O   UNL     1     105.882 127.820 145.089  0.00  0.00    +0.000 OA
ATOM     26  O   UNL     1     105.441 126.432 142.629  0.00  0.00    +0.000 OA
ATOM     27  C   UNL     1     105.661 127.126 143.859  0.00  0.00    +0.000 C 
ATOM     28  C   UNL     1     105.933 127.131 144.638  0.00  0.00    +0.000 C 
ATOM     29  C   UNL     1     105.713 126.438 143.409  0.00  0.00    +0.000 C 
ATOM     30  C   UNL     1     106.256 126.447 144.967  0.00  0.00    +0.000 C 
ATOM     31  C   UNL     1     106.036 125.753 143.737  0.00  0.00    +0.000 C 
BRANCH  31  34
ATOM     32  O   UNL     1     106.780 124.894 142.871  0.00  0.00    +0.000 OA
ATOM     33  O   UNL     1     105.449 124.545 143.251  0.00  0.00    +0.000 OA
ATOM     34  C   UNL     1     106.088 125.063 143.286  0.00  0.00    +0.000 C 
ENDBRANCH  31  34
ENDBRANCH  22  30
ENDBRANCH   4  22
TORSDOF 4
ENDMDL
MODEL 2
REMARK VINA RESULT:      -9.4      9.422     11.771
REMARK  Name = 76970196
REMARK  4 active torsions:
REMARK  status: ('A' for Active; 'I' for Inactive)
REMARK    1  A    between atoms: O_2  and  C_17
REMARK    2  A    between atoms: O_2  and  C_24
REMARK    3  A    between atoms: C_18  and  C_25
REMARK    4  A    between atoms: C_19  and  C_22
REMARK                            x       y       z     vdW  Elec       q    Type
REMARK                         _______ _______ _______ _____ _____    ______ ____
ROOT
ATOM      1  O   UNL     1     114.675 125.442 138.311  0.00  0.00    +0.000 OA
ATOM      2  O   UNL     1     114.800 125.183 136.686  0.00  0.00    +0.000 OA
ATOM      3  C   UNL     1     112.693 125.724 136.856  0.00  0.00    +0.000 A 
ATOM      4  C   UNL     1     113.291 125.760 138.154  0.00  0.00    +0.000 A 
ATOM      5  C   UNL     1     112.631 125.853 137.668  0.00  0.00    +0.000 A 
ATOM      6  C   UNL     1     113.416 125.500 136.529  0.00  0.00    +0.000 A 
ATOM      7  C   UNL     1     114.015 125.536 137.826  0.00  0.00    +0.000 A 
ATOM      8  C   UNL     1     114.077 125.406 137.013  0.00  0.00    +0.000 A 
ENDROOT
BRANCH   3  13
ATOM      9  O   UNL     1     111.812 126.572 136.115  0.00  0.00    +0.000 OA
ATOM     10  O   UNL     1     111.809 124.407 136.400  0.00  0.00    +0.000 OA
ATOM     11  O   UNL     1     109.583 125.430 134.676  0.00  0.00    +0.000 OA
ATOM     12  O   UNL     1     110.028 128.315 134.612  0.00  0.00    +0.000 OA
ATOM     13  C   UNL     1     112.032 125.818 136.372  0.00  0.00    +0.000 C 
ATOM     14  C   UNL     1     111.590 125.160 136.144  0.00  0.00    +0.000 C 
ATOM     15  C   UNL     1     110.928 125.254 135.659  0.00  0.00    +0.000 C 
ATOM     16  C   UNL     1     110.709 126.008 135.403  0.00  0.00    +0.000 A 
ATOM     17  C   UNL     1     111.151 126.666 135.632  0.00  0.00    +0.000 A 
ATOM     18  C   UNL     1     110.019 126.094 134.899  0.00  0.00    +0.000 A 
ATOM     19  C   UNL     1     110.933 127.455 135.372  0.00  0.00    +0.000 A 
ATOM     20  C   UNL     1     109.785 126.875 134.629  0.00  0.00    +0.000 A 
ATOM     21  C   UNL     1     110.245 127.561 134.867  0.00  0.00    +0.000 A 
ENDBRANCH   3  13
BRANCH   4  22
ATOM     22  O   UNL     1     113.229 125.889 138.965  0.00  0.00    +0.000 OA
BRANCH  22  30
ATOM     23  O   UNL     1     113.255 127.317 139.007  0.00  0.00    +0.000 OA
ATOM     24  O   UNL     1     111.340 127.307 140.574  0.00  0.00    +0.000 OA
ATOM     25  O   UNL     1     111.951 125.882 140.010  0.00  0.00    +0.000 OA
ATOM     26  O   UNL     1     112.005 128.739 140.093  0.00  0.00    +0.000 OA
ATOM     27  C   UNL     1     111.978 127.311 140.051  0.00  0.00    +0.000 C 
ATOM     28  C   UNL     1     112.284 126.598 139.770  0.00  0.00    +0.000 C 
ATOM     29  C   UNL     1     112.310 128.026 139.811  0.00  0.00    +0.000 C 
ATOM     30  C   UNL     1     112.922 126.601 139.247  0.00  0.00    +0.000 C 
ATOM     31  C   UNL     1     112.949 128.029 139.289  0.00  0.00    +0.000 C 
BRANCH  31  34
ATOM     32  O   UNL     1     113.768 129.167 139.564  0.00  0.00    +0.000 OA
ATOM     33  O   UNL     1     113.129 129.038 138.293  0.00  0.00    +0.000 OA
ATOM     34  C   UNL     1     113.282 128.745 139.048  0.00  0.00    +0.000 C 
ENDBRANCH  31  34
ENDBRANCH  22  30
ENDBRANCH   4  22
TORSDOF 4
ENDMDL
MODEL 3
REMARK VINA RESULT:      -9.3     10.851     12.596
REMARK  Name = 76970196
REMARK  4 active torsions:
REMARK  status: ('A' for Active; 'I' for Inactive)
REMARK    1  A    between atoms: O_2  and  C_17
REMARK    2  A    between atoms: O_2  and  C_24
REMARK    3  A    between atoms: C_18  and  C_25
REMARK    4  A    between atoms: C_19  and  C_22
REMARK                            x       y       z     vdW  Elec       q    Type
REMARK                         _______ _______ _______ _____ _____    ______ ____
ROOT
ATOM      1  O   UNL     1     107.769 130.346 135.857  0.00  0.00    +0.000 OA
ATOM      2  O   UNL     1     108.050 128.721 135.819  0.00  0.00    +0.000 OA
ATOM      3  C   UNL     1     110.087 129.487 135.976  0.00  0.00    +0.000 A 
ATOM      4  C   UNL     1     109.175 130.587 135.955  0.00  0.00    +0.000 A 
ATOM      5  C   UNL     1     109.947 130.300 135.995  0.00  0.00    +0.000 A 
ATOM      6  C   UNL     1     109.455 128.961 135.918  0.00  0.00    +0.000 A 
ATOM      7  C   UNL     1     108.542 130.059 135.897  0.00  0.00    +0.000 A 
ATOM      8  C   UNL     1     108.682 129.247 135.878  0.00  0.00    +0.000 A 
ENDROOT
BRANCH   3  13
ATOM      9  O   UNL     1     111.166 128.937 136.737  0.00  0.00    +0.000 OA
ATOM     10  O   UNL     1     111.023 129.445 134.618  0.00  0.00    +0.000 OA
ATOM     11  O   UNL     1     113.674 128.317 135.443  0.00  0.00    +0.000 OA
ATOM     12  O   UNL     1     113.351 127.817 138.302  0.00  0.00    +0.000 OA
ATOM     13  C   UNL     1     110.860 129.202 136.016  0.00  0.00    +0.000 C 
ATOM     14  C   UNL     1     111.328 129.180 135.338  0.00  0.00    +0.000 C 
ATOM     15  C   UNL     1     112.101 128.895 135.378  0.00  0.00    +0.000 C 
ATOM     16  C   UNL     1     112.407 128.630 136.098  0.00  0.00    +0.000 A 
ATOM     17  C   UNL     1     111.938 128.652 136.777  0.00  0.00    +0.000 A 
ATOM     18  C   UNL     1     113.213 128.335 136.127  0.00  0.00    +0.000 A 
ATOM     19  C   UNL     1     112.244 128.379 137.532  0.00  0.00    +0.000 A 
ATOM     20  C   UNL     1     113.536 128.058 136.874  0.00  0.00    +0.000 A 
ATOM     21  C   UNL     1     113.049 128.080 137.581  0.00  0.00    +0.000 A 
ENDBRANCH   3  13
BRANCH   4  22
ATOM     22  O   UNL     1     109.034 131.398 135.974  0.00  0.00    +0.000 OA
BRANCH  22  30
ATOM     23  O   UNL     1     109.369 131.617 137.346  0.00  0.00    +0.000 OA
ATOM     24  O   UNL     1     110.460 133.754 136.739  0.00  0.00    +0.000 OA
ATOM     25  O   UNL     1     109.762 132.823 135.569  0.00  0.00    +0.000 OA
ATOM     26  O   UNL     1     110.431 133.261 138.313  0.00  0.00    +0.000 OA
ATOM     27  C   UNL     1     110.097 133.042 136.941  0.00  0.00    +0.000 C 
ATOM     28  C   UNL     1     109.747 132.577 136.356  0.00  0.00    +0.000 C 
ATOM     29  C   UNL     1     110.082 132.796 137.728  0.00  0.00    +0.000 C 
ATOM     30  C   UNL     1     109.384 131.864 136.558  0.00  0.00    +0.000 C 
ATOM     31  C   UNL     1     109.718 132.083 137.930  0.00  0.00    +0.000 C 
BRANCH  31  34
ATOM     32  O   UNL     1     108.995 131.846 139.139  0.00  0.00    +0.000 OA
ATOM     33  O   UNL     1     110.397 131.580 139.083  0.00  0.00    +0.000 OA
ATOM     34  C   UNL     1     109.704 131.836 138.718  0.00  0.00    +0.000 C 
ENDBRANCH  31  34
ENDBRANCH  22  30
ENDBRANCH   4  22
TORSDOF 4
ENDMDL
MODEL 4
REMARK VINA RESULT:      -9.3      0.762      2.056
REMARK  Name = 76970196
REMARK  4 active torsions:
REMARK  status: ('A' for Active; 'I' for Inactive)
REMARK    1  A    between atoms: O_2  and  C_17
REMARK    2  A    between atoms: O_2  and  C_24
REMARK    3  A    between atoms: C_18  and  C_25
REMARK    4  A    between atoms: C_19  and  C_22
REMARK                            x       y       z     vdW  Elec       q    Type
REMARK                         _______ _______ _______ _____ _____    ______ ____
ROOT
ATOM      1  O   UNL     1     107.677 125.424 146.670  0.00  0.00    +0.000 OA
ATOM      2  O   UNL     1     107.082 124.780 148.067  0.00  0.00    +0.000 OA
ATOM      3  C   UNL     1     105.295 124.771 146.816  0.00  0.00    +0.000 A 
ATOM      4  C   UNL     1     106.386 125.311 146.068  0.00  0.00    +0.000 A 
ATOM      5  C   UNL     1     105.592 125.093 146.117  0.00  0.00    +0.000 A 
ATOM      6  C   UNL     1     105.791 124.667 147.465  0.00  0.00    +0.000 A 
ATOM      7  C   UNL     1     106.883 125.206 146.719  0.00  0.00    +0.000 A 
ATOM      8  C   UNL     1     106.586 124.884 147.418  0.00  0.00    +0.000 A 
ENDROOT
BRANCH   3  13
ATOM      9  O   UNL     1     103.969 125.023 147.289  0.00  0.00    +0.000 OA
ATOM     10  O   UNL     1     104.766 123.402 146.062  0.00  0.00    +0.000 OA
ATOM     11  O   UNL     1     101.830 123.199 146.623  0.00  0.00    +0.000 OA
ATOM     12  O   UNL     1     101.276 125.551 148.263  0.00  0.00    +0.000 OA
ATOM     13  C   UNL     1     104.500 124.554 146.864  0.00  0.00    +0.000 C 
ATOM     14  C   UNL     1     104.235 123.870 146.487  0.00  0.00    +0.000 C 
ATOM     15  C   UNL     1     103.441 123.653 146.535  0.00  0.00    +0.000 C 
ATOM     16  C   UNL     1     102.910 124.121 146.960  0.00  0.00    +0.000 A 
ATOM     17  C   UNL     1     103.175 124.806 147.337  0.00  0.00    +0.000 A 
ATOM     18  C   UNL     1     102.086 123.886 147.003  0.00  0.00    +0.000 A 
ATOM     19  C   UNL     1     102.633 125.302 147.783  0.00  0.00    +0.000 A 
ATOM     20  C   UNL     1     101.528 124.368 147.444  0.00  0.00    +0.000 A 
ATOM     21  C   UNL     1     101.804 125.082 147.837  0.00  0.00    +0.000 A 
ENDBRANCH   3  13
BRANCH   4  22
ATOM     22  O   UNL     1     106.684 125.633 145.370  0.00  0.00    +0.000 OA
BRANCH  22  30
ATOM     23  O   UNL     1     106.156 126.957 145.466  0.00  0.00    +0.000 OA
ATOM     24  O   UNL     1     105.489 126.865 143.085  0.00  0.00    +0.000 OA
ATOM     25  O   UNL     1     106.239 125.571 143.782  0.00  0.00    +0.000 OA
ATOM     26  O   UNL     1     105.184 128.220 143.975  0.00  0.00    +0.000 OA
ATOM     27  C   UNL     1     105.711 126.896 143.879  0.00  0.00    +0.000 C 
ATOM     28  C   UNL     1     106.086 126.248 144.227  0.00  0.00    +0.000 C 
ATOM     29  C   UNL     1     105.559 127.573 144.323  0.00  0.00    +0.000 C 
ATOM     30  C   UNL     1     106.309 126.279 145.021  0.00  0.00    +0.000 C 
ATOM     31  C   UNL     1     105.782 127.604 145.117  0.00  0.00    +0.000 C 
BRANCH  31  34
ATOM     32  O   UNL     1     104.903 128.370 145.943  0.00  0.00    +0.000 OA
ATOM     33  O   UNL     1     106.203 128.870 145.627  0.00  0.00    +0.000 OA
ATOM     34  C   UNL     1     105.629 128.282 145.562  0.00  0.00    +0.000 C 
ENDBRANCH  31  34
ENDBRANCH  22  30
ENDBRANCH   4  22
TORSDOF 4
ENDMDL
MODEL 5
REMARK VINA RESULT:      -9.3      9.934     12.612
REMARK  Name = 76970196
REMARK  4 active torsions:
REMARK  status: ('A' for Active; 'I' for Inactive)
REMARK    1  A    between atoms: O_2  and  C_17
REMARK    2  A    between atoms: O_2  and  C_24
REMARK    3  A    between atoms: C_18  and  C_25
REMARK    4  A    between atoms: C_19  and  C_22
REMARK                            x       y       z     vdW  Elec       q    Type
REMARK                         _______ _______ _______ _____ _____    ______ ____
ROOT
ATOM      1  O   UNL     1     108.027 128.912 135.873  0.00  0.00    +0.000 OA
ATOM      2  O   UNL     1     108.581 130.281 135.137  0.00  0.00    +0.000 OA
ATOM      3  C   UNL     1     110.382 129.613 136.172  0.00  0.00    +0.000 A 
ATOM      4  C   UNL     1     109.320 128.695 136.441  0.00  0.00    +0.000 A 
ATOM      5  C   UNL     1     110.105 128.929 136.540  0.00  0.00    +0.000 A 
ATOM      6  C   UNL     1     109.874 130.064 135.704  0.00  0.00    +0.000 A 
ATOM      7  C   UNL     1     108.812 129.146 135.972  0.00  0.00    +0.000 A 
ATOM      8  C   UNL     1     109.089 129.831 135.604  0.00  0.00    +0.000 A 
ENDROOT
BRANCH   3  13
ATOM      9  O   UNL     1     111.756 129.533 135.784  0.00  0.00    +0.000 OA
ATOM     10  O   UNL     1     110.777 130.703 137.346  0.00  0.00    +0.000 OA
ATOM     11  O   UNL     1     113.741 131.106 137.174  0.00  0.00    +0.000 OA
ATOM     12  O   UNL     1     114.549 129.357 134.979  0.00  0.00    +0.000 OA
ATOM     13  C   UNL     1     111.167 129.846 136.272  0.00  0.00    +0.000 C 
ATOM     14  C   UNL     1     111.365 130.391 136.858  0.00  0.00    +0.000 C 
ATOM     15  C   UNL     1     112.150 130.624 136.959  0.00  0.00    +0.000 C 
ATOM     16  C   UNL     1     112.738 130.311 136.471  0.00  0.00    +0.000 A 
ATOM     17  C   UNL     1     112.540 129.766 135.884  0.00  0.00    +0.000 A 
ATOM     18  C   UNL     1     113.552 130.561 136.584  0.00  0.00    +0.000 A 
ATOM     19  C   UNL     1     113.143 129.433 135.370  0.00  0.00    +0.000 A 
ATOM     20  C   UNL     1     114.169 130.239 136.080  0.00  0.00    +0.000 A 
ATOM     21  C   UNL     1     113.963 129.671 135.468  0.00  0.00    +0.000 A 
ENDBRANCH   3  13
BRANCH   4  22
ATOM     22  O   UNL     1     109.044 128.011 136.808  0.00  0.00    +0.000 OA
BRANCH  22  30
ATOM     23  O   UNL     1     109.578 127.016 135.933  0.00  0.00    +0.000 OA
ATOM     24  O   UNL     1     110.336 125.702 137.889  0.00  0.00    +0.000 OA
ATOM     25  O   UNL     1     109.549 127.135 138.112  0.00  0.00    +0.000 OA
ATOM     26  O   UNL     1     110.618 125.145 136.362  0.00  0.00    +0.000 OA
ATOM     27  C   UNL     1     110.083 126.140 137.237  0.00  0.00    +0.000 C 
ATOM     28  C   UNL     1     109.690 126.857 137.350  0.00  0.00    +0.000 C 
ATOM     29  C   UNL     1     110.224 125.862 136.474  0.00  0.00    +0.000 C 
ATOM     30  C   UNL     1     109.437 127.295 136.698  0.00  0.00    +0.000 C 
ATOM     31  C   UNL     1     109.972 126.300 135.822  0.00  0.00    +0.000 C 
BRANCH  31  34
ATOM     32  O   UNL     1     109.522 125.612 134.653  0.00  0.00    +0.000 OA
ATOM     33  O   UNL     1     110.843 126.151 134.700  0.00  0.00    +0.000 OA
ATOM     34  C   UNL     1     110.113 126.021 135.058  0.00  0.00    +0.000 C 
ENDBRANCH  31  34
ENDBRANCH  22  30
ENDBRANCH   4  22
TORSDOF 4
ENDMDL
MODEL 6
REMARK VINA RESULT:      -9.2     11.536     13.004
REMARK  Name = 76970196
REMARK  4 active torsions:
REMARK  status: ('A' for Active; 'I' for Inactive)
REMARK    1  A    between atoms: O_2  and  C_17
REMARK    2  A    between atoms: O_2  and  C_24
REMARK    3  A    between atoms: C_18  and  C_25
REMARK    4  A    between atoms: C_19  and  C_22
REMARK                            x       y       z     vdW  Elec       q    Type
REMARK                         _______ _______ _______ _____ _____    ______ ____
ROOT
ATOM      1  O   UNL     1     114.527 130.799 135.892  0.00  0.00    +0.000 OA
ATOM      2  O   UNL     1     114.519 129.758 134.612  0.00  0.00    +0.000 OA
ATOM      3  C   UNL     1     113.690 128.488 136.182  0.00  0.00    +0.000 A 
ATOM      4  C   UNL     1     113.973 129.779 136.726  0.00  0.00    +0.000 A 
ATOM      5  C   UNL     1     113.695 129.009 136.822  0.00  0.00    +0.000 A 
ATOM      6  C   UNL     1     113.965 128.738 135.446  0.00  0.00    +0.000 A 
ATOM      7  C   UNL     1     114.248 130.029 135.988  0.00  0.00    +0.000 A 
ATOM      8  C   UNL     1     114.244 129.508 135.349  0.00  0.00    +0.000 A 
ENDROOT
BRANCH   3  13
ATOM      9  O   UNL     1     113.912 127.132 136.578  0.00  0.00    +0.000 OA
ATOM     10  O   UNL     1     112.133 128.117 135.783  0.00  0.00    +0.000 OA
ATOM     11  O   UNL     1     111.772 125.202 136.371  0.00  0.00    +0.000 OA
ATOM     12  O   UNL     1     114.382 124.375 137.388  0.00  0.00    +0.000 OA
ATOM     13  C   UNL     1     113.411 127.718 136.280  0.00  0.00    +0.000 C 
ATOM     14  C   UNL     1     112.633 127.532 136.080  0.00  0.00    +0.000 C 
ATOM     15  C   UNL     1     112.354 126.762 136.178  0.00  0.00    +0.000 C 
ATOM     16  C   UNL     1     112.854 126.177 136.476  0.00  0.00    +0.000 A 
ATOM     17  C   UNL     1     113.633 126.363 136.675  0.00  0.00    +0.000 A 
ATOM     18  C   UNL     1     112.553 125.378 136.573  0.00  0.00    +0.000 A 
ATOM     19  C   UNL     1     114.163 125.762 136.986  0.00  0.00    +0.000 A 
ATOM     20  C   UNL     1     113.068 124.765 136.882  0.00  0.00    +0.000 A 
ATOM     21  C   UNL     1     113.879 124.958 137.090  0.00  0.00    +0.000 A 
ENDBRANCH   3  13
BRANCH   4  22
ATOM     22  O   UNL     1     113.978 130.299 137.365  0.00  0.00    +0.000 OA
BRANCH  22  30
ATOM     23  O   UNL     1     112.655 130.832 137.280  0.00  0.00    +0.000 OA
ATOM     24  O   UNL     1     112.369 130.510 139.717  0.00  0.00    +0.000 OA
ATOM     25  O   UNL     1     113.787 130.085 138.990  0.00  0.00    +0.000 OA
ATOM     26  O   UNL     1     111.141 131.151 138.820  0.00  0.00    +0.000 OA
ATOM     27  C   UNL     1     112.464 130.618 138.905  0.00  0.00    +0.000 C 
ATOM     28  C   UNL     1     113.174 130.405 138.542  0.00  0.00    +0.000 C 
ATOM     29  C   UNL     1     111.851 130.938 138.457  0.00  0.00    +0.000 C 
ATOM     30  C   UNL     1     113.269 130.512 137.729  0.00  0.00    +0.000 C 
ATOM     31  C   UNL     1     111.946 131.045 137.645  0.00  0.00    +0.000 C 
BRANCH  31  34
ATOM     32  O   UNL     1     110.739 130.874 136.899  0.00  0.00    +0.000 OA
ATOM     33  O   UNL     1     111.311 132.175 137.044  0.00  0.00    +0.000 OA
ATOM     34  C   UNL     1     111.332 131.365 137.195  0.00  0.00    +0.000 C 
ENDBRANCH  31  34
ENDBRANCH  22  30
ENDBRANCH   4  22
TORSDOF 4
ENDMDL
MODEL 7
REMARK VINA RESULT:      -9.2      8.973     12.250
REMARK  Name = 76970196
REMARK  4 active torsions:
REMARK  status: ('A' for Active; 'I' for Inactive)
REMARK    1  A    between atoms: O_2  and  C_17
REMARK    2  A    between atoms: O_2  and  C_24
REMARK    3  A    between atoms: C_18  and  C_25
REMARK    4  A    between atoms: C_19  and  C_22
REMARK                            x       y       z     vdW  Elec       q    Type
REMARK                         _______ _______ _______ _____ _____    ______ ____
ROOT
ATOM      1  O   UNL     1     112.752 124.767 136.483  0.00  0.00    +0.000 OA
ATOM      2  O   UNL     1     114.284 125.342 136.691  0.00  0.00    +0.000 OA
ATOM      3  C   UNL     1     113.137 127.198 136.741  0.00  0.00    +0.000 A 
ATOM      4  C   UNL     1     112.242 126.100 136.551  0.00  0.00    +0.000 A 
ATOM      5  C   UNL     1     112.371 126.910 136.637  0.00  0.00    +0.000 A 
ATOM      6  C   UNL     1     113.774 126.675 136.760  0.00  0.00    +0.000 A 
ATOM      7  C   UNL     1     112.881 125.577 136.569  0.00  0.00    +0.000 A 
ATOM      8  C   UNL     1     113.647 125.864 136.673  0.00  0.00    +0.000 A 
ENDROOT
BRANCH   3  13
ATOM      9  O   UNL     1     113.228 128.354 137.577  0.00  0.00    +0.000 OA
ATOM     10  O   UNL     1     113.466 128.127 135.419  0.00  0.00    +0.000 OA
ATOM     11  O   UNL     1     113.818 130.931 136.412  0.00  0.00    +0.000 OA
ATOM     12  O   UNL     1     113.408 130.699 139.294  0.00  0.00    +0.000 OA
ATOM     13  C   UNL     1     113.265 128.008 136.828  0.00  0.00    +0.000 C 
ATOM     14  C   UNL     1     113.429 128.473 136.167  0.00  0.00    +0.000 C 
ATOM     15  C   UNL     1     113.557 129.284 136.253  0.00  0.00    +0.000 C 
ATOM     16  C   UNL     1     113.520 129.630 137.002  0.00  0.00    +0.000 A 
ATOM     17  C   UNL     1     113.355 129.164 137.663  0.00  0.00    +0.000 A 
ATOM     18  C   UNL     1     113.654 130.474 137.079  0.00  0.00    +0.000 A 
ATOM     19  C   UNL     1     113.314 129.512 138.447  0.00  0.00    +0.000 A 
ATOM     20  C   UNL     1     113.617 130.840 137.856  0.00  0.00    +0.000 A 
ATOM     21  C   UNL     1     113.445 130.356 138.545  0.00  0.00    +0.000 A 
ENDBRANCH   3  13
BRANCH   4  22
ATOM     22  O   UNL     1     111.477 125.813 136.447  0.00  0.00    +0.000 OA
BRANCH  22  30
ATOM     23  O   UNL     1     111.020 125.890 137.799  0.00  0.00    +0.000 OA
ATOM     24  O   UNL     1     108.852 126.791 137.015  0.00  0.00    +0.000 OA
ATOM     25  O   UNL     1     110.031 126.413 135.924  0.00  0.00    +0.000 OA
ATOM     26  O   UNL     1     109.119 126.569 138.628  0.00  0.00    +0.000 OA
ATOM     27  C   UNL     1     109.575 126.491 137.276  0.00  0.00    +0.000 C 
ATOM     28  C   UNL     1     110.164 126.302 136.730  0.00  0.00    +0.000 C 
ATOM     29  C   UNL     1     109.708 126.380 138.082  0.00  0.00    +0.000 C 
ATOM     30  C   UNL     1     110.887 126.002 136.992  0.00  0.00    +0.000 C 
ATOM     31  C   UNL     1     110.431 126.080 138.343  0.00  0.00    +0.000 C 
BRANCH  31  34
ATOM     32  O   UNL     1     110.829 126.597 139.615  0.00  0.00    +0.000 OA
ATOM     33  O   UNL     1     110.432 125.230 139.492  0.00  0.00    +0.000 OA
ATOM     34  C   UNL     1     110.564 125.968 139.151  0.00  0.00    +0.000 C 
ENDBRANCH  31  34
ENDBRANCH  22  30
ENDBRANCH   4  22
TORSDOF 4
ENDMDL
MODEL 8
REMARK VINA RESULT:      -9.2      9.138     11.309
REMARK  Name = 76970196
REMARK  4 active torsions:
REMARK  status: ('A' for Active; 'I' for Inactive)
REMARK    1  A    between atoms: O_2  and  C_17
REMARK    2  A    between atoms: O_2  and  C_24
REMARK    3  A    between atoms: C_18  and  C_25
REMARK    4  A    between atoms: C_19  and  C_22
REMARK                            x       y       z     vdW  Elec       q    Type
REMARK                         _______ _______ _______ _____ _____    ______ ____
ROOT
ATOM      1  O   UNL     1     111.260 124.936 135.614  0.00  0.00    +0.000 OA
ATOM      2  O   UNL     1     111.582 123.902 136.859  0.00  0.00    +0.000 OA
ATOM      3  C   UNL     1     112.292 125.788 137.696  0.00  0.00    +0.000 A 
ATOM      4  C   UNL     1     111.788 126.021 136.380  0.00  0.00    +0.000 A 
ATOM      5  C   UNL     1     112.131 126.305 137.074  0.00  0.00    +0.000 A 
ATOM      6  C   UNL     1     112.109 124.987 137.625  0.00  0.00    +0.000 A 
ATOM      7  C   UNL     1     111.604 125.219 136.308  0.00  0.00    +0.000 A 
ATOM      8  C   UNL     1     111.765 124.702 136.931  0.00  0.00    +0.000 A 
ENDROOT
BRANCH   3  13
ATOM      9  O   UNL     1     112.158 126.310 139.020  0.00  0.00    +0.000 OA
ATOM     10  O   UNL     1     113.935 125.883 137.825  0.00  0.00    +0.000 OA
ATOM     11  O   UNL     1     114.514 126.982 140.551  0.00  0.00    +0.000 OA
ATOM     12  O   UNL     1     111.865 127.373 141.716  0.00  0.00    +0.000 OA
ATOM     13  C   UNL     1     112.636 126.073 138.390  0.00  0.00    +0.000 C 
ATOM     14  C   UNL     1     113.457 126.120 138.455  0.00  0.00    +0.000 C 
ATOM     15  C   UNL     1     113.801 126.405 139.149  0.00  0.00    +0.000 C 
ATOM     16  C   UNL     1     113.323 126.643 139.779  0.00  0.00    +0.000 A 
ATOM     17  C   UNL     1     112.501 126.595 139.714  0.00  0.00    +0.000 A 
ATOM     18  C   UNL     1     113.692 126.937 140.496  0.00  0.00    +0.000 A 
ATOM     19  C   UNL     1     111.994 126.839 140.362  0.00  0.00    +0.000 A 
ATOM     20  C   UNL     1     113.200 127.186 141.155  0.00  0.00    +0.000 A 
ATOM     21  C   UNL     1     112.345 127.137 141.088  0.00  0.00    +0.000 A 
ENDBRANCH   3  13
BRANCH   4  22
ATOM     22  O   UNL     1     111.627 126.538 135.758  0.00  0.00    +0.000 OA
BRANCH  22  30
ATOM     23  O   UNL     1     110.449 127.163 136.270  0.00  0.00    +0.000 OA
ATOM     24  O   UNL     1     111.299 129.368 135.535  0.00  0.00    +0.000 OA
ATOM     25  O   UNL     1     112.194 128.008 135.268  0.00  0.00    +0.000 OA
ATOM     26  O   UNL     1     109.837 129.258 136.293  0.00  0.00    +0.000 OA
ATOM     27  C   UNL     1     111.016 128.633 135.780  0.00  0.00    +0.000 C 
ATOM     28  C   UNL     1     111.464 127.953 135.646  0.00  0.00    +0.000 C 
ATOM     29  C   UNL     1     110.285 128.578 136.159  0.00  0.00    +0.000 C 
ATOM     30  C   UNL     1     111.180 127.218 135.891  0.00  0.00    +0.000 C 
ATOM     31  C   UNL     1     110.002 127.843 136.404  0.00  0.00    +0.000 C 
BRANCH  31  34
ATOM     32  O   UNL     1     108.591 127.621 136.345  0.00  0.00    +0.000 OA
ATOM     33  O   UNL     1     109.219 127.900 137.597  0.00  0.00    +0.000 OA
ATOM     34  C   UNL     1     109.270 127.788 136.783  0.00  0.00    +0.000 C 
ENDBRANCH  31  34
ENDBRANCH  22  30
ENDBRANCH   4  22
TORSDOF 4
ENDMDL
MODEL 9
REMARK VINA RESULT:      -9.2      9.939     12.090
REMARK  Name = 76970196
REMARK  4 active torsions:
REMARK  status: ('A' for Active; 'I' for Inactive)
REMARK    1  A    between atoms: O_2  and  C_17
REMARK    2  A    between atoms: O_2  and  C_24
REMARK    3  A    between atoms: C_18  and  C_25
REMARK    4  A    between atoms: C_19  and  C_22
REMARK                            x       y       z     vdW  Elec       q    Type
REMARK                         _______ _______ _______ _____ _____    ______ ____
ROOT
ATOM      1  O   UNL     1     108.849 126.902 135.565  0.00  0.00    +0.000 OA
ATOM      2  O   UNL     1     109.531 125.740 134.612  0.00  0.00    +0.000 OA
ATOM      3  C   UNL     1     110.998 125.866 136.223  0.00  0.00    +0.000 A 
ATOM      4  C   UNL     1     109.941 126.793 136.480  0.00  0.00    +0.000 A 
ATOM      5  C   UNL     1     110.657 126.447 136.699  0.00  0.00    +0.000 A 
ATOM      6  C   UNL     1     110.623 125.630 135.527  0.00  0.00    +0.000 A 
ATOM      7  C   UNL     1     109.565 126.557 135.784  0.00  0.00    +0.000 A 
ATOM      8  C   UNL     1     109.906 125.976 135.307  0.00  0.00    +0.000 A 
ENDROOT
BRANCH   3  13
ATOM      9  O   UNL     1     112.427 125.849 136.183  0.00  0.00    +0.000 OA
ATOM     10  O   UNL     1     111.009 124.522 137.180  0.00  0.00    +0.000 OA
ATOM     11  O   UNL     1     113.884 123.792 137.596  0.00  0.00    +0.000 OA
ATOM     12  O   UNL     1     115.338 125.830 136.092  0.00  0.00    +0.000 OA
ATOM     13  C   UNL     1     111.715 125.521 136.443  0.00  0.00    +0.000 C 
ATOM     14  C   UNL     1     111.720 124.849 136.921  0.00  0.00    +0.000 C 
ATOM     15  C   UNL     1     112.437 124.504 137.141  0.00  0.00    +0.000 C 
ATOM     16  C   UNL     1     113.149 124.832 136.882  0.00  0.00    +0.000 A 
ATOM     17  C   UNL     1     113.143 125.504 136.403  0.00  0.00    +0.000 A 
ATOM     18  C   UNL     1     113.888 124.464 137.117  0.00  0.00    +0.000 A 
ATOM     19  C   UNL     1     113.878 125.854 136.127  0.00  0.00    +0.000 A 
ATOM     20  C   UNL     1     114.633 124.800 136.851  0.00  0.00    +0.000 A 
ATOM     21  C   UNL     1     114.628 125.500 136.352  0.00  0.00    +0.000 A 
ENDBRANCH   3  13
BRANCH   4  22
ATOM     22  O   UNL     1     109.601 127.373 136.956  0.00  0.00    +0.000 OA
BRANCH  22  30
ATOM     23  O   UNL     1     110.409 128.481 136.553  0.00  0.00    +0.000 OA
ATOM     24  O   UNL     1     110.544 129.238 138.905  0.00  0.00    +0.000 OA
ATOM     25  O   UNL     1     109.691 127.878 138.524  0.00  0.00    +0.000 OA
ATOM     26  O   UNL     1     111.307 130.093 137.718  0.00  0.00    +0.000 OA
ATOM     27  C   UNL     1     110.499 128.985 138.121  0.00  0.00    +0.000 C 
ATOM     28  C   UNL     1     110.072 128.305 137.931  0.00  0.00    +0.000 C 
ATOM     29  C   UNL     1     110.880 129.413 137.528  0.00  0.00    +0.000 C 
ATOM     30  C   UNL     1     110.027 128.053 137.147  0.00  0.00    +0.000 C 
ATOM     31  C   UNL     1     110.835 129.160 136.744  0.00  0.00    +0.000 C 
BRANCH  31  34
ATOM     32  O   UNL     1     112.015 129.454 135.994  0.00  0.00    +0.000 OA
ATOM     33  O   UNL     1     110.800 130.149 135.713  0.00  0.00    +0.000 OA
ATOM     34  C   UNL     1     111.217 129.588 136.150  0.00  0.00    +0.000 C 
ENDBRANCH  31  34
ENDBRANCH  22  30
ENDBRANCH   4  22
TORSDOF 4
ENDMDL
MODEL 10
REMARK VINA RESULT:      -9.2     11.371     12.705
REMARK  Name = 76970196
REMARK  4 active torsions:
REMARK  status: ('A' for Active; 'I' for Inactive)
REMARK    1  A    between atoms: O_2  and  C_17
REMARK    2  A    between atoms: O_2  and  C_24
REMARK    3  A    between atoms: C_18  and  C_25
REMARK    4  A    between atoms: C_19  and  C_22
REMARK                            x       y       z     vdW  Elec       q    Type
REMARK                         _______ _______ _______ _____ _____    ______ ____
ROOT
ATOM      1  O   UNL     1     114.306 130.451 135.682  0.00  0.00    +0.000 OA
ATOM      2  O   UNL     1     114.898 129.051 135.041  0.00  0.00    +0.000 OA
ATOM      3  C   UNL     1     113.019 128.349 135.899  0.00  0.00    +0.000 A 
ATOM      4  C   UNL     1     113.152 129.750 136.148  0.00  0.00    +0.000 A 
ATOM      5  C   UNL     1     112.723 129.049 136.220  0.00  0.00    +0.000 A 
ATOM      6  C   UNL     1     113.744 128.350 135.506  0.00  0.00    +0.000 A 
ATOM      7  C   UNL     1     113.877 129.750 135.754  0.00  0.00    +0.000 A 
ATOM      8  C   UNL     1     114.173 129.050 135.434  0.00  0.00    +0.000 A 
ENDROOT
BRANCH   3  13
ATOM      9  O   UNL     1     111.940 127.509 135.480  0.00  0.00    +0.000 OA
ATOM     10  O   UNL     1     113.454 127.226 137.027  0.00  0.00    +0.000 OA
ATOM     11  O   UNL     1     111.513 124.959 136.768  0.00  0.00    +0.000 OA
ATOM     12  O   UNL     1     109.738 125.813 134.612  0.00  0.00    +0.000 OA
ATOM     13  C   UNL     1     112.589 127.648 135.972  0.00  0.00    +0.000 C 
ATOM     14  C   UNL     1     112.806 127.087 136.536  0.00  0.00    +0.000 C 
ATOM     15  C   UNL     1     112.376 126.387 136.609  0.00  0.00    +0.000 C 
ATOM     16  C   UNL     1     111.728 126.248 136.116  0.00  0.00    +0.000 A 
ATOM     17  C   UNL     1     111.511 126.810 135.553  0.00  0.00    +0.000 A 
ATOM     18  C   UNL     1     111.288 125.515 136.201  0.00  0.00    +0.000 A 
ATOM     19  C   UNL     1     110.838 126.677 135.035  0.00  0.00    +0.000 A 
ATOM     20  C   UNL     1     110.612 125.364 135.693  0.00  0.00    +0.000 A 
ATOM     21  C   UNL     1     110.385 125.949 135.105  0.00  0.00    +0.000 A 
ENDBRANCH   3  13
BRANCH   4  22
ATOM     22  O   UNL     1     112.856 130.449 136.469  0.00  0.00    +0.000 OA
BRANCH  22  30
ATOM     23  O   UNL     1     113.314 130.325 137.817  0.00  0.00    +0.000 OA
ATOM     24  O   UNL     1     111.085 131.024 138.637  0.00  0.00    +0.000 OA
ATOM     25  O   UNL     1     111.371 130.915 137.015  0.00  0.00    +0.000 OA
ATOM     26  O   UNL     1     112.285 130.667 139.712  0.00  0.00    +0.000 OA
ATOM     27  C   UNL     1     111.828 130.791 138.363  0.00  0.00    +0.000 C 
ATOM     28  C   UNL     1     111.970 130.737 137.552  0.00  0.00    +0.000 C 
ATOM     29  C   UNL     1     112.427 130.613 138.901  0.00  0.00    +0.000 C 
ATOM     30  C   UNL     1     112.713 130.504 137.279  0.00  0.00    +0.000 C 
ATOM     31  C   UNL     1     113.170 130.380 138.627  0.00  0.00    +0.000 C 
BRANCH  31  34
ATOM     32  O   UNL     1     113.832 129.440 139.476  0.00  0.00    +0.000 OA
ATOM     33  O   UNL     1     114.309 130.784 139.390  0.00  0.00    +0.000 OA
ATOM     34  C   UNL     1     113.771 130.202 139.165  0.00  0.00    +0.000 C 
ENDBRANCH  31  34
ENDBRANCH  22  30
ENDBRANCH   4  22
TORSDOF 4
ENDMDL
