MODEL 1
REMARK VINA RESULT:      -7.4      0.000      0.000
REMARK  Name = 44257595
REMARK  4 active torsions:
REMARK  status: ('A' for Active; 'I' for Inactive)
REMARK    1  A    between atoms: O_2  and  C_14
REMARK    2  A    between atoms: O_3  and  C_15
REMARK    3  A    between atoms: O_4  and  C_17
REMARK    4  A    between atoms: C_8  and  C_9
REMARK                            x       y       z     vdW  Elec       q    Type
REMARK                         _______ _______ _______ _____ _____    ______ ____
ROOT
ATOM      1  O   UNL     1     113.249 126.803 136.343  0.00  0.00    +0.000 OA
ATOM      2  O   UNL     1     113.035 129.114 138.065  0.00  0.00    +0.000 OA
ATOM      3  O   UNL     1     112.606 127.811 138.510  0.00  0.00    +0.000 OA
ATOM      4  C   UNL     1     113.144 127.946 137.193  0.00  0.00    +0.000 A 
ATOM      5  C   UNL     1     112.926 126.331 136.938  0.00  0.00    +0.000 A 
ATOM      6  C   UNL     1     113.358 127.610 136.471  0.00  0.00    +0.000 A 
ATOM      7  C   UNL     1     112.820 127.475 137.788  0.00  0.00    +0.000 A 
ATOM      8  C   UNL     1     112.711 126.667 137.660  0.00  0.00    +0.000 A 
ATOM      9  C   UNL     1     113.252 128.787 137.339  0.00  0.00    +0.000 A 
ATOM     10  C   UNL     1     113.696 128.091 135.844  0.00  0.00    +0.000 A 
ATOM     11  C   UNL     1     113.589 129.283 136.724  0.00  0.00    +0.000 A 
ATOM     12  C   UNL     1     113.812 128.933 135.971  0.00  0.00    +0.000 A 
ENDROOT
BRANCH   5  13
ATOM     13  C   UNL     1     112.817 125.524 136.810  0.00  0.00    +0.000 A 
ATOM     14  C   UNL     1     113.420 124.992 136.994  0.00  0.00    +0.000 A 
ATOM     15  C   UNL     1     112.104 125.247 136.499  0.00  0.00    +0.000 A 
ATOM     16  C   UNL     1     113.311 124.183 136.867  0.00  0.00    +0.000 A 
ATOM     17  C   UNL     1     111.995 124.440 136.371  0.00  0.00    +0.000 A 
ATOM     18  C   UNL     1     112.599 123.908 136.555  0.00  0.00    +0.000 A 
BRANCH  14  19
ATOM     19  O   UNL     1     114.132 125.267 137.306  0.00  0.00    +0.000 OA
ATOM     20  C   UNL     1     114.749 124.741 137.454  0.00  0.00    +0.000 C 
ENDBRANCH  14  19
BRANCH  15  21
ATOM     21  O   UNL     1     111.501 125.779 136.315  0.00  0.00    +0.000 OA
ATOM     22  C   UNL     1     110.795 125.505 135.986  0.00  0.00    +0.000 C 
ENDBRANCH  15  21
ENDBRANCH   5  13
BRANCH  11  23
ATOM     23  O   UNL     1     113.697 130.091 136.854  0.00  0.00    +0.000 OA
ATOM     24  C   UNL     1     114.104 130.547 136.301  0.00  0.00    +0.000 C 
ENDBRANCH  11  23
TORSDOF 4
ENDMDL
MODEL 2
REMARK VINA RESULT:      -7.3      0.012      1.597
REMARK  Name = 44257595
REMARK  4 active torsions:
REMARK  status: ('A' for Active; 'I' for Inactive)
REMARK    1  A    between atoms: O_2  and  C_14
REMARK    2  A    between atoms: O_3  and  C_15
REMARK    3  A    between atoms: O_4  and  C_17
REMARK    4  A    between atoms: C_8  and  C_9
REMARK                            x       y       z     vdW  Elec       q    Type
REMARK                         _______ _______ _______ _____ _____    ______ ____
ROOT
ATOM      1  O   UNL     1     113.257 126.812 136.347  0.00  0.00    +0.000 OA
ATOM      2  O   UNL     1     113.030 129.123 138.067  0.00  0.00    +0.000 OA
ATOM      3  O   UNL     1     112.600 127.819 138.510  0.00  0.00    +0.000 OA
ATOM      4  C   UNL     1     113.145 127.955 137.196  0.00  0.00    +0.000 A 
ATOM      5  C   UNL     1     112.931 126.340 136.939  0.00  0.00    +0.000 A 
ATOM      6  C   UNL     1     113.364 127.620 136.475  0.00  0.00    +0.000 A 
ATOM      7  C   UNL     1     112.819 127.484 137.789  0.00  0.00    +0.000 A 
ATOM      8  C   UNL     1     112.712 126.675 137.661  0.00  0.00    +0.000 A 
ATOM      9  C   UNL     1     113.251 128.796 137.343  0.00  0.00    +0.000 A 
ATOM     10  C   UNL     1     113.705 128.101 135.850  0.00  0.00    +0.000 A 
ATOM     11  C   UNL     1     113.590 129.293 136.729  0.00  0.00    +0.000 A 
ATOM     12  C   UNL     1     113.818 128.943 135.978  0.00  0.00    +0.000 A 
ENDROOT
BRANCH   5  13
ATOM     13  C   UNL     1     112.824 125.532 136.811  0.00  0.00    +0.000 A 
ATOM     14  C   UNL     1     112.113 125.255 136.497  0.00  0.00    +0.000 A 
ATOM     15  C   UNL     1     113.427 125.001 136.997  0.00  0.00    +0.000 A 
ATOM     16  C   UNL     1     112.005 124.447 136.368  0.00  0.00    +0.000 A 
ATOM     17  C   UNL     1     113.319 124.193 136.869  0.00  0.00    +0.000 A 
ATOM     18  C   UNL     1     112.609 123.917 136.555  0.00  0.00    +0.000 A 
BRANCH  14  19
ATOM     19  O   UNL     1     111.509 125.786 136.310  0.00  0.00    +0.000 OA
ATOM     20  C   UNL     1     110.807 125.512 135.977  0.00  0.00    +0.000 C 
ENDBRANCH  14  19
BRANCH  15  21
ATOM     21  O   UNL     1     114.137 125.277 137.312  0.00  0.00    +0.000 OA
ATOM     22  C   UNL     1     114.754 124.752 137.463  0.00  0.00    +0.000 C 
ENDBRANCH  15  21
ENDBRANCH   5  13
BRANCH  11  23
ATOM     23  O   UNL     1     113.696 130.101 136.860  0.00  0.00    +0.000 OA
ATOM     24  C   UNL     1     114.116 130.555 136.315  0.00  0.00    +0.000 C 
ENDBRANCH  11  23
TORSDOF 4
ENDMDL
MODEL 3
REMARK VINA RESULT:      -7.3     12.512     13.787
REMARK  Name = 44257595
REMARK  4 active torsions:
REMARK  status: ('A' for Active; 'I' for Inactive)
REMARK    1  A    between atoms: O_2  and  C_14
REMARK    2  A    between atoms: O_3  and  C_15
REMARK    3  A    between atoms: O_4  and  C_17
REMARK    4  A    between atoms: C_8  and  C_9
REMARK                            x       y       z     vdW  Elec       q    Type
REMARK                         _______ _______ _______ _____ _____    ______ ____
ROOT
ATOM      1  O   UNL     1     105.145 124.288 146.899  0.00  0.00    +0.000 OA
ATOM      2  O   UNL     1     102.390 125.009 147.388  0.00  0.00    +0.000 OA
ATOM      3  O   UNL     1     103.471 125.749 147.990  0.00  0.00    +0.000 OA
ATOM      4  C   UNL     1     103.783 124.643 147.140  0.00  0.00    +0.000 A 
ATOM      5  C   UNL     1     105.393 124.908 147.385  0.00  0.00    +0.000 A 
ATOM      6  C   UNL     1     104.341 124.156 146.777  0.00  0.00    +0.000 A 
ATOM      7  C   UNL     1     104.029 125.262 147.626  0.00  0.00    +0.000 A 
ATOM      8  C   UNL     1     104.835 125.395 147.749  0.00  0.00    +0.000 A 
ATOM      9  C   UNL     1     102.941 124.516 147.020  0.00  0.00    +0.000 A 
ATOM     10  C   UNL     1     104.096 123.508 146.268  0.00  0.00    +0.000 A 
ATOM     11  C   UNL     1     102.677 123.873 146.515  0.00  0.00    +0.000 A 
ATOM     12  C   UNL     1     103.259 123.366 146.137  0.00  0.00    +0.000 A 
ENDROOT
BRANCH   5  13
ATOM     13  C   UNL     1     106.198 125.040 147.508  0.00  0.00    +0.000 A 
ATOM     14  C   UNL     1     106.573 124.715 148.167  0.00  0.00    +0.000 A 
ATOM     15  C   UNL     1     106.628 125.497 146.972  0.00  0.00    +0.000 A 
ATOM     16  C   UNL     1     107.379 124.847 148.290  0.00  0.00    +0.000 A 
ATOM     17  C   UNL     1     107.432 125.629 147.095  0.00  0.00    +0.000 A 
ATOM     18  C   UNL     1     107.808 125.304 147.754  0.00  0.00    +0.000 A 
BRANCH  14  19
ATOM     19  O   UNL     1     106.144 124.258 148.703  0.00  0.00    +0.000 OA
ATOM     20  C   UNL     1     106.505 123.979 149.389  0.00  0.00    +0.000 C 
ENDBRANCH  14  19
BRANCH  15  21
ATOM     21  O   UNL     1     106.252 125.822 146.313  0.00  0.00    +0.000 OA
ATOM     22  C   UNL     1     106.674 126.304 145.794  0.00  0.00    +0.000 C 
ENDBRANCH  15  21
ENDBRANCH   5  13
BRANCH  11  23
ATOM     23  O   UNL     1     101.872 123.743 146.395  0.00  0.00    +0.000 OA
ATOM     24  C   UNL     1     101.622 123.138 145.892  0.00  0.00    +0.000 C 
ENDBRANCH  11  23
TORSDOF 4
ENDMDL
MODEL 4
REMARK VINA RESULT:      -7.3     12.523     13.831
REMARK  Name = 44257595
REMARK  4 active torsions:
REMARK  status: ('A' for Active; 'I' for Inactive)
REMARK    1  A    between atoms: O_2  and  C_14
REMARK    2  A    between atoms: O_3  and  C_15
REMARK    3  A    between atoms: O_4  and  C_17
REMARK    4  A    between atoms: C_8  and  C_9
REMARK                            x       y       z     vdW  Elec       q    Type
REMARK                         _______ _______ _______ _____ _____    ______ ____
ROOT
ATOM      1  O   UNL     1     105.113 124.281 146.888  0.00  0.00    +0.000 OA
ATOM      2  O   UNL     1     102.355 124.996 147.372  0.00  0.00    +0.000 OA
ATOM      3  O   UNL     1     103.434 125.741 147.972  0.00  0.00    +0.000 OA
ATOM      4  C   UNL     1     103.749 124.633 147.126  0.00  0.00    +0.000 A 
ATOM      5  C   UNL     1     105.359 124.902 147.372  0.00  0.00    +0.000 A 
ATOM      6  C   UNL     1     104.309 124.146 146.765  0.00  0.00    +0.000 A 
ATOM      7  C   UNL     1     103.994 125.254 147.611  0.00  0.00    +0.000 A 
ATOM      8  C   UNL     1     104.799 125.389 147.734  0.00  0.00    +0.000 A 
ATOM      9  C   UNL     1     102.907 124.504 147.006  0.00  0.00    +0.000 A 
ATOM     10  C   UNL     1     104.066 123.496 146.258  0.00  0.00    +0.000 A 
ATOM     11  C   UNL     1     102.646 123.859 146.503  0.00  0.00    +0.000 A 
ATOM     12  C   UNL     1     103.229 123.351 146.126  0.00  0.00    +0.000 A 
ENDROOT
BRANCH   5  13
ATOM     13  C   UNL     1     106.163 125.036 147.495  0.00  0.00    +0.000 A 
ATOM     14  C   UNL     1     106.591 125.492 146.958  0.00  0.00    +0.000 A 
ATOM     15  C   UNL     1     106.539 124.715 148.155  0.00  0.00    +0.000 A 
ATOM     16  C   UNL     1     107.397 125.627 147.081  0.00  0.00    +0.000 A 
ATOM     17  C   UNL     1     107.343 124.849 148.278  0.00  0.00    +0.000 A 
ATOM     18  C   UNL     1     107.772 125.305 147.741  0.00  0.00    +0.000 A 
BRANCH  14  19
ATOM     19  O   UNL     1     106.216 125.814 146.298  0.00  0.00    +0.000 OA
ATOM     20  C   UNL     1     106.637 126.296 145.778  0.00  0.00    +0.000 C 
ENDBRANCH  14  19
BRANCH  15  21
ATOM     21  O   UNL     1     106.111 124.258 148.693  0.00  0.00    +0.000 OA
ATOM     22  C   UNL     1     106.472 123.982 149.380  0.00  0.00    +0.000 C 
ENDBRANCH  15  21
ENDBRANCH   5  13
BRANCH  11  23
ATOM     23  O   UNL     1     101.841 123.727 146.382  0.00  0.00    +0.000 OA
ATOM     24  C   UNL     1     101.593 123.120 145.880  0.00  0.00    +0.000 C 
ENDBRANCH  11  23
TORSDOF 4
ENDMDL
MODEL 5
REMARK VINA RESULT:      -7.3     12.278     13.398
REMARK  Name = 44257595
REMARK  4 active torsions:
REMARK  status: ('A' for Active; 'I' for Inactive)
REMARK    1  A    between atoms: O_2  and  C_14
REMARK    2  A    between atoms: O_3  and  C_15
REMARK    3  A    between atoms: O_4  and  C_17
REMARK    4  A    between atoms: C_8  and  C_9
REMARK                            x       y       z     vdW  Elec       q    Type
REMARK                         _______ _______ _______ _____ _____    ______ ____
ROOT
ATOM      1  O   UNL     1     104.868 124.374 147.420  0.00  0.00    +0.000 OA
ATOM      2  O   UNL     1     107.082 125.787 146.216  0.00  0.00    +0.000 OA
ATOM      3  O   UNL     1     105.781 125.773 145.594  0.00  0.00    +0.000 OA
ATOM      4  C   UNL     1     105.963 125.072 146.826  0.00  0.00    +0.000 A 
ATOM      5  C   UNL     1     104.380 124.608 146.797  0.00  0.00    +0.000 A 
ATOM      6  C   UNL     1     105.659 124.606 147.435  0.00  0.00    +0.000 A 
ATOM      7  C   UNL     1     105.477 125.307 146.203  0.00  0.00    +0.000 A 
ATOM      8  C   UNL     1     104.684 125.074 146.188  0.00  0.00    +0.000 A 
ATOM      9  C   UNL     1     106.787 125.320 146.829  0.00  0.00    +0.000 A 
ATOM     10  C   UNL     1     106.156 124.356 148.090  0.00  0.00    +0.000 A 
ATOM     11  C   UNL     1     107.299 125.080 147.476  0.00  0.00    +0.000 A 
ATOM     12  C   UNL     1     106.981 124.594 148.110  0.00  0.00    +0.000 A 
ENDROOT
BRANCH   5  13
ATOM     13  C   UNL     1     103.589 124.377 146.783  0.00  0.00    +0.000 A 
ATOM     14  C   UNL     1     103.028 124.798 147.217  0.00  0.00    +0.000 A 
ATOM     15  C   UNL     1     103.358 123.724 146.334  0.00  0.00    +0.000 A 
ATOM     16  C   UNL     1     102.235 124.567 147.202  0.00  0.00    +0.000 A 
ATOM     17  C   UNL     1     102.567 123.492 146.320  0.00  0.00    +0.000 A 
ATOM     18  C   UNL     1     102.005 123.914 146.754  0.00  0.00    +0.000 A 
BRANCH  14  19
ATOM     19  O   UNL     1     103.258 125.451 147.665  0.00  0.00    +0.000 OA
ATOM     20  C   UNL     1     102.705 125.848 148.130  0.00  0.00    +0.000 C 
ENDBRANCH  14  19
BRANCH  15  21
ATOM     21  O   UNL     1     103.919 123.302 145.901  0.00  0.00    +0.000 OA
ATOM     22  C   UNL     1     103.676 122.740 145.348  0.00  0.00    +0.000 C 
ENDBRANCH  15  21
ENDBRANCH   5  13
BRANCH  11  23
ATOM     23  O   UNL     1     108.090 125.313 147.488  0.00  0.00    +0.000 OA
ATOM     24  C   UNL     1     108.623 124.938 147.994  0.00  0.00    +0.000 C 
ENDBRANCH  11  23
TORSDOF 4
ENDMDL
MODEL 6
REMARK VINA RESULT:      -7.3      2.353      3.231
REMARK  Name = 44257595
REMARK  4 active torsions:
REMARK  status: ('A' for Active; 'I' for Inactive)
REMARK    1  A    between atoms: O_2  and  C_14
REMARK    2  A    between atoms: O_3  and  C_15
REMARK    3  A    between atoms: O_4  and  C_17
REMARK    4  A    between atoms: C_8  and  C_9
REMARK                            x       y       z     vdW  Elec       q    Type
REMARK                         _______ _______ _______ _____ _____    ______ ____
ROOT
ATOM      1  O   UNL     1     112.364 126.159 137.820  0.00  0.00    +0.000 OA
ATOM      2  O   UNL     1     111.940 126.387 140.669  0.00  0.00    +0.000 OA
ATOM      3  O   UNL     1     110.901 125.892 139.799  0.00  0.00    +0.000 OA
ATOM      4  C   UNL     1     112.156 126.272 139.228  0.00  0.00    +0.000 A 
ATOM      5  C   UNL     1     111.597 125.868 137.729  0.00  0.00    +0.000 A 
ATOM      6  C   UNL     1     112.643 126.361 138.569  0.00  0.00    +0.000 A 
ATOM      7  C   UNL     1     111.389 125.981 139.139  0.00  0.00    +0.000 A 
ATOM      8  C   UNL     1     111.110 125.779 138.389  0.00  0.00    +0.000 A 
ATOM      9  C   UNL     1     112.435 126.479 140.015  0.00  0.00    +0.000 A 
ATOM     10  C   UNL     1     113.444 126.663 138.650  0.00  0.00    +0.000 A 
ATOM     11  C   UNL     1     113.232 126.782 140.115  0.00  0.00    +0.000 A 
ATOM     12  C   UNL     1     113.740 126.875 139.428  0.00  0.00    +0.000 A 
ENDROOT
BRANCH   5  13
ATOM     13  C   UNL     1     111.318 125.666 136.980  0.00  0.00    +0.000 A 
ATOM     14  C   UNL     1     110.918 126.225 136.525  0.00  0.00    +0.000 A 
ATOM     15  C   UNL     1     111.438 124.904 136.686  0.00  0.00    +0.000 A 
ATOM     16  C   UNL     1     110.638 126.023 135.775  0.00  0.00    +0.000 A 
ATOM     17  C   UNL     1     111.159 124.702 135.937  0.00  0.00    +0.000 A 
ATOM     18  C   UNL     1     110.759 125.262 135.481  0.00  0.00    +0.000 A 
BRANCH  14  19
ATOM     19  O   UNL     1     110.797 126.986 136.818  0.00  0.00    +0.000 OA
ATOM     20  C   UNL     1     110.414 127.551 136.355  0.00  0.00    +0.000 C 
ENDBRANCH  14  19
BRANCH  15  21
ATOM     21  O   UNL     1     111.839 124.345 137.141  0.00  0.00    +0.000 OA
ATOM     22  C   UNL     1     111.973 123.588 136.842  0.00  0.00    +0.000 C 
ENDBRANCH  15  21
ENDBRANCH   5  13
BRANCH  11  23
ATOM     23  O   UNL     1     113.509 126.984 140.866  0.00  0.00    +0.000 OA
ATOM     24  C   UNL     1     114.286 127.242 140.964  0.00  0.00    +0.000 C 
ENDBRANCH  11  23
TORSDOF 4
ENDMDL
MODEL 7
REMARK VINA RESULT:      -7.1      1.801      3.247
REMARK  Name = 44257595
REMARK  4 active torsions:
REMARK  status: ('A' for Active; 'I' for Inactive)
REMARK    1  A    between atoms: O_2  and  C_14
REMARK    2  A    between atoms: O_3  and  C_15
REMARK    3  A    between atoms: O_4  and  C_17
REMARK    4  A    between atoms: C_8  and  C_9
REMARK                            x       y       z     vdW  Elec       q    Type
REMARK                         _______ _______ _______ _____ _____    ______ ____
ROOT
ATOM      1  O   UNL     1     111.449 125.629 136.189  0.00  0.00    +0.000 OA
ATOM      2  O   UNL     1     109.250 126.818 137.639  0.00  0.00    +0.000 OA
ATOM      3  O   UNL     1     110.381 126.253 138.333  0.00  0.00    +0.000 OA
ATOM      4  C   UNL     1     110.362 126.217 136.904  0.00  0.00    +0.000 A 
ATOM      5  C   UNL     1     111.826 125.456 136.903  0.00  0.00    +0.000 A 
ATOM      6  C   UNL     1     110.718 126.008 136.190  0.00  0.00    +0.000 A 
ATOM      7  C   UNL     1     110.737 126.045 137.618  0.00  0.00    +0.000 A 
ATOM      8  C   UNL     1     111.470 125.664 137.618  0.00  0.00    +0.000 A 
ATOM      9  C   UNL     1     109.598 126.613 136.919  0.00  0.00    +0.000 A 
ATOM     10  C   UNL     1     110.335 126.182 135.440  0.00  0.00    +0.000 A 
ATOM     11  C   UNL     1     109.202 126.795 136.179  0.00  0.00    +0.000 A 
ATOM     12  C   UNL     1     109.573 126.578 135.434  0.00  0.00    +0.000 A 
ENDROOT
BRANCH   5  13
ATOM     13  C   UNL     1     112.558 125.076 136.903  0.00  0.00    +0.000 A 
ATOM     14  C   UNL     1     113.251 125.518 136.835  0.00  0.00    +0.000 A 
ATOM     15  C   UNL     1     112.597 124.255 136.970  0.00  0.00    +0.000 A 
ATOM     16  C   UNL     1     113.984 125.137 136.834  0.00  0.00    +0.000 A 
ATOM     17  C   UNL     1     113.328 123.875 136.969  0.00  0.00    +0.000 A 
ATOM     18  C   UNL     1     114.022 124.316 136.901  0.00  0.00    +0.000 A 
BRANCH  14  19
ATOM     19  O   UNL     1     113.213 126.339 136.767  0.00  0.00    +0.000 OA
ATOM     20  C   UNL     1     113.903 126.776 136.658  0.00  0.00    +0.000 C 
ENDBRANCH  14  19
BRANCH  15  21
ATOM     21  O   UNL     1     111.903 123.813 137.038  0.00  0.00    +0.000 OA
ATOM     22  C   UNL     1     111.941 122.993 137.115  0.00  0.00    +0.000 C 
ENDBRANCH  15  21
ENDBRANCH   5  13
BRANCH  11  23
ATOM     23  O   UNL     1     108.470 127.175 136.183  0.00  0.00    +0.000 OA
ATOM     24  C   UNL     1     108.332 127.811 135.674  0.00  0.00    +0.000 C 
ENDBRANCH  11  23
TORSDOF 4
ENDMDL
MODEL 8
REMARK VINA RESULT:      -7.0     11.416     12.449
REMARK  Name = 44257595
REMARK  4 active torsions:
REMARK  status: ('A' for Active; 'I' for Inactive)
REMARK    1  A    between atoms: O_2  and  C_14
REMARK    2  A    between atoms: O_3  and  C_15
REMARK    3  A    between atoms: O_4  and  C_17
REMARK    4  A    between atoms: C_8  and  C_9
REMARK                            x       y       z     vdW  Elec       q    Type
REMARK                         _______ _______ _______ _____ _____    ______ ____
ROOT
ATOM      1  O   UNL     1     106.394 126.097 147.245  0.00  0.00    +0.000 OA
ATOM      2  O   UNL     1     105.396 125.580 144.583  0.00  0.00    +0.000 OA
ATOM      3  O   UNL     1     105.750 124.498 145.468  0.00  0.00    +0.000 OA
ATOM      4  C   UNL     1     105.901 125.843 145.929  0.00  0.00    +0.000 A 
ATOM      5  C   UNL     1     106.459 125.285 147.378  0.00  0.00    +0.000 A 
ATOM      6  C   UNL     1     106.116 126.376 146.521  0.00  0.00    +0.000 A 
ATOM      7  C   UNL     1     105.965 125.031 146.061  0.00  0.00    +0.000 A 
ATOM      8  C   UNL     1     106.244 124.752 146.786  0.00  0.00    +0.000 A 
ATOM      9  C   UNL     1     105.608 126.121 145.169  0.00  0.00    +0.000 A 
ATOM     10  C   UNL     1     106.053 127.224 146.394  0.00  0.00    +0.000 A 
ATOM     11  C   UNL     1     105.539 126.965 145.025  0.00  0.00    +0.000 A 
ATOM     12  C   UNL     1     105.763 127.520 145.642  0.00  0.00    +0.000 A 
ENDROOT
BRANCH   5  13
ATOM     13  C   UNL     1     106.738 125.006 148.102  0.00  0.00    +0.000 A 
ATOM     14  C   UNL     1     107.548 124.906 148.220  0.00  0.00    +0.000 A 
ATOM     15  C   UNL     1     106.207 124.828 148.708  0.00  0.00    +0.000 A 
ATOM     16  C   UNL     1     107.827 124.626 148.945  0.00  0.00    +0.000 A 
ATOM     17  C   UNL     1     106.486 124.549 149.432  0.00  0.00    +0.000 A 
ATOM     18  C   UNL     1     107.296 124.448 149.551  0.00  0.00    +0.000 A 
BRANCH  14  19
ATOM     19  O   UNL     1     108.079 125.084 147.615  0.00  0.00    +0.000 OA
ATOM     20  C   UNL     1     108.891 125.037 147.752  0.00  0.00    +0.000 C 
ENDBRANCH  14  19
BRANCH  15  21
ATOM     21  O   UNL     1     105.397 124.929 148.589  0.00  0.00    +0.000 OA
ATOM     22  C   UNL     1     104.867 124.777 149.203  0.00  0.00    +0.000 C 
ENDBRANCH  15  21
ENDBRANCH   5  13
BRANCH  11  23
ATOM     23  O   UNL     1     105.260 127.241 144.299  0.00  0.00    +0.000 OA
ATOM     24  C   UNL     1     105.272 128.049 144.133  0.00  0.00    +0.000 C 
ENDBRANCH  11  23
TORSDOF 4
ENDMDL
MODEL 9
REMARK VINA RESULT:      -7.0      1.022      4.272
REMARK  Name = 44257595
REMARK  4 active torsions:
REMARK  status: ('A' for Active; 'I' for Inactive)
REMARK    1  A    between atoms: O_2  and  C_14
REMARK    2  A    between atoms: O_3  and  C_15
REMARK    3  A    between atoms: O_4  and  C_17
REMARK    4  A    between atoms: C_8  and  C_9
REMARK                            x       y       z     vdW  Elec       q    Type
REMARK                         _______ _______ _______ _____ _____    ______ ____
ROOT
ATOM      1  O   UNL     1     113.724 127.648 136.683  0.00  0.00    +0.000 OA
ATOM      2  O   UNL     1     111.507 125.985 135.866  0.00  0.00    +0.000 OA
ATOM      3  O   UNL     1     111.465 127.417 135.699  0.00  0.00    +0.000 OA
ATOM      4  C   UNL     1     112.629 126.825 136.280  0.00  0.00    +0.000 A 
ATOM      5  C   UNL     1     113.314 128.318 136.430  0.00  0.00    +0.000 A 
ATOM      6  C   UNL     1     113.382 126.902 136.608  0.00  0.00    +0.000 A 
ATOM      7  C   UNL     1     112.218 127.494 136.027  0.00  0.00    +0.000 A 
ATOM      8  C   UNL     1     112.561 128.241 136.102  0.00  0.00    +0.000 A 
ATOM      9  C   UNL     1     112.260 126.052 136.196  0.00  0.00    +0.000 A 
ATOM     10  C   UNL     1     113.819 126.211 136.875  0.00  0.00    +0.000 A 
ATOM     11  C   UNL     1     112.682 125.351 136.457  0.00  0.00    +0.000 A 
ATOM     12  C   UNL     1     113.467 125.431 136.799  0.00  0.00    +0.000 A 
ENDROOT
BRANCH   5  13
ATOM     13  C   UNL     1     113.657 129.064 136.505  0.00  0.00    +0.000 A 
ATOM     14  C   UNL     1     113.532 129.508 137.189  0.00  0.00    +0.000 A 
ATOM     15  C   UNL     1     114.124 129.367 135.897  0.00  0.00    +0.000 A 
ATOM     16  C   UNL     1     113.874 130.256 137.265  0.00  0.00    +0.000 A 
ATOM     17  C   UNL     1     114.467 130.113 135.972  0.00  0.00    +0.000 A 
ATOM     18  C   UNL     1     114.342 130.558 136.656  0.00  0.00    +0.000 A 
BRANCH  14  19
ATOM     19  O   UNL     1     113.064 129.206 137.798  0.00  0.00    +0.000 OA
ATOM     20  C   UNL     1     112.955 129.642 138.489  0.00  0.00    +0.000 C 
ENDBRANCH  14  19
BRANCH  15  21
ATOM     21  O   UNL     1     114.250 128.923 135.213  0.00  0.00    +0.000 OA
ATOM     22  C   UNL     1     114.732 129.217 134.612  0.00  0.00    +0.000 C 
ENDBRANCH  15  21
ENDBRANCH   5  13
BRANCH  11  23
ATOM     23  O   UNL     1     112.337 124.606 136.381  0.00  0.00    +0.000 OA
ATOM     24  C   UNL     1     112.695 123.948 136.727  0.00  0.00    +0.000 C 
ENDBRANCH  11  23
TORSDOF 4
ENDMDL
MODEL 10
REMARK VINA RESULT:      -6.9     12.136     13.141
REMARK  Name = 44257595
REMARK  4 active torsions:
REMARK  status: ('A' for Active; 'I' for Inactive)
REMARK    1  A    between atoms: O_2  and  C_14
REMARK    2  A    between atoms: O_3  and  C_15
REMARK    3  A    between atoms: O_4  and  C_17
REMARK    4  A    between atoms: C_8  and  C_9
REMARK                            x       y       z     vdW  Elec       q    Type
REMARK                         _______ _______ _______ _____ _____    ______ ____
ROOT
ATOM      1  O   UNL     1     104.251 125.212 146.101  0.00  0.00    +0.000 OA
ATOM      2  O   UNL     1     106.884 125.360 147.283  0.00  0.00    +0.000 OA
ATOM      3  O   UNL     1     105.983 124.281 147.604  0.00  0.00    +0.000 OA
ATOM      4  C   UNL     1     105.553 125.287 146.684  0.00  0.00    +0.000 A 
ATOM      5  C   UNL     1     104.103 124.517 146.519  0.00  0.00    +0.000 A 
ATOM      6  C   UNL     1     104.975 125.597 146.184  0.00  0.00    +0.000 A 
ATOM      7  C   UNL     1     105.405 124.591 147.103  0.00  0.00    +0.000 A 
ATOM      8  C   UNL     1     104.680 124.206 147.020  0.00  0.00    +0.000 A 
ATOM      9  C   UNL     1     106.313 125.678 146.779  0.00  0.00    +0.000 A 
ATOM     10  C   UNL     1     105.117 126.321 145.742  0.00  0.00    +0.000 A 
ATOM     11  C   UNL     1     106.472 126.403 146.347  0.00  0.00    +0.000 A 
ATOM     12  C   UNL     1     105.870 126.726 145.824  0.00  0.00    +0.000 A 
ENDROOT
BRANCH   5  13
ATOM     13  C   UNL     1     103.378 124.132 146.437  0.00  0.00    +0.000 A 
ATOM     14  C   UNL     1     103.287 123.543 145.867  0.00  0.00    +0.000 A 
ATOM     15  C   UNL     1     102.744 124.335 146.924  0.00  0.00    +0.000 A 
ATOM     16  C   UNL     1     102.561 123.157 145.784  0.00  0.00    +0.000 A 
ATOM     17  C   UNL     1     102.020 123.951 146.842  0.00  0.00    +0.000 A 
ATOM     18  C   UNL     1     101.928 123.361 146.271  0.00  0.00    +0.000 A 
BRANCH  14  19
ATOM     19  O   UNL     1     103.920 123.338 145.379  0.00  0.00    +0.000 OA
ATOM     20  C   UNL     1     103.833 122.740 144.818  0.00  0.00    +0.000 C 
ENDBRANCH  14  19
BRANCH  15  21
ATOM     21  O   UNL     1     102.836 124.925 147.494  0.00  0.00    +0.000 OA
ATOM     22  C   UNL     1     102.199 125.136 147.975  0.00  0.00    +0.000 C 
ENDBRANCH  15  21
ENDBRANCH   5  13
BRANCH  11  23
ATOM     23  O   UNL     1     107.198 126.786 146.431  0.00  0.00    +0.000 OA
ATOM     24  C   UNL     1     107.263 127.589 146.256  0.00  0.00    +0.000 C 
ENDBRANCH  11  23
TORSDOF 4
ENDMDL
