MODEL 1
REMARK VINA RESULT:      -8.4      0.000      0.000
REMARK  Name = 13888646
REMARK  2 active torsions:
REMARK  status: ('A' for Active; 'I' for Inactive)
REMARK    1  A    between atoms: O_5  and  C_14
REMARK    2  A    between atoms: C_6  and  C_11
REMARK                            x       y       z     vdW  Elec       q    Type
REMARK                         _______ _______ _______ _____ _____    ______ ____
ROOT
ATOM      1  O   UNL     1     105.448 124.335 147.252  0.00  0.00    +0.000 OA
ATOM      2  O   UNL     1     103.831 125.744 148.598  0.00  0.00    +0.000 OA
ATOM      3  O   UNL     1     102.755 125.265 147.764  0.00  0.00    +0.000 OA
ATOM      4  O   UNL     1     104.853 123.426 146.003  0.00  0.00    +0.000 OA
ATOM      5  C   UNL     1     105.745 124.811 147.903  0.00  0.00    +0.000 C 
ATOM      6  C   UNL     1     105.199 125.290 148.362  0.00  0.00    +0.000 C 
ATOM      7  C   UNL     1     104.084 124.805 147.509  0.00  0.00    +0.000 A 
ATOM      8  C   UNL     1     104.609 124.345 147.069  0.00  0.00    +0.000 A 
ATOM      9  C   UNL     1     104.362 125.287 148.163  0.00  0.00    +0.000 C 
ATOM     10  C   UNL     1     103.279 124.805 147.324  0.00  0.00    +0.000 A 
ATOM     11  C   UNL     1     104.329 123.886 146.443  0.00  0.00    +0.000 A 
ATOM     12  C   UNL     1     103.525 123.886 146.257  0.00  0.00    +0.000 A 
ATOM     13  C   UNL     1     103.001 124.346 146.698  0.00  0.00    +0.000 A 
ENDROOT
BRANCH   5  14
ATOM     14  C   UNL     1     106.549 124.809 148.087  0.00  0.00    +0.000 A 
ATOM     15  C   UNL     1     107.086 125.194 147.593  0.00  0.00    +0.000 A 
ATOM     16  C   UNL     1     106.816 124.421 148.764  0.00  0.00    +0.000 A 
ATOM     17  C   UNL     1     107.891 125.191 147.777  0.00  0.00    +0.000 A 
ATOM     18  C   UNL     1     107.620 124.418 148.948  0.00  0.00    +0.000 A 
ATOM     19  C   UNL     1     108.158 124.803 148.455  0.00  0.00    +0.000 A 
ENDBRANCH   5  14
BRANCH  12  20
ATOM     20  O   UNL     1     103.245 123.427 145.631  0.00  0.00    +0.000 OA
ATOM     21  C   UNL     1     102.515 123.050 145.690  0.00  0.00    +0.000 C 
ENDBRANCH  12  20
TORSDOF 2
ENDMDL
MODEL 2
REMARK VINA RESULT:      -8.2      7.813      8.933
REMARK  Name = 13888646
REMARK  2 active torsions:
REMARK  status: ('A' for Active; 'I' for Inactive)
REMARK    1  A    between atoms: O_5  and  C_14
REMARK    2  A    between atoms: C_6  and  C_11
REMARK                            x       y       z     vdW  Elec       q    Type
REMARK                         _______ _______ _______ _____ _____    ______ ____
ROOT
ATOM      1  O   UNL     1     102.913 130.469 142.206  0.00  0.00    +0.000 OA
ATOM      2  O   UNL     1     102.801 129.277 139.974  0.00  0.00    +0.000 OA
ATOM      3  O   UNL     1     103.767 128.322 140.462  0.00  0.00    +0.000 OA
ATOM      4  O   UNL     1     103.921 129.867 143.374  0.00  0.00    +0.000 OA
ATOM      5  C   UNL     1     102.393 130.772 141.592  0.00  0.00    +0.000 C 
ATOM      6  C   UNL     1     102.353 130.370 140.834  0.00  0.00    +0.000 C 
ATOM      7  C   UNL     1     103.347 129.381 141.325  0.00  0.00    +0.000 A 
ATOM      8  C   UNL     1     103.385 129.768 142.053  0.00  0.00    +0.000 A 
ATOM      9  C   UNL     1     102.833 129.670 140.700  0.00  0.00    +0.000 C 
ATOM     10  C   UNL     1     103.805 128.708 141.190  0.00  0.00    +0.000 A 
ATOM     11  C   UNL     1     103.882 129.481 142.646  0.00  0.00    +0.000 A 
ATOM     12  C   UNL     1     104.340 128.809 142.512  0.00  0.00    +0.000 A 
ATOM     13  C   UNL     1     104.302 128.422 141.784  0.00  0.00    +0.000 A 
ENDROOT
BRANCH   5  14
ATOM     14  C   UNL     1     101.936 131.445 141.729  0.00  0.00    +0.000 A 
ATOM     15  C   UNL     1     102.246 132.194 141.573  0.00  0.00    +0.000 A 
ATOM     16  C   UNL     1     101.169 131.369 142.023  0.00  0.00    +0.000 A 
ATOM     17  C   UNL     1     101.788 132.866 141.711  0.00  0.00    +0.000 A 
ATOM     18  C   UNL     1     100.712 132.041 142.160  0.00  0.00    +0.000 A 
ATOM     19  C   UNL     1     101.021 132.791 142.004  0.00  0.00    +0.000 A 
ENDBRANCH   5  14
BRANCH  12  20
ATOM     20  O   UNL     1     104.837 128.522 143.104  0.00  0.00    +0.000 OA
ATOM     21  C   UNL     1     105.313 127.864 142.962  0.00  0.00    +0.000 C 
ENDBRANCH  12  20
TORSDOF 2
ENDMDL
MODEL 3
REMARK VINA RESULT:      -8.2      1.203      4.109
REMARK  Name = 13888646
REMARK  2 active torsions:
REMARK  status: ('A' for Active; 'I' for Inactive)
REMARK    1  A    between atoms: O_5  and  C_14
REMARK    2  A    between atoms: C_6  and  C_11
REMARK                            x       y       z     vdW  Elec       q    Type
REMARK                         _______ _______ _______ _____ _____    ______ ____
ROOT
ATOM      1  O   UNL     1     105.012 124.334 147.397  0.00  0.00    +0.000 OA
ATOM      2  O   UNL     1     106.329 125.293 145.459  0.00  0.00    +0.000 OA
ATOM      3  O   UNL     1     107.440 125.516 146.353  0.00  0.00    +0.000 OA
ATOM      4  O   UNL     1     105.733 124.268 148.887  0.00  0.00    +0.000 OA
ATOM      5  C   UNL     1     104.648 124.373 146.619  0.00  0.00    +0.000 C 
ATOM      6  C   UNL     1     105.093 124.698 145.960  0.00  0.00    +0.000 C 
ATOM      7  C   UNL     1     106.242 124.932 146.871  0.00  0.00    +0.000 A 
ATOM      8  C   UNL     1     105.815 124.620 147.505  0.00  0.00    +0.000 A 
ATOM      9  C   UNL     1     105.895 124.979 146.087  0.00  0.00    +0.000 C 
ATOM     10  C   UNL     1     107.013 125.204 146.987  0.00  0.00    +0.000 A 
ATOM     11  C   UNL     1     106.159 124.580 148.254  0.00  0.00    +0.000 A 
ATOM     12  C   UNL     1     106.929 124.852 148.369  0.00  0.00    +0.000 A 
ATOM     13  C   UNL     1     107.356 125.164 147.736  0.00  0.00    +0.000 A 
ENDROOT
BRANCH   5  14
ATOM     14  C   UNL     1     103.878 124.101 146.507  0.00  0.00    +0.000 A 
ATOM     15  C   UNL     1     103.239 124.548 146.776  0.00  0.00    +0.000 A 
ATOM     16  C   UNL     1     103.747 123.382 146.124  0.00  0.00    +0.000 A 
ATOM     17  C   UNL     1     102.468 124.274 146.663  0.00  0.00    +0.000 A 
ATOM     18  C   UNL     1     102.977 123.109 146.012  0.00  0.00    +0.000 A 
ATOM     19  C   UNL     1     102.337 123.555 146.281  0.00  0.00    +0.000 A 
ENDBRANCH   5  14
BRANCH  12  20
ATOM     20  O   UNL     1     107.273 124.812 149.118  0.00  0.00    +0.000 OA
ATOM     21  C   UNL     1     108.050 124.549 149.202  0.00  0.00    +0.000 C 
ENDBRANCH  12  20
TORSDOF 2
ENDMDL
MODEL 4
REMARK VINA RESULT:      -8.2     13.077     13.638
REMARK  Name = 13888646
REMARK  2 active torsions:
REMARK  status: ('A' for Active; 'I' for Inactive)
REMARK    1  A    between atoms: O_5  and  C_14
REMARK    2  A    between atoms: C_6  and  C_11
REMARK                            x       y       z     vdW  Elec       q    Type
REMARK                         _______ _______ _______ _____ _____    ______ ____
ROOT
ATOM      1  O   UNL     1     112.497 126.433 136.236  0.00  0.00    +0.000 OA
ATOM      2  O   UNL     1     110.826 124.595 135.744  0.00  0.00    +0.000 OA
ATOM      3  O   UNL     1     109.948 125.581 135.161  0.00  0.00    +0.000 OA
ATOM      4  O   UNL     1     112.118 127.984 135.797  0.00  0.00    +0.000 OA
ATOM      5  C   UNL     1     112.683 125.624 136.459  0.00  0.00    +0.000 C 
ATOM      6  C   UNL     1     112.118 124.998 136.294  0.00  0.00    +0.000 C 
ATOM      7  C   UNL     1     111.206 126.004 135.691  0.00  0.00    +0.000 A 
ATOM      8  C   UNL     1     111.749 126.605 135.850  0.00  0.00    +0.000 A 
ATOM      9  C   UNL     1     111.374 125.190 135.907  0.00  0.00    +0.000 C 
ATOM     10  C   UNL     1     110.491 126.182 135.320  0.00  0.00    +0.000 A 
ATOM     11  C   UNL     1     111.576 127.383 135.638  0.00  0.00    +0.000 A 
ATOM     12  C   UNL     1     110.861 127.561 135.267  0.00  0.00    +0.000 A 
ATOM     13  C   UNL     1     110.319 126.960 135.108  0.00  0.00    +0.000 A 
ENDROOT
BRANCH   5  14
ATOM     14  C   UNL     1     113.399 125.449 136.830  0.00  0.00    +0.000 A 
ATOM     15  C   UNL     1     113.486 125.579 137.640  0.00  0.00    +0.000 A 
ATOM     16  C   UNL     1     114.027 125.144 136.391  0.00  0.00    +0.000 A 
ATOM     17  C   UNL     1     114.203 125.403 138.011  0.00  0.00    +0.000 A 
ATOM     18  C   UNL     1     114.742 124.970 136.761  0.00  0.00    +0.000 A 
ATOM     19  C   UNL     1     114.831 125.099 137.571  0.00  0.00    +0.000 A 
ENDBRANCH   5  14
BRANCH  12  20
ATOM     20  O   UNL     1     110.688 128.339 135.055  0.00  0.00    +0.000 OA
ATOM     21  C   UNL     1     110.013 128.506 134.612  0.00  0.00    +0.000 C 
ENDBRANCH  12  20
TORSDOF 2
ENDMDL
MODEL 5
REMARK VINA RESULT:      -8.2      2.426      2.862
REMARK  Name = 13888646
REMARK  2 active torsions:
REMARK  status: ('A' for Active; 'I' for Inactive)
REMARK    1  A    between atoms: O_5  and  C_14
REMARK    2  A    between atoms: C_6  and  C_11
REMARK                            x       y       z     vdW  Elec       q    Type
REMARK                         _______ _______ _______ _____ _____    ______ ____
ROOT
ATOM      1  O   UNL     1     106.645 125.070 146.576  0.00  0.00    +0.000 OA
ATOM      2  O   UNL     1     106.730 127.598 146.447  0.00  0.00    +0.000 OA
ATOM      3  O   UNL     1     106.237 127.522 145.092  0.00  0.00    +0.000 OA
ATOM      4  O   UNL     1     106.123 124.228 145.250  0.00  0.00    +0.000 OA
ATOM      5  C   UNL     1     106.915 125.518 147.259  0.00  0.00    +0.000 C 
ATOM      6  C   UNL     1     106.945 126.376 147.218  0.00  0.00    +0.000 C 
ATOM      7  C   UNL     1     106.438 126.310 145.823  0.00  0.00    +0.000 A 
ATOM      8  C   UNL     1     106.409 125.486 145.863  0.00  0.00    +0.000 A 
ATOM      9  C   UNL     1     106.704 126.774 146.494  0.00  0.00    +0.000 C 
ATOM     10  C   UNL     1     106.208 126.698 145.132  0.00  0.00    +0.000 A 
ATOM     11  C   UNL     1     106.151 125.051 145.210  0.00  0.00    +0.000 A 
ATOM     12  C   UNL     1     105.922 125.439 144.520  0.00  0.00    +0.000 A 
ATOM     13  C   UNL     1     105.951 126.263 144.481  0.00  0.00    +0.000 A 
ENDROOT
BRANCH   5  14
ATOM     14  C   UNL     1     107.143 125.128 147.948  0.00  0.00    +0.000 A 
ATOM     15  C   UNL     1     107.942 124.983 148.095  0.00  0.00    +0.000 A 
ATOM     16  C   UNL     1     106.573 124.882 148.491  0.00  0.00    +0.000 A 
ATOM     17  C   UNL     1     108.170 124.592 148.785  0.00  0.00    +0.000 A 
ATOM     18  C   UNL     1     106.801 124.492 149.181  0.00  0.00    +0.000 A 
ATOM     19  C   UNL     1     107.600 124.346 149.328  0.00  0.00    +0.000 A 
ENDBRANCH   5  14
BRANCH  12  20
ATOM     20  O   UNL     1     105.664 125.004 143.868  0.00  0.00    +0.000 OA
ATOM     21  C   UNL     1     105.841 125.260 143.105  0.00  0.00    +0.000 C 
ENDBRANCH  12  20
TORSDOF 2
ENDMDL
MODEL 6
REMARK VINA RESULT:      -7.8      6.573      8.618
REMARK  Name = 13888646
REMARK  2 active torsions:
REMARK  status: ('A' for Active; 'I' for Inactive)
REMARK    1  A    between atoms: O_5  and  C_14
REMARK    2  A    between atoms: C_6  and  C_11
REMARK                            x       y       z     vdW  Elec       q    Type
REMARK                         _______ _______ _______ _____ _____    ______ ____
ROOT
ATOM      1  O   UNL     1     104.616 124.661 139.583  0.00  0.00    +0.000 OA
ATOM      2  O   UNL     1     106.080 122.739 140.341  0.00  0.00    +0.000 OA
ATOM      3  O   UNL     1     106.800 123.655 141.193  0.00  0.00    +0.000 OA
ATOM      4  O   UNL     1     104.898 126.166 140.212  0.00  0.00    +0.000 OA
ATOM      5  C   UNL     1     104.478 123.874 139.263  0.00  0.00    +0.000 C 
ATOM      6  C   UNL     1     104.974 123.221 139.518  0.00  0.00    +0.000 C 
ATOM      7  C   UNL     1     105.722 124.154 140.399  0.00  0.00    +0.000 A 
ATOM      8  C   UNL     1     105.246 124.782 140.154  0.00  0.00    +0.000 A 
ATOM      9  C   UNL     1     105.600 123.362 140.091  0.00  0.00    +0.000 C 
ATOM     10  C   UNL     1     106.325 124.283 140.948  0.00  0.00    +0.000 A 
ATOM     11  C   UNL     1     105.373 125.538 140.457  0.00  0.00    +0.000 A 
ATOM     12  C   UNL     1     105.975 125.667 141.006  0.00  0.00    +0.000 A 
ATOM     13  C   UNL     1     106.451 125.039 141.251  0.00  0.00    +0.000 A 
ENDROOT
BRANCH   5  14
ATOM     14  C   UNL     1     103.875 123.748 138.714  0.00  0.00    +0.000 A 
ATOM     15  C   UNL     1     103.087 123.750 138.960  0.00  0.00    +0.000 A 
ATOM     16  C   UNL     1     104.060 123.621 137.920  0.00  0.00    +0.000 A 
ATOM     17  C   UNL     1     102.484 123.624 138.410  0.00  0.00    +0.000 A 
ATOM     18  C   UNL     1     103.458 123.495 137.372  0.00  0.00    +0.000 A 
ATOM     19  C   UNL     1     102.669 123.496 137.616  0.00  0.00    +0.000 A 
ENDBRANCH   5  14
BRANCH  12  20
ATOM     20  O   UNL     1     106.102 126.424 141.309  0.00  0.00    +0.000 OA
ATOM     21  C   UNL     1     106.598 126.530 141.959  0.00  0.00    +0.000 C 
ENDBRANCH  12  20
TORSDOF 2
ENDMDL
MODEL 7
REMARK VINA RESULT:      -7.8     13.074     13.559
REMARK  Name = 13888646
REMARK  2 active torsions:
REMARK  status: ('A' for Active; 'I' for Inactive)
REMARK    1  A    between atoms: O_5  and  C_14
REMARK    2  A    between atoms: C_6  and  C_11
REMARK                            x       y       z     vdW  Elec       q    Type
REMARK                         _______ _______ _______ _____ _____    ______ ____
ROOT
ATOM      1  O   UNL     1     112.277 125.667 136.205  0.00  0.00    +0.000 OA
ATOM      2  O   UNL     1     112.300 128.190 135.986  0.00  0.00    +0.000 OA
ATOM      3  O   UNL     1     110.996 128.125 135.371  0.00  0.00    +0.000 OA
ATOM      4  O   UNL     1     110.956 124.837 135.651  0.00  0.00    +0.000 OA
ATOM      5  C   UNL     1     112.958 126.109 136.489  0.00  0.00    +0.000 C 
ATOM      6  C   UNL     1     112.968 126.964 136.417  0.00  0.00    +0.000 C 
ATOM      7  C   UNL     1     111.627 126.910 135.782  0.00  0.00    +0.000 A 
ATOM      8  C   UNL     1     111.617 126.088 135.852  0.00  0.00    +0.000 A 
ATOM      9  C   UNL     1     112.298 127.368 136.060  0.00  0.00    +0.000 C 
ATOM     10  C   UNL     1     110.986 127.303 135.441  0.00  0.00    +0.000 A 
ATOM     11  C   UNL     1     110.966 125.659 135.581  0.00  0.00    +0.000 A 
ATOM     12  C   UNL     1     110.326 126.052 135.240  0.00  0.00    +0.000 A 
ATOM     13  C   UNL     1     110.336 126.873 135.170  0.00  0.00    +0.000 A 
ENDROOT
BRANCH   5  14
ATOM     14  C   UNL     1     113.597 125.713 136.830  0.00  0.00    +0.000 A 
ATOM     15  C   UNL     1     113.668 125.674 137.651  0.00  0.00    +0.000 A 
ATOM     16  C   UNL     1     114.165 125.357 136.349  0.00  0.00    +0.000 A 
ATOM     17  C   UNL     1     114.308 125.278 137.991  0.00  0.00    +0.000 A 
ATOM     18  C   UNL     1     114.804 124.962 136.689  0.00  0.00    +0.000 A 
ATOM     19  C   UNL     1     114.876 124.922 137.510  0.00  0.00    +0.000 A 
ENDBRANCH   5  14
BRANCH  12  20
ATOM     20  O   UNL     1     109.675 125.623 134.969  0.00  0.00    +0.000 OA
ATOM     21  C   UNL     1     108.945 125.994 134.877  0.00  0.00    +0.000 C 
ENDBRANCH  12  20
TORSDOF 2
ENDMDL
MODEL 8
REMARK VINA RESULT:      -7.8     11.937     13.418
REMARK  Name = 13888646
REMARK  2 active torsions:
REMARK  status: ('A' for Active; 'I' for Inactive)
REMARK    1  A    between atoms: O_5  and  C_14
REMARK    2  A    between atoms: C_6  and  C_11
REMARK                            x       y       z     vdW  Elec       q    Type
REMARK                         _______ _______ _______ _____ _____    ______ ____
ROOT
ATOM      1  O   UNL     1     111.883 126.299 137.087  0.00  0.00    +0.000 OA
ATOM      2  O   UNL     1     113.980 125.009 136.495  0.00  0.00    +0.000 OA
ATOM      3  O   UNL     1     114.517 125.330 137.796  0.00  0.00    +0.000 OA
ATOM      4  O   UNL     1     111.789 127.014 138.577  0.00  0.00    +0.000 OA
ATOM      5  C   UNL     1     111.943 125.923 136.316  0.00  0.00    +0.000 C 
ATOM      6  C   UNL     1     112.654 125.485 136.112  0.00  0.00    +0.000 C 
ATOM      7  C   UNL     1     113.216 125.810 137.448  0.00  0.00    +0.000 A 
ATOM      8  C   UNL     1     112.534 126.231 137.643  0.00  0.00    +0.000 A 
ATOM      9  C   UNL     1     113.294 125.428 136.683  0.00  0.00    +0.000 C 
ATOM     10  C   UNL     1     113.835 125.751 137.991  0.00  0.00    +0.000 A 
ATOM     11  C   UNL     1     112.471 126.593 138.382  0.00  0.00    +0.000 A 
ATOM     12  C   UNL     1     113.089 126.535 138.925  0.00  0.00    +0.000 A 
ATOM     13  C   UNL     1     113.771 126.114 138.729  0.00  0.00    +0.000 A 
ENDROOT
BRANCH   5  14
ATOM     14  C   UNL     1     111.324 125.983 135.774  0.00  0.00    +0.000 A 
ATOM     15  C   UNL     1     110.785 125.364 135.694  0.00  0.00    +0.000 A 
ATOM     16  C   UNL     1     111.243 126.663 135.314  0.00  0.00    +0.000 A 
ATOM     17  C   UNL     1     110.165 125.425 135.152  0.00  0.00    +0.000 A 
ATOM     18  C   UNL     1     110.624 126.724 134.773  0.00  0.00    +0.000 A 
ATOM     19  C   UNL     1     110.084 126.104 134.692  0.00  0.00    +0.000 A 
ENDBRANCH   5  14
BRANCH  12  20
ATOM     20  O   UNL     1     113.025 126.897 139.663  0.00  0.00    +0.000 OA
ATOM     21  C   UNL     1     113.655 126.864 140.194  0.00  0.00    +0.000 C 
ENDBRANCH  12  20
TORSDOF 2
ENDMDL
MODEL 9
REMARK VINA RESULT:      -7.7      1.200      2.524
REMARK  Name = 13888646
REMARK  2 active torsions:
REMARK  status: ('A' for Active; 'I' for Inactive)
REMARK    1  A    between atoms: O_5  and  C_14
REMARK    2  A    between atoms: C_6  and  C_11
REMARK                            x       y       z     vdW  Elec       q    Type
REMARK                         _______ _______ _______ _____ _____    ______ ____
ROOT
ATOM      1  O   UNL     1     105.312 125.574 148.754  0.00  0.00    +0.000 OA
ATOM      2  O   UNL     1     104.136 124.181 146.997  0.00  0.00    +0.000 OA
ATOM      3  O   UNL     1     102.920 124.911 147.266  0.00  0.00    +0.000 OA
ATOM      4  O   UNL     1     104.443 126.731 149.558  0.00  0.00    +0.000 OA
ATOM      5  C   UNL     1     105.753 124.970 148.330  0.00  0.00    +0.000 C 
ATOM      6  C   UNL     1     105.357 124.496 147.734  0.00  0.00    +0.000 C 
ATOM      7  C   UNL     1     104.100 125.240 148.002  0.00  0.00    +0.000 A 
ATOM      8  C   UNL     1     104.481 125.695 148.575  0.00  0.00    +0.000 A 
ATOM      9  C   UNL     1     104.524 124.632 147.568  0.00  0.00    +0.000 C 
ATOM     10  C   UNL     1     103.301 125.366 147.839  0.00  0.00    +0.000 A 
ATOM     11  C   UNL     1     104.062 126.276 148.985  0.00  0.00    +0.000 A 
ATOM     12  C   UNL     1     103.264 126.402 148.822  0.00  0.00    +0.000 A 
ATOM     13  C   UNL     1     102.883 125.947 148.249  0.00  0.00    +0.000 A 
ENDROOT
BRANCH   5  14
ATOM     14  C   UNL     1     106.552 124.846 148.495  0.00  0.00    +0.000 A 
ATOM     15  C   UNL     1     106.774 124.422 149.168  0.00  0.00    +0.000 A 
ATOM     16  C   UNL     1     107.130 125.146 147.988  0.00  0.00    +0.000 A 
ATOM     17  C   UNL     1     107.573 124.298 149.332  0.00  0.00    +0.000 A 
ATOM     18  C   UNL     1     107.928 125.023 148.153  0.00  0.00    +0.000 A 
ATOM     19  C   UNL     1     108.150 124.599 148.825  0.00  0.00    +0.000 A 
ENDBRANCH   5  14
BRANCH  12  20
ATOM     20  O   UNL     1     102.845 126.983 149.232  0.00  0.00    +0.000 OA
ATOM     21  C   UNL     1     102.125 127.257 148.939  0.00  0.00    +0.000 C 
ENDBRANCH  12  20
TORSDOF 2
ENDMDL
MODEL 10
REMARK VINA RESULT:      -7.6     10.721     12.194
REMARK  Name = 13888646
REMARK  2 active torsions:
REMARK  status: ('A' for Active; 'I' for Inactive)
REMARK    1  A    between atoms: O_5  and  C_14
REMARK    2  A    between atoms: C_6  and  C_11
REMARK                            x       y       z     vdW  Elec       q    Type
REMARK                         _______ _______ _______ _____ _____    ______ ____
ROOT
ATOM      1  O   UNL     1     113.551 126.294 138.838  0.00  0.00    +0.000 OA
ATOM      2  O   UNL     1     111.091 125.765 138.556  0.00  0.00    +0.000 OA
ATOM      3  O   UNL     1     110.834 126.394 139.830  0.00  0.00    +0.000 OA
ATOM      4  O   UNL     1     114.038 127.089 140.207  0.00  0.00    +0.000 OA
ATOM      5  C   UNL     1     113.287 125.882 138.131  0.00  0.00    +0.000 C 
ATOM      6  C   UNL     1     112.453 125.701 138.033  0.00  0.00    +0.000 C 
ATOM      7  C   UNL     1     112.177 126.346 139.342  0.00  0.00    +0.000 A 
ATOM      8  C   UNL     1     112.978 126.519 139.436  0.00  0.00    +0.000 A 
ATOM      9  C   UNL     1     111.894 125.935 138.643  0.00  0.00    +0.000 C 
ATOM     10  C   UNL     1     111.635 126.568 139.924  0.00  0.00    +0.000 A 
ATOM     11  C   UNL     1     113.237 126.915 140.113  0.00  0.00    +0.000 A 
ATOM     12  C   UNL     1     112.696 127.137 140.694  0.00  0.00    +0.000 A 
ATOM     13  C   UNL     1     111.895 126.963 140.600  0.00  0.00    +0.000 A 
ENDROOT
BRANCH   5  14
ATOM     14  C   UNL     1     113.831 125.661 137.551  0.00  0.00    +0.000 A 
ATOM     15  C   UNL     1     113.953 126.145 136.895  0.00  0.00    +0.000 A 
ATOM     16  C   UNL     1     114.253 124.956 137.628  0.00  0.00    +0.000 A 
ATOM     17  C   UNL     1     114.497 125.924 136.315  0.00  0.00    +0.000 A 
ATOM     18  C   UNL     1     114.796 124.735 137.049  0.00  0.00    +0.000 A 
ATOM     19  C   UNL     1     114.919 125.219 136.392  0.00  0.00    +0.000 A 
ENDBRANCH   5  14
BRANCH  12  20
ATOM     20  O   UNL     1     112.955 127.532 141.370  0.00  0.00    +0.000 OA
ATOM     21  C   UNL     1     112.431 128.004 141.799  0.00  0.00    +0.000 C 
ENDBRANCH  12  20
TORSDOF 2
ENDMDL
