MODEL 1
REMARK VINA RESULT:      -8.2      0.000      0.000
REMARK  Name = 44259888
REMARK  9 active torsions:
REMARK  status: ('A' for Active; 'I' for Inactive)
REMARK    1  A    between atoms: O_2  and  C_19
REMARK    2  A    between atoms: O_2  and  C_21
REMARK    3  A    between atoms: O_7  and  C_23
REMARK    4  A    between atoms: O_9  and  C_26
REMARK    5  A    between atoms: O_10  and  C_28
REMARK    6  A    between atoms: O_13  and  C_35
REMARK    7  A    between atoms: O_14  and  C_36
REMARK    8  A    between atoms: C_18  and  C_20
REMARK    9  A    between atoms: C_24  and  C_27
REMARK                            x       y       z     vdW  Elec       q    Type
REMARK                         _______ _______ _______ _____ _____    ______ ____
ROOT
ATOM      1  C   UNL     1     113.016 129.903 137.556  0.00  0.00    +0.000 A 
ATOM      2  C   UNL     1     112.802 129.115 137.430  0.00  0.00    +0.000 A 
ATOM      3  C   UNL     1     113.567 130.264 137.060  0.00  0.00    +0.000 A 
ATOM      4  C   UNL     1     113.139 128.690 136.808  0.00  0.00    +0.000 A 
ATOM      5  C   UNL     1     113.904 129.839 136.439  0.00  0.00    +0.000 A 
ATOM      6  C   UNL     1     113.691 129.053 136.313  0.00  0.00    +0.000 A 
ENDROOT
BRANCH   4  10
ATOM      7  O   UNL     1     113.421 127.296 136.940  0.00  0.00    +0.000 OA
ATOM      8  O   UNL     1     111.295 126.758 135.791  0.00  0.00    +0.000 OA
ATOM      9  O   UNL     1     111.555 125.344 135.911  0.00  0.00    +0.000 OA
ATOM     10  C   UNL     1     112.926 127.904 136.683  0.00  0.00    +0.000 A 
ATOM     11  C   UNL     1     112.217 127.724 136.300  0.00  0.00    +0.000 A 
ATOM     12  C   UNL     1     112.499 126.330 136.431  0.00  0.00    +0.000 A 
ATOM     13  C   UNL     1     113.207 126.509 136.814  0.00  0.00    +0.000 A 
ATOM     14  C   UNL     1     112.004 126.938 136.174  0.00  0.00    +0.000 A 
ATOM     15  C   UNL     1     112.265 125.514 136.295  0.00  0.00    +0.000 A 
ATOM     16  C   UNL     1     113.731 125.885 137.087  0.00  0.00    +0.000 A 
ATOM     17  C   UNL     1     112.776 124.876 136.560  0.00  0.00    +0.000 A 
ATOM     18  C   UNL     1     113.515 125.063 136.960  0.00  0.00    +0.000 A 
BRANCH  11  19
ATOM     19  O   UNL     1     111.723 128.332 136.042  0.00  0.00    +0.000 OA
ATOM     20  C   UNL     1     110.925 128.182 135.896  0.00  0.00    +0.000 C 
ENDBRANCH  11  19
BRANCH  17  21
ATOM     21  O   UNL     1     112.560 124.090 136.433  0.00  0.00    +0.000 OA
ATOM     22  C   UNL     1     112.034 123.719 136.948  0.00  0.00    +0.000 C 
ENDBRANCH  17  21
BRANCH  18  23
ATOM     23  O   UNL     1     114.012 124.457 137.218  0.00  0.00    +0.000 OA
ATOM     24  C   UNL     1     114.802 124.618 137.387  0.00  0.00    +0.000 C 
ENDBRANCH  18  23
ENDBRANCH   4  10
BRANCH   3  25
ATOM     25  O   UNL     1     113.780 131.052 137.186  0.00  0.00    +0.000 OA
ATOM     26  C   UNL     1     113.877 131.560 136.544  0.00  0.00    +0.000 C 
ENDBRANCH   3  25
BRANCH   6  27
ATOM     27  O   UNL     1     114.028 128.629 135.691  0.00  0.00    +0.000 OA
ATOM     28  C   UNL     1     114.604 128.979 135.216  0.00  0.00    +0.000 C 
ENDBRANCH   6  27
BRANCH   1  29
ATOM     29  O   UNL     1     112.678 130.327 138.177  0.00  0.00    +0.000 OA
BRANCH  29  38
ATOM     30  O   UNL     1     113.370 129.743 139.282  0.00  0.00    +0.000 OA
ATOM     31  O   UNL     1     111.240 129.582 140.532  0.00  0.00    +0.000 OA
ATOM     32  O   UNL     1     112.642 129.051 141.220  0.00  0.00    +0.000 OA
ATOM     33  O   UNL     1     111.258 130.220 139.010  0.00  0.00    +0.000 OA
ATOM     34  C   UNL     1     111.950 129.635 140.115  0.00  0.00    +0.000 C 
ATOM     35  C   UNL     1     112.651 129.370 140.459  0.00  0.00    +0.000 C 
ATOM     36  C   UNL     1     111.959 129.955 139.354  0.00  0.00    +0.000 C 
ATOM     37  C   UNL     1     113.361 129.424 140.042  0.00  0.00    +0.000 C 
ATOM     38  C   UNL     1     112.669 130.008 138.937  0.00  0.00    +0.000 C 
BRANCH  37  40
ATOM     39  O   UNL     1     114.734 129.638 140.379  0.00  0.00    +0.000 OA
ATOM     40  C   UNL     1     114.062 129.158 140.387  0.00  0.00    +0.000 C 
ENDBRANCH  37  40
ENDBRANCH  29  38
ENDBRANCH   1  29
TORSDOF 9
ENDMDL
MODEL 2
REMARK VINA RESULT:      -8.0      1.614      4.879
REMARK  Name = 44259888
REMARK  9 active torsions:
REMARK  status: ('A' for Active; 'I' for Inactive)
REMARK    1  A    between atoms: O_2  and  C_19
REMARK    2  A    between atoms: O_2  and  C_21
REMARK    3  A    between atoms: O_7  and  C_23
REMARK    4  A    between atoms: O_9  and  C_26
REMARK    5  A    between atoms: O_10  and  C_28
REMARK    6  A    between atoms: O_13  and  C_35
REMARK    7  A    between atoms: O_14  and  C_36
REMARK    8  A    between atoms: C_18  and  C_20
REMARK    9  A    between atoms: C_24  and  C_27
REMARK                            x       y       z     vdW  Elec       q    Type
REMARK                         _______ _______ _______ _____ _____    ______ ____
ROOT
ATOM      1  C   UNL     1     113.285 126.874 138.429  0.00  0.00    +0.000 A 
ATOM      2  C   UNL     1     112.913 127.259 137.801  0.00  0.00    +0.000 A 
ATOM      3  C   UNL     1     113.209 127.169 139.196  0.00  0.00    +0.000 A 
ATOM      4  C   UNL     1     112.466 127.939 137.940  0.00  0.00    +0.000 A 
ATOM      5  C   UNL     1     112.761 127.848 139.335  0.00  0.00    +0.000 A 
ATOM      6  C   UNL     1     112.391 128.233 138.707  0.00  0.00    +0.000 A 
ENDROOT
BRANCH   4  10
ATOM      7  O   UNL     1     111.293 128.197 137.167  0.00  0.00    +0.000 OA
ATOM      8  O   UNL     1     112.586 129.730 135.716  0.00  0.00    +0.000 OA
ATOM      9  O   UNL     1     111.415 130.009 134.919  0.00  0.00    +0.000 OA
ATOM     10  C   UNL     1     112.095 128.323 137.312  0.00  0.00    +0.000 A 
ATOM     11  C   UNL     1     112.526 128.834 136.828  0.00  0.00    +0.000 A 
ATOM     12  C   UNL     1     111.352 129.093 136.055  0.00  0.00    +0.000 A 
ATOM     13  C   UNL     1     110.921 128.582 136.539  0.00  0.00    +0.000 A 
ATOM     14  C   UNL     1     112.155 129.219 136.200  0.00  0.00    +0.000 A 
ATOM     15  C   UNL     1     110.976 129.500 135.398  0.00  0.00    +0.000 A 
ATOM     16  C   UNL     1     110.085 128.443 136.399  0.00  0.00    +0.000 A 
ATOM     17  C   UNL     1     110.141 129.373 135.242  0.00  0.00    +0.000 A 
ATOM     18  C   UNL     1     109.692 128.840 135.746  0.00  0.00    +0.000 A 
BRANCH  11  19
ATOM     19  O   UNL     1     113.328 128.960 136.972  0.00  0.00    +0.000 OA
ATOM     20  C   UNL     1     113.810 129.273 136.380  0.00  0.00    +0.000 C 
ENDBRANCH  11  19
BRANCH  17  21
ATOM     21  O   UNL     1     109.772 129.759 134.613  0.00  0.00    +0.000 OA
ATOM     22  C   UNL     1     109.485 130.526 134.711  0.00  0.00    +0.000 C 
ENDBRANCH  17  21
BRANCH  18  23
ATOM     23  O   UNL     1     108.889 128.713 135.604  0.00  0.00    +0.000 OA
ATOM     24  C   UNL     1     108.542 127.997 135.821  0.00  0.00    +0.000 C 
ENDBRANCH  18  23
ENDBRANCH   4  10
BRANCH   3  25
ATOM     25  O   UNL     1     113.580 126.783 139.825  0.00  0.00    +0.000 OA
ATOM     26  C   UNL     1     113.887 127.221 140.453  0.00  0.00    +0.000 C 
ENDBRANCH   3  25
BRANCH   6  27
ATOM     27  O   UNL     1     111.944 128.912 138.846  0.00  0.00    +0.000 OA
ATOM     28  C   UNL     1     111.778 129.147 139.619  0.00  0.00    +0.000 C 
ENDBRANCH   6  27
BRANCH   1  29
ATOM     29  O   UNL     1     113.732 126.195 138.291  0.00  0.00    +0.000 OA
BRANCH  29  38
ATOM     30  O   UNL     1     112.668 125.315 137.920  0.00  0.00    +0.000 OA
ATOM     31  O   UNL     1     114.077 124.370 136.118  0.00  0.00    +0.000 OA
ATOM     32  O   UNL     1     112.544 123.807 136.349  0.00  0.00    +0.000 OA
ATOM     33  O   UNL     1     114.671 125.565 137.089  0.00  0.00    +0.000 OA
ATOM     34  C   UNL     1     113.607 124.685 136.719  0.00  0.00    +0.000 C 
ATOM     35  C   UNL     1     112.840 124.404 136.834  0.00  0.00    +0.000 C 
ATOM     36  C   UNL     1     113.904 125.283 137.205  0.00  0.00    +0.000 C 
ATOM     37  C   UNL     1     112.371 124.719 137.435  0.00  0.00    +0.000 C 
ATOM     38  C   UNL     1     113.435 125.598 137.806  0.00  0.00    +0.000 C 
BRANCH  37  40
ATOM     39  O   UNL     1     111.288 124.399 138.311  0.00  0.00    +0.000 OA
ATOM     40  C   UNL     1     111.605 124.437 137.550  0.00  0.00    +0.000 C 
ENDBRANCH  37  40
ENDBRANCH  29  38
ENDBRANCH   1  29
TORSDOF 9
ENDMDL
MODEL 3
REMARK VINA RESULT:      -8.0      1.574      2.709
REMARK  Name = 44259888
REMARK  9 active torsions:
REMARK  status: ('A' for Active; 'I' for Inactive)
REMARK    1  A    between atoms: O_2  and  C_19
REMARK    2  A    between atoms: O_2  and  C_21
REMARK    3  A    between atoms: O_7  and  C_23
REMARK    4  A    between atoms: O_9  and  C_26
REMARK    5  A    between atoms: O_10  and  C_28
REMARK    6  A    between atoms: O_13  and  C_35
REMARK    7  A    between atoms: O_14  and  C_36
REMARK    8  A    between atoms: C_18  and  C_20
REMARK    9  A    between atoms: C_24  and  C_27
REMARK                            x       y       z     vdW  Elec       q    Type
REMARK                         _______ _______ _______ _____ _____    ______ ____
ROOT
ATOM      1  C   UNL     1     112.309 129.991 137.585  0.00  0.00    +0.000 A 
ATOM      2  C   UNL     1     112.176 129.180 137.671  0.00  0.00    +0.000 A 
ATOM      3  C   UNL     1     112.881 130.260 137.054  0.00  0.00    +0.000 A 
ATOM      4  C   UNL     1     112.614 128.640 137.226  0.00  0.00    +0.000 A 
ATOM      5  C   UNL     1     113.319 129.720 136.610  0.00  0.00    +0.000 A 
ATOM      6  C   UNL     1     113.186 128.911 136.696  0.00  0.00    +0.000 A 
ENDROOT
BRANCH   4  10
ATOM      7  O   UNL     1     112.039 127.424 136.747  0.00  0.00    +0.000 OA
ATOM      8  O   UNL     1     112.963 126.217 138.701  0.00  0.00    +0.000 OA
ATOM      9  O   UNL     1     112.393 124.975 138.240  0.00  0.00    +0.000 OA
ATOM     10  C   UNL     1     112.481 127.832 137.313  0.00  0.00    +0.000 A 
ATOM     11  C   UNL     1     112.789 127.429 137.964  0.00  0.00    +0.000 A 
ATOM     12  C   UNL     1     112.213 126.212 137.485  0.00  0.00    +0.000 A 
ATOM     13  C   UNL     1     111.905 126.614 136.833  0.00  0.00    +0.000 A 
ATOM     14  C   UNL     1     112.655 126.620 138.050  0.00  0.00    +0.000 A 
ATOM     15  C   UNL     1     112.081 125.369 137.585  0.00  0.00    +0.000 A 
ATOM     16  C   UNL     1     111.443 126.201 136.238  0.00  0.00    +0.000 A 
ATOM     17  C   UNL     1     111.621 124.938 137.000  0.00  0.00    +0.000 A 
ATOM     18  C   UNL     1     111.300 125.358 136.321  0.00  0.00    +0.000 A 
BRANCH  11  19
ATOM     19  O   UNL     1     113.231 127.836 138.529  0.00  0.00    +0.000 OA
ATOM     20  C   UNL     1     113.323 127.522 139.286  0.00  0.00    +0.000 C 
ENDBRANCH  11  19
BRANCH  17  21
ATOM     21  O   UNL     1     111.489 124.129 137.089  0.00  0.00    +0.000 OA
ATOM     22  C   UNL     1     112.078 123.590 136.881  0.00  0.00    +0.000 C 
ENDBRANCH  17  21
BRANCH  18  23
ATOM     23  O   UNL     1     110.858 124.953 135.755  0.00  0.00    +0.000 OA
ATOM     24  C   UNL     1     110.388 125.372 135.223  0.00  0.00    +0.000 C 
ENDBRANCH  18  23
ENDBRANCH   4  10
BRANCH   3  25
ATOM     25  O   UNL     1     113.014 131.070 136.968  0.00  0.00    +0.000 OA
ATOM     26  C   UNL     1     113.778 131.349 136.831  0.00  0.00    +0.000 C 
ENDBRANCH   3  25
BRANCH   6  27
ATOM     27  O   UNL     1     113.624 128.371 136.252  0.00  0.00    +0.000 OA
ATOM     28  C   UNL     1     114.134 128.640 135.662  0.00  0.00    +0.000 C 
ENDBRANCH   6  27
BRANCH   1  29
ATOM     29  O   UNL     1     111.871 130.530 138.029  0.00  0.00    +0.000 OA
BRANCH  29  38
ATOM     30  O   UNL     1     110.609 130.424 137.367  0.00  0.00    +0.000 OA
ATOM     31  O   UNL     1     109.465 130.351 139.560  0.00  0.00    +0.000 OA
ATOM     32  O   UNL     1     108.585 130.270 138.167  0.00  0.00    +0.000 OA
ATOM     33  O   UNL     1     111.108 130.481 139.491  0.00  0.00    +0.000 OA
ATOM     34  C   UNL     1     109.846 130.375 138.829  0.00  0.00    +0.000 C 
ATOM     35  C   UNL     1     109.407 130.335 138.132  0.00  0.00    +0.000 C 
ATOM     36  C   UNL     1     110.669 130.441 138.794  0.00  0.00    +0.000 C 
ATOM     37  C   UNL     1     109.788 130.359 137.401  0.00  0.00    +0.000 C 
ATOM     38  C   UNL     1     111.050 130.465 138.063  0.00  0.00    +0.000 C 
BRANCH  37  40
ATOM     39  O   UNL     1     109.543 130.800 136.064  0.00  0.00    +0.000 OA
ATOM     40  C   UNL     1     109.348 130.319 136.705  0.00  0.00    +0.000 C 
ENDBRANCH  37  40
ENDBRANCH  29  38
ENDBRANCH   1  29
TORSDOF 9
ENDMDL
MODEL 4
REMARK VINA RESULT:      -7.9      1.564      2.960
REMARK  Name = 44259888
REMARK  9 active torsions:
REMARK  status: ('A' for Active; 'I' for Inactive)
REMARK    1  A    between atoms: O_2  and  C_19
REMARK    2  A    between atoms: O_2  and  C_21
REMARK    3  A    between atoms: O_7  and  C_23
REMARK    4  A    between atoms: O_9  and  C_26
REMARK    5  A    between atoms: O_10  and  C_28
REMARK    6  A    between atoms: O_13  and  C_35
REMARK    7  A    between atoms: O_14  and  C_36
REMARK    8  A    between atoms: C_18  and  C_20
REMARK    9  A    between atoms: C_24  and  C_27
REMARK                            x       y       z     vdW  Elec       q    Type
REMARK                         _______ _______ _______ _____ _____    ______ ____
ROOT
ATOM      1  C   UNL     1     112.921 129.332 139.609  0.00  0.00    +0.000 A 
ATOM      2  C   UNL     1     112.704 128.629 139.233  0.00  0.00    +0.000 A 
ATOM      3  C   UNL     1     113.479 129.318 140.216  0.00  0.00    +0.000 A 
ATOM      4  C   UNL     1     113.045 127.915 139.464  0.00  0.00    +0.000 A 
ATOM      5  C   UNL     1     113.821 128.604 140.447  0.00  0.00    +0.000 A 
ATOM      6  C   UNL     1     113.604 127.903 140.072  0.00  0.00    +0.000 A 
ENDROOT
BRANCH   4  10
ATOM      7  O   UNL     1     113.315 126.891 138.506  0.00  0.00    +0.000 OA
ATOM      8  O   UNL     1     111.206 125.753 139.128  0.00  0.00    +0.000 OA
ATOM      9  O   UNL     1     111.454 124.706 138.166  0.00  0.00    +0.000 OA
ATOM     10  C   UNL     1     112.829 127.214 139.089  0.00  0.00    +0.000 A 
ATOM     11  C   UNL     1     112.126 126.834 139.296  0.00  0.00    +0.000 A 
ATOM     12  C   UNL     1     112.395 125.810 138.337  0.00  0.00    +0.000 A 
ATOM     13  C   UNL     1     113.098 126.189 138.129  0.00  0.00    +0.000 A 
ATOM     14  C   UNL     1     111.909 126.133 138.921  0.00  0.00    +0.000 A 
ATOM     15  C   UNL     1     112.159 125.078 137.953  0.00  0.00    +0.000 A 
ATOM     16  C   UNL     1     113.613 125.863 137.524  0.00  0.00    +0.000 A 
ATOM     17  C   UNL     1     112.660 124.737 137.344  0.00  0.00    +0.000 A 
ATOM     18  C   UNL     1     113.393 125.132 137.128  0.00  0.00    +0.000 A 
BRANCH  11  19
ATOM     19  O   UNL     1     111.640 127.157 139.879  0.00  0.00    +0.000 OA
ATOM     20  C   UNL     1     110.851 126.923 139.935  0.00  0.00    +0.000 C 
ENDBRANCH  11  19
BRANCH  17  21
ATOM     21  O   UNL     1     112.441 124.035 136.970  0.00  0.00    +0.000 OA
ATOM     22  C   UNL     1     111.874 124.047 136.371  0.00  0.00    +0.000 C 
ENDBRANCH  17  21
BRANCH  18  23
ATOM     23  O   UNL     1     113.881 124.812 136.545  0.00  0.00    +0.000 OA
ATOM     24  C   UNL     1     114.654 125.086 136.459  0.00  0.00    +0.000 C 
ENDBRANCH  18  23
ENDBRANCH   4  10
BRANCH   3  25
ATOM     25  O   UNL     1     113.696 130.021 140.591  0.00  0.00    +0.000 OA
ATOM     26  C   UNL     1     113.727 130.055 141.415  0.00  0.00    +0.000 C 
ENDBRANCH   3  25
BRANCH   6  27
ATOM     27  O   UNL     1     113.945 127.189 140.303  0.00  0.00    +0.000 OA
ATOM     28  C   UNL     1     114.550 127.183 140.864  0.00  0.00    +0.000 C 
ENDBRANCH   6  27
BRANCH   1  29
ATOM     29  O   UNL     1     112.579 130.046 139.377  0.00  0.00    +0.000 OA
BRANCH  29  38
ATOM     30  O   UNL     1     113.247 130.235 138.128  0.00  0.00    +0.000 OA
ATOM     31  O   UNL     1     111.105 130.906 137.085  0.00  0.00    +0.000 OA
ATOM     32  O   UNL     1     112.486 130.871 136.184  0.00  0.00    +0.000 OA
ATOM     33  O   UNL     1     111.151 130.493 138.681  0.00  0.00    +0.000 OA
ATOM     34  C   UNL     1     111.819 130.682 137.432  0.00  0.00    +0.000 C 
ATOM     35  C   UNL     1     112.510 130.665 136.982  0.00  0.00    +0.000 C 
ATOM     36  C   UNL     1     111.842 130.476 138.231  0.00  0.00    +0.000 C 
ATOM     37  C   UNL     1     113.224 130.441 137.330  0.00  0.00    +0.000 C 
ATOM     38  C   UNL     1     112.556 130.252 138.579  0.00  0.00    +0.000 C 
BRANCH  37  40
ATOM     39  O   UNL     1     114.627 130.681 137.205  0.00  0.00    +0.000 OA
ATOM     40  C   UNL     1     113.914 130.424 136.879  0.00  0.00    +0.000 C 
ENDBRANCH  37  40
ENDBRANCH  29  38
ENDBRANCH   1  29
TORSDOF 9
ENDMDL
MODEL 5
REMARK VINA RESULT:      -7.9      2.100      4.977
REMARK  Name = 44259888
REMARK  9 active torsions:
REMARK  status: ('A' for Active; 'I' for Inactive)
REMARK    1  A    between atoms: O_2  and  C_19
REMARK    2  A    between atoms: O_2  and  C_21
REMARK    3  A    between atoms: O_7  and  C_23
REMARK    4  A    between atoms: O_9  and  C_26
REMARK    5  A    between atoms: O_10  and  C_28
REMARK    6  A    between atoms: O_13  and  C_35
REMARK    7  A    between atoms: O_14  and  C_36
REMARK    8  A    between atoms: C_18  and  C_20
REMARK    9  A    between atoms: C_24  and  C_27
REMARK                            x       y       z     vdW  Elec       q    Type
REMARK                         _______ _______ _______ _____ _____    ______ ____
ROOT
ATOM      1  C   UNL     1     112.979 127.236 137.336  0.00  0.00    +0.000 A 
ATOM      2  C   UNL     1     112.605 127.962 137.460  0.00  0.00    +0.000 A 
ATOM      3  C   UNL     1     113.495 127.142 136.700  0.00  0.00    +0.000 A 
ATOM      4  C   UNL     1     112.748 128.592 136.947  0.00  0.00    +0.000 A 
ATOM      5  C   UNL     1     113.638 127.772 136.187  0.00  0.00    +0.000 A 
ATOM      6  C   UNL     1     113.265 128.497 136.311  0.00  0.00    +0.000 A 
ENDROOT
BRANCH   4  10
ATOM      7  O   UNL     1     111.732 129.535 136.602  0.00  0.00    +0.000 OA
ATOM      8  O   UNL     1     112.540 131.057 138.378  0.00  0.00    +0.000 OA
ATOM      9  O   UNL     1     111.523 132.027 138.051  0.00  0.00    +0.000 OA
ATOM     10  C   UNL     1     112.375 129.317 137.071  0.00  0.00    +0.000 A 
ATOM     11  C   UNL     1     112.644 129.825 137.663  0.00  0.00    +0.000 A 
ATOM     12  C   UNL     1     111.628 130.767 137.318  0.00  0.00    +0.000 A 
ATOM     13  C   UNL     1     111.358 130.260 136.726  0.00  0.00    +0.000 A 
ATOM     14  C   UNL     1     112.271 130.549 137.786  0.00  0.00    +0.000 A 
ATOM     15  C   UNL     1     111.246 131.525 137.456  0.00  0.00    +0.000 A 
ATOM     16  C   UNL     1     110.689 130.475 136.231  0.00  0.00    +0.000 A 
ATOM     17  C   UNL     1     110.576 131.758 136.971  0.00  0.00    +0.000 A 
ATOM     18  C   UNL     1     110.295 131.229 136.354  0.00  0.00    +0.000 A 
BRANCH  11  19
ATOM     19  O   UNL     1     113.287 129.607 138.131  0.00  0.00    +0.000 OA
ATOM     20  C   UNL     1     113.427 129.994 138.846  0.00  0.00    +0.000 C 
ENDBRANCH  11  19
BRANCH  17  21
ATOM     21  O   UNL     1     110.204 132.484 137.097  0.00  0.00    +0.000 OA
ATOM     22  C   UNL     1     110.534 133.175 136.790  0.00  0.00    +0.000 C 
ENDBRANCH  17  21
BRANCH  18  23
ATOM     23  O   UNL     1     109.652 131.444 135.884  0.00  0.00    +0.000 OA
ATOM     24  C   UNL     1     109.290 130.884 135.400  0.00  0.00    +0.000 C 
ENDBRANCH  18  23
ENDBRANCH   4  10
BRANCH   3  25
ATOM     25  O   UNL     1     113.868 126.416 136.576  0.00  0.00    +0.000 OA
ATOM     26  C   UNL     1     114.623 126.392 136.243  0.00  0.00    +0.000 C 
ENDBRANCH   3  25
BRANCH   6  27
ATOM     27  O   UNL     1     113.408 129.127 135.798  0.00  0.00    +0.000 OA
ATOM     28  C   UNL     1     113.897 129.023 135.142  0.00  0.00    +0.000 C 
ENDBRANCH   6  27
BRANCH   1  29
ATOM     29  O   UNL     1     112.836 126.606 137.849  0.00  0.00    +0.000 OA
BRANCH  29  38
ATOM     30  O   UNL     1     111.490 126.320 137.464  0.00  0.00    +0.000 OA
ATOM     31  O   UNL     1     110.881 125.985 139.839  0.00  0.00    +0.000 OA
ATOM     32  O   UNL     1     109.739 125.810 138.662  0.00  0.00    +0.000 OA
ATOM     33  O   UNL     1     112.430 126.382 139.433  0.00  0.00    +0.000 OA
ATOM     34  C   UNL     1     111.084 126.096 139.048  0.00  0.00    +0.000 C 
ATOM     35  C   UNL     1     110.513 126.009 138.459  0.00  0.00    +0.000 C 
ATOM     36  C   UNL     1     111.859 126.295 138.844  0.00  0.00    +0.000 C 
ATOM     37  C   UNL     1     110.716 126.121 137.667  0.00  0.00    +0.000 C 
ATOM     38  C   UNL     1     112.062 126.407 138.052  0.00  0.00    +0.000 C 
BRANCH  37  40
ATOM     39  O   UNL     1     110.328 125.634 136.381  0.00  0.00    +0.000 OA
ATOM     40  C   UNL     1     110.145 126.034 137.079  0.00  0.00    +0.000 C 
ENDBRANCH  37  40
ENDBRANCH  29  38
ENDBRANCH   1  29
TORSDOF 9
ENDMDL
MODEL 6
REMARK VINA RESULT:      -7.9      1.441      2.262
REMARK  Name = 44259888
REMARK  9 active torsions:
REMARK  status: ('A' for Active; 'I' for Inactive)
REMARK    1  A    between atoms: O_2  and  C_19
REMARK    2  A    between atoms: O_2  and  C_21
REMARK    3  A    between atoms: O_7  and  C_23
REMARK    4  A    between atoms: O_9  and  C_26
REMARK    5  A    between atoms: O_10  and  C_28
REMARK    6  A    between atoms: O_13  and  C_35
REMARK    7  A    between atoms: O_14  and  C_36
REMARK    8  A    between atoms: C_18  and  C_20
REMARK    9  A    between atoms: C_24  and  C_27
REMARK                            x       y       z     vdW  Elec       q    Type
REMARK                         _______ _______ _______ _____ _____    ______ ____
ROOT
ATOM      1  C   UNL     1     112.574 130.456 137.965  0.00  0.00    +0.000 A 
ATOM      2  C   UNL     1     112.660 129.638 137.890  0.00  0.00    +0.000 A 
ATOM      3  C   UNL     1     111.945 130.840 137.594  0.00  0.00    +0.000 A 
ATOM      4  C   UNL     1     112.116 129.205 137.445  0.00  0.00    +0.000 A 
ATOM      5  C   UNL     1     111.402 130.407 137.149  0.00  0.00    +0.000 A 
ATOM      6  C   UNL     1     111.488 129.590 137.075  0.00  0.00    +0.000 A 
ENDROOT
BRANCH   4  10
ATOM      7  O   UNL     1     111.734 127.882 137.824  0.00  0.00    +0.000 OA
ATOM      8  O   UNL     1     113.394 126.949 136.243  0.00  0.00    +0.000 OA
ATOM      9  O   UNL     1     113.028 125.602 136.608  0.00  0.00    +0.000 OA
ATOM     10  C   UNL     1     112.202 128.389 137.371  0.00  0.00    +0.000 A 
ATOM     11  C   UNL     1     112.755 128.077 136.844  0.00  0.00    +0.000 A 
ATOM     12  C   UNL     1     112.373 126.754 137.223  0.00  0.00    +0.000 A 
ATOM     13  C   UNL     1     111.820 127.064 137.751  0.00  0.00    +0.000 A 
ATOM     14  C   UNL     1     112.841 127.261 136.770  0.00  0.00    +0.000 A 
ATOM     15  C   UNL     1     112.472 125.904 137.138  0.00  0.00    +0.000 A 
ATOM     16  C   UNL     1     111.327 126.548 138.228  0.00  0.00    +0.000 A 
ATOM     17  C   UNL     1     111.988 125.371 137.606  0.00  0.00    +0.000 A 
ATOM     18  C   UNL     1     111.411 125.696 138.156  0.00  0.00    +0.000 A 
BRANCH  11  19
ATOM     19  O   UNL     1     113.223 128.584 136.391  0.00  0.00    +0.000 OA
ATOM     20  C   UNL     1     113.862 128.284 135.964  0.00  0.00    +0.000 C 
ENDBRANCH  11  19
BRANCH  17  21
ATOM     21  O   UNL     1     112.075 124.555 137.531  0.00  0.00    +0.000 OA
ATOM     22  C   UNL     1     111.721 124.158 136.900  0.00  0.00    +0.000 C 
ENDBRANCH  17  21
BRANCH  18  23
ATOM     23  O   UNL     1     110.942 125.192 138.610  0.00  0.00    +0.000 OA
ATOM     24  C   UNL     1     110.441 125.503 139.187  0.00  0.00    +0.000 C 
ENDBRANCH  18  23
ENDBRANCH   4  10
BRANCH   3  25
ATOM     25  O   UNL     1     111.860 131.658 137.668  0.00  0.00    +0.000 OA
ATOM     26  C   UNL     1     111.534 132.095 137.050  0.00  0.00    +0.000 C 
ENDBRANCH   3  25
BRANCH   6  27
ATOM     27  O   UNL     1     110.944 129.157 136.629  0.00  0.00    +0.000 OA
ATOM     28  C   UNL     1     110.278 129.529 136.316  0.00  0.00    +0.000 C 
ENDBRANCH   6  27
BRANCH   1  29
ATOM     29  O   UNL     1     113.117 130.889 138.410  0.00  0.00    +0.000 OA
BRANCH  29  38
ATOM     30  O   UNL     1     112.697 130.553 139.734  0.00  0.00    +0.000 OA
ATOM     31  O   UNL     1     115.052 130.157 140.381  0.00  0.00    +0.000 OA
ATOM     32  O   UNL     1     113.847 129.952 141.488  0.00  0.00    +0.000 OA
ATOM     33  O   UNL     1     114.688 130.625 138.842  0.00  0.00    +0.000 OA
ATOM     34  C   UNL     1     114.267 130.289 140.165  0.00  0.00    +0.000 C 
ATOM     35  C   UNL     1     113.664 130.187 140.719  0.00  0.00    +0.000 C 
ATOM     36  C   UNL     1     114.084 130.523 139.395  0.00  0.00    +0.000 C 
ATOM     37  C   UNL     1     112.879 130.319 140.503  0.00  0.00    +0.000 C 
ATOM     38  C   UNL     1     113.299 130.655 139.179  0.00  0.00    +0.000 C 
BRANCH  37  40
ATOM     39  O   UNL     1     111.680 130.782 141.128  0.00  0.00    +0.000 OA
ATOM     40  C   UNL     1     112.276 130.216 141.056  0.00  0.00    +0.000 C 
ENDBRANCH  37  40
ENDBRANCH  29  38
ENDBRANCH   1  29
TORSDOF 9
ENDMDL
MODEL 7
REMARK VINA RESULT:      -7.8      1.350      2.566
REMARK  Name = 44259888
REMARK  9 active torsions:
REMARK  status: ('A' for Active; 'I' for Inactive)
REMARK    1  A    between atoms: O_2  and  C_19
REMARK    2  A    between atoms: O_2  and  C_21
REMARK    3  A    between atoms: O_7  and  C_23
REMARK    4  A    between atoms: O_9  and  C_26
REMARK    5  A    between atoms: O_10  and  C_28
REMARK    6  A    between atoms: O_13  and  C_35
REMARK    7  A    between atoms: O_14  and  C_36
REMARK    8  A    between atoms: C_18  and  C_20
REMARK    9  A    between atoms: C_24  and  C_27
REMARK                            x       y       z     vdW  Elec       q    Type
REMARK                         _______ _______ _______ _____ _____    ______ ____
ROOT
ATOM      1  C   UNL     1     111.028 129.866 136.862  0.00  0.00    +0.000 A 
ATOM      2  C   UNL     1     111.577 129.252 136.909  0.00  0.00    +0.000 A 
ATOM      3  C   UNL     1     110.479 129.882 136.246  0.00  0.00    +0.000 A 
ATOM      4  C   UNL     1     111.578 128.654 136.340  0.00  0.00    +0.000 A 
ATOM      5  C   UNL     1     110.480 129.284 135.677  0.00  0.00    +0.000 A 
ATOM      6  C   UNL     1     111.029 128.671 135.724  0.00  0.00    +0.000 A 
ENDROOT
BRANCH   4  10
ATOM      7  O   UNL     1     111.893 127.299 136.660  0.00  0.00    +0.000 OA
ATOM      8  O   UNL     1     114.242 127.684 135.982  0.00  0.00    +0.000 OA
ATOM      9  O   UNL     1     114.588 126.320 136.298  0.00  0.00    +0.000 OA
ATOM     10  C   UNL     1     112.127 128.041 136.387  0.00  0.00    +0.000 A 
ATOM     11  C   UNL     1     112.910 128.169 136.161  0.00  0.00    +0.000 A 
ATOM     12  C   UNL     1     113.226 126.814 136.481  0.00  0.00    +0.000 A 
ATOM     13  C   UNL     1     112.443 126.684 136.708  0.00  0.00    +0.000 A 
ATOM     14  C   UNL     1     113.459 127.556 136.208  0.00  0.00    +0.000 A 
ATOM     15  C   UNL     1     113.807 126.182 136.526  0.00  0.00    +0.000 A 
ATOM     16  C   UNL     1     112.187 125.916 136.994  0.00  0.00    +0.000 A 
ATOM     17  C   UNL     1     113.570 125.406 136.810  0.00  0.00    +0.000 A 
ATOM     18  C   UNL     1     112.754 125.272 137.046  0.00  0.00    +0.000 A 
BRANCH  11  19
ATOM     19  O   UNL     1     113.144 128.912 135.887  0.00  0.00    +0.000 OA
ATOM     20  C   UNL     1     113.941 129.066 135.740  0.00  0.00    +0.000 C 
ENDBRANCH  11  19
BRANCH  17  21
ATOM     21  O   UNL     1     114.122 124.794 136.856  0.00  0.00    +0.000 OA
ATOM     22  C   UNL     1     114.672 124.780 137.471  0.00  0.00    +0.000 C 
ENDBRANCH  17  21
BRANCH  18  23
ATOM     23  O   UNL     1     112.518 124.531 137.320  0.00  0.00    +0.000 OA
ATOM     24  C   UNL     1     111.718 124.331 137.328  0.00  0.00    +0.000 C 
ENDBRANCH  18  23
ENDBRANCH   4  10
BRANCH   3  25
ATOM     25  O   UNL     1     109.930 130.496 136.199  0.00  0.00    +0.000 OA
ATOM     26  C   UNL     1     109.699 130.787 135.462  0.00  0.00    +0.000 C 
ENDBRANCH   3  25
BRANCH   6  27
ATOM     27  O   UNL     1     111.030 128.074 135.155  0.00  0.00    +0.000 OA
ATOM     28  C   UNL     1     110.411 128.020 134.612  0.00  0.00    +0.000 C 
ENDBRANCH   6  27
BRANCH   1  29
ATOM     29  O   UNL     1     111.027 130.464 137.431  0.00  0.00    +0.000 OA
BRANCH  29  38
ATOM     30  O   UNL     1     110.439 129.746 138.518  0.00  0.00    +0.000 OA
ATOM     31  O   UNL     1     112.096 130.735 140.067  0.00  0.00    +0.000 OA
ATOM     32  O   UNL     1     110.956 129.688 140.637  0.00  0.00    +0.000 OA
ATOM     33  O   UNL     1     112.132 131.123 138.464  0.00  0.00    +0.000 OA
ATOM     34  C   UNL     1     111.544 130.405 139.551  0.00  0.00    +0.000 C 
ATOM     35  C   UNL     1     110.973 129.882 139.835  0.00  0.00    +0.000 C 
ATOM     36  C   UNL     1     111.561 130.599 138.748  0.00  0.00    +0.000 C 
ATOM     37  C   UNL     1     110.421 129.552 139.319  0.00  0.00    +0.000 C 
ATOM     38  C   UNL     1     111.009 130.270 138.232  0.00  0.00    +0.000 C 
BRANCH  37  40
ATOM     39  O   UNL     1     109.066 129.098 139.358  0.00  0.00    +0.000 OA
ATOM     40  C   UNL     1     109.851 129.029 139.604  0.00  0.00    +0.000 C 
ENDBRANCH  37  40
ENDBRANCH  29  38
ENDBRANCH   1  29
TORSDOF 9
ENDMDL
MODEL 8
REMARK VINA RESULT:      -7.8      2.089      4.357
REMARK  Name = 44259888
REMARK  9 active torsions:
REMARK  status: ('A' for Active; 'I' for Inactive)
REMARK    1  A    between atoms: O_2  and  C_19
REMARK    2  A    between atoms: O_2  and  C_21
REMARK    3  A    between atoms: O_7  and  C_23
REMARK    4  A    between atoms: O_9  and  C_26
REMARK    5  A    between atoms: O_10  and  C_28
REMARK    6  A    between atoms: O_13  and  C_35
REMARK    7  A    between atoms: O_14  and  C_36
REMARK    8  A    between atoms: C_18  and  C_20
REMARK    9  A    between atoms: C_24  and  C_27
REMARK                            x       y       z     vdW  Elec       q    Type
REMARK                         _______ _______ _______ _____ _____    ______ ____
ROOT
ATOM      1  C   UNL     1     112.810 126.595 136.896  0.00  0.00    +0.000 A 
ATOM      2  C   UNL     1     112.230 127.147 136.694  0.00  0.00    +0.000 A 
ATOM      3  C   UNL     1     113.589 126.706 136.650  0.00  0.00    +0.000 A 
ATOM      4  C   UNL     1     112.430 127.810 136.246  0.00  0.00    +0.000 A 
ATOM      5  C   UNL     1     113.789 127.369 136.201  0.00  0.00    +0.000 A 
ATOM      6  C   UNL     1     113.210 127.920 136.000  0.00  0.00    +0.000 A 
ENDROOT
BRANCH   4  10
ATOM      7  O   UNL     1     111.805 129.078 136.450  0.00  0.00    +0.000 OA
ATOM      8  O   UNL     1     110.206 128.583 134.627  0.00  0.00    +0.000 OA
ATOM      9  O   UNL     1     109.556 129.858 134.812  0.00  0.00    +0.000 OA
ATOM     10  C   UNL     1     111.852 128.361 136.044  0.00  0.00    +0.000 A 
ATOM     11  C   UNL     1     111.318 128.197 135.436  0.00  0.00    +0.000 A 
ATOM     12  C   UNL     1     110.693 129.464 135.641  0.00  0.00    +0.000 A 
ATOM     13  C   UNL     1     111.226 129.630 136.248  0.00  0.00    +0.000 A 
ATOM     14  C   UNL     1     110.739 128.748 135.235  0.00  0.00    +0.000 A 
ATOM     15  C   UNL     1     110.085 130.032 135.422  0.00  0.00    +0.000 A 
ATOM     16  C   UNL     1     111.188 130.372 136.679  0.00  0.00    +0.000 A 
ATOM     17  C   UNL     1     110.031 130.780 135.840  0.00  0.00    +0.000 A 
ATOM     18  C   UNL     1     110.587 130.952 136.474  0.00  0.00    +0.000 A 
BRANCH  11  19
ATOM     19  O   UNL     1     111.364 127.480 135.030  0.00  0.00    +0.000 OA
ATOM     20  C   UNL     1     110.711 127.199 134.612  0.00  0.00    +0.000 C 
ENDBRANCH  11  19
BRANCH  17  21
ATOM     21  O   UNL     1     109.451 131.330 135.637  0.00  0.00    +0.000 OA
ATOM     22  C   UNL     1     108.680 131.239 135.916  0.00  0.00    +0.000 C 
ENDBRANCH  17  21
BRANCH  18  23
ATOM     23  O   UNL     1     110.543 131.668 136.882  0.00  0.00    +0.000 OA
ATOM     24  C   UNL     1     111.193 131.937 137.312  0.00  0.00    +0.000 C 
ENDBRANCH  18  23
ENDBRANCH   4  10
BRANCH   3  25
ATOM     25  O   UNL     1     114.168 126.154 136.852  0.00  0.00    +0.000 OA
ATOM     26  C   UNL     1     114.672 125.854 136.271  0.00  0.00    +0.000 C 
ENDBRANCH   3  25
BRANCH   6  27
ATOM     27  O   UNL     1     113.410 128.583 135.551  0.00  0.00    +0.000 OA
ATOM     28  C   UNL     1     114.203 128.753 135.397  0.00  0.00    +0.000 C 
ENDBRANCH   6  27
BRANCH   1  29
ATOM     29  O   UNL     1     112.609 125.932 137.345  0.00  0.00    +0.000 OA
BRANCH  29  38
ATOM     30  O   UNL     1     112.563 126.523 138.645  0.00  0.00    +0.000 OA
ATOM     31  O   UNL     1     110.460 125.308 139.122  0.00  0.00    +0.000 OA
ATOM     32  O   UNL     1     111.115 126.304 140.263  0.00  0.00    +0.000 OA
ATOM     33  O   UNL     1     111.207 125.122 137.663  0.00  0.00    +0.000 OA
ATOM     34  C   UNL     1     111.161 125.713 138.963  0.00  0.00    +0.000 C 
ATOM     35  C   UNL     1     111.489 126.211 139.533  0.00  0.00    +0.000 C 
ATOM     36  C   UNL     1     111.535 125.620 138.233  0.00  0.00    +0.000 C 
ATOM     37  C   UNL     1     112.190 126.616 139.374  0.00  0.00    +0.000 C 
ATOM     38  C   UNL     1     112.236 126.025 138.074  0.00  0.00    +0.000 C 
BRANCH  37  40
ATOM     39  O   UNL     1     113.325 127.078 140.109  0.00  0.00    +0.000 OA
ATOM     40  C   UNL     1     112.517 127.113 139.944  0.00  0.00    +0.000 C 
ENDBRANCH  37  40
ENDBRANCH  29  38
ENDBRANCH   1  29
TORSDOF 9
ENDMDL
MODEL 9
REMARK VINA RESULT:      -7.8      2.420      5.711
REMARK  Name = 44259888
REMARK  9 active torsions:
REMARK  status: ('A' for Active; 'I' for Inactive)
REMARK    1  A    between atoms: O_2  and  C_19
REMARK    2  A    between atoms: O_2  and  C_21
REMARK    3  A    between atoms: O_7  and  C_23
REMARK    4  A    between atoms: O_9  and  C_26
REMARK    5  A    between atoms: O_10  and  C_28
REMARK    6  A    between atoms: O_13  and  C_35
REMARK    7  A    between atoms: O_14  and  C_36
REMARK    8  A    between atoms: C_18  and  C_20
REMARK    9  A    between atoms: C_24  and  C_27
REMARK                            x       y       z     vdW  Elec       q    Type
REMARK                         _______ _______ _______ _____ _____    ______ ____
ROOT
ATOM      1  C   UNL     1     112.650 127.149 138.875  0.00  0.00    +0.000 A 
ATOM      2  C   UNL     1     112.553 127.808 139.363  0.00  0.00    +0.000 A 
ATOM      3  C   UNL     1     113.275 126.627 139.007  0.00  0.00    +0.000 A 
ATOM      4  C   UNL     1     113.082 127.945 139.981  0.00  0.00    +0.000 A 
ATOM      5  C   UNL     1     113.804 126.764 139.626  0.00  0.00    +0.000 A 
ATOM      6  C   UNL     1     113.707 127.423 140.112  0.00  0.00    +0.000 A 
ENDROOT
BRANCH   4  10
ATOM      7  O   UNL     1     112.622 128.522 141.204  0.00  0.00    +0.000 OA
ATOM      8  O   UNL     1     113.418 130.743 140.456  0.00  0.00    +0.000 OA
ATOM      9  O   UNL     1     112.964 131.352 141.683  0.00  0.00    +0.000 OA
ATOM     10  C   UNL     1     112.985 128.604 140.468  0.00  0.00    +0.000 A 
ATOM     11  C   UNL     1     113.250 129.344 140.219  0.00  0.00    +0.000 A 
ATOM     12  C   UNL     1     112.791 129.921 141.442  0.00  0.00    +0.000 A 
ATOM     13  C   UNL     1     112.525 129.182 141.692  0.00  0.00    +0.000 A 
ATOM     14  C   UNL     1     113.153 130.003 140.705  0.00  0.00    +0.000 A 
ATOM     15  C   UNL     1     112.695 130.615 141.940  0.00  0.00    +0.000 A 
ATOM     16  C   UNL     1     112.146 129.083 142.456  0.00  0.00    +0.000 A 
ATOM     17  C   UNL     1     112.319 130.537 142.709  0.00  0.00    +0.000 A 
ATOM     18  C   UNL     1     112.042 129.766 142.969  0.00  0.00    +0.000 A 
BRANCH  11  19
ATOM     19  O   UNL     1     113.613 129.426 139.482  0.00  0.00    +0.000 OA
ATOM     20  C   UNL     1     113.645 130.165 139.117  0.00  0.00    +0.000 C 
ENDBRANCH  11  19
BRANCH  17  21
ATOM     21  O   UNL     1     112.223 131.198 143.194  0.00  0.00    +0.000 OA
ATOM     22  C   UNL     1     111.594 131.717 143.065  0.00  0.00    +0.000 C 
ENDBRANCH  17  21
BRANCH  18  23
ATOM     23  O   UNL     1     111.679 129.681 143.705  0.00  0.00    +0.000 OA
ATOM     24  C   UNL     1     111.655 128.942 144.070  0.00  0.00    +0.000 C 
ENDBRANCH  18  23
ENDBRANCH   4  10
BRANCH   3  25
ATOM     25  O   UNL     1     113.372 125.968 138.520  0.00  0.00    +0.000 OA
ATOM     26  C   UNL     1     114.125 125.757 138.258  0.00  0.00    +0.000 C 
ENDBRANCH   3  25
BRANCH   6  27
ATOM     27  O   UNL     1     114.235 127.560 140.731  0.00  0.00    +0.000 OA
ATOM     28  C   UNL     1     114.796 126.988 140.929  0.00  0.00    +0.000 C 
ENDBRANCH   6  27
BRANCH   1  29
ATOM     29  O   UNL     1     112.122 127.012 138.256  0.00  0.00    +0.000 OA
BRANCH  29  38
ATOM     30  O   UNL     1     111.036 126.469 139.010  0.00  0.00    +0.000 OA
ATOM     31  O   UNL     1     109.438 127.795 137.663  0.00  0.00    +0.000 OA
ATOM     32  O   UNL     1     108.885 126.810 138.865  0.00  0.00    +0.000 OA
ATOM     33  O   UNL     1     111.056 127.896 137.358  0.00  0.00    +0.000 OA
ATOM     34  C   UNL     1     109.971 127.353 138.112  0.00  0.00    +0.000 C 
ATOM     35  C   UNL     1     109.695 126.860 138.714  0.00  0.00    +0.000 C 
ATOM     36  C   UNL     1     110.781 127.403 137.960  0.00  0.00    +0.000 C 
ATOM     37  C   UNL     1     110.227 126.418 139.163  0.00  0.00    +0.000 C 
ATOM     38  C   UNL     1     111.313 126.961 138.409  0.00  0.00    +0.000 C 
BRANCH  37  40
ATOM     39  O   UNL     1     110.286 125.181 139.875  0.00  0.00    +0.000 OA
ATOM     40  C   UNL     1     109.951 125.927 139.763  0.00  0.00    +0.000 C 
ENDBRANCH  37  40
ENDBRANCH  29  38
ENDBRANCH   1  29
TORSDOF 9
ENDMDL
MODEL 10
REMARK VINA RESULT:      -7.8      2.404      4.618
REMARK  Name = 44259888
REMARK  9 active torsions:
REMARK  status: ('A' for Active; 'I' for Inactive)
REMARK    1  A    between atoms: O_2  and  C_19
REMARK    2  A    between atoms: O_2  and  C_21
REMARK    3  A    between atoms: O_7  and  C_23
REMARK    4  A    between atoms: O_9  and  C_26
REMARK    5  A    between atoms: O_10  and  C_28
REMARK    6  A    between atoms: O_13  and  C_35
REMARK    7  A    between atoms: O_14  and  C_36
REMARK    8  A    between atoms: C_18  and  C_20
REMARK    9  A    between atoms: C_24  and  C_27
REMARK                            x       y       z     vdW  Elec       q    Type
REMARK                         _______ _______ _______ _____ _____    ______ ____
ROOT
ATOM      1  C   UNL     1     110.824 125.926 138.243  0.00  0.00    +0.000 A 
ATOM      2  C   UNL     1     110.825 126.730 138.058  0.00  0.00    +0.000 A 
ATOM      3  C   UNL     1     111.399 125.429 137.923  0.00  0.00    +0.000 A 
ATOM      4  C   UNL     1     111.401 127.037 137.554  0.00  0.00    +0.000 A 
ATOM      5  C   UNL     1     111.976 125.736 137.419  0.00  0.00    +0.000 A 
ATOM      6  C   UNL     1     111.977 126.539 137.234  0.00  0.00    +0.000 A 
ENDROOT
BRANCH   4  10
ATOM      7  O   UNL     1     111.933 128.349 137.744  0.00  0.00    +0.000 OA
ATOM      8  O   UNL     1     110.344 129.236 136.066  0.00  0.00    +0.000 OA
ATOM      9  O   UNL     1     110.862 130.572 136.239  0.00  0.00    +0.000 OA
ATOM     10  C   UNL     1     111.402 127.840 137.369  0.00  0.00    +0.000 A 
ATOM     11  C   UNL     1     110.873 128.137 136.810  0.00  0.00    +0.000 A 
ATOM     12  C   UNL     1     111.404 129.449 137.001  0.00  0.00    +0.000 A 
ATOM     13  C   UNL     1     111.934 129.154 137.560  0.00  0.00    +0.000 A 
ATOM     14  C   UNL     1     110.874 128.940 136.626  0.00  0.00    +0.000 A 
ATOM     15  C   UNL     1     111.396 130.285 136.800  0.00  0.00    +0.000 A 
ATOM     16  C   UNL     1     112.491 129.673 137.958  0.00  0.00    +0.000 A 
ATOM     17  C   UNL     1     111.945 130.820 137.187  0.00  0.00    +0.000 A 
ATOM     18  C   UNL     1     112.497 130.512 137.770  0.00  0.00    +0.000 A 
BRANCH  11  19
ATOM     19  O   UNL     1     110.342 127.628 136.435  0.00  0.00    +0.000 OA
ATOM     20  C   UNL     1     109.640 127.924 136.119  0.00  0.00    +0.000 C 
ENDBRANCH  11  19
BRANCH  17  21
ATOM     21  O   UNL     1     111.944 131.624 137.001  0.00  0.00    +0.000 OA
ATOM     22  C   UNL     1     111.329 132.107 137.262  0.00  0.00    +0.000 C 
ENDBRANCH  17  21
BRANCH  18  23
ATOM     23  O   UNL     1     113.029 131.018 138.147  0.00  0.00    +0.000 OA
ATOM     24  C   UNL     1     113.702 130.711 138.512  0.00  0.00    +0.000 C 
ENDBRANCH  18  23
ENDBRANCH   4  10
BRANCH   3  25
ATOM     25  O   UNL     1     111.398 124.624 138.108  0.00  0.00    +0.000 OA
ATOM     26  C   UNL     1     111.618 124.070 137.538  0.00  0.00    +0.000 C 
ENDBRANCH   3  25
BRANCH   6  27
ATOM     27  O   UNL     1     112.553 126.846 136.730  0.00  0.00    +0.000 OA
ATOM     28  C   UNL     1     113.195 126.379 136.504  0.00  0.00    +0.000 C 
ENDBRANCH   6  27
BRANCH   1  29
ATOM     29  O   UNL     1     110.247 125.619 138.747  0.00  0.00    +0.000 OA
BRANCH  29  38
ATOM     30  O   UNL     1     110.729 126.119 139.996  0.00  0.00    +0.000 OA
ATOM     31  O   UNL     1     108.425 126.770 140.624  0.00  0.00    +0.000 OA
ATOM     32  O   UNL     1     109.674 127.053 141.663  0.00  0.00    +0.000 OA
ATOM     33  O   UNL     1     108.712 126.053 139.166  0.00  0.00    +0.000 OA
ATOM     34  C   UNL     1     109.193 126.553 140.415  0.00  0.00    +0.000 C 
ATOM     35  C   UNL     1     109.818 126.694 140.934  0.00  0.00    +0.000 C 
ATOM     36  C   UNL     1     109.337 126.194 139.685  0.00  0.00    +0.000 C 
ATOM     37  C   UNL     1     110.586 126.477 140.725  0.00  0.00    +0.000 C 
ATOM     38  C   UNL     1     110.105 125.977 139.476  0.00  0.00    +0.000 C 
BRANCH  37  40
ATOM     39  O   UNL     1     111.803 126.053 141.342  0.00  0.00    +0.000 OA
ATOM     40  C   UNL     1     111.210 126.618 141.245  0.00  0.00    +0.000 C 
ENDBRANCH  37  40
ENDBRANCH  29  38
ENDBRANCH   1  29
TORSDOF 9
ENDMDL
