MODEL 1
REMARK VINA RESULT:     -11.1      0.000      0.000
REMARK  Name = 44566503
REMARK  9 active torsions:
REMARK  status: ('A' for Active; 'I' for Inactive)
REMARK    1  A    between atoms: O_1  and  C_21
REMARK    2  A    between atoms: O_1  and  C_26
REMARK    3  A    between atoms: O_4  and  C_29
REMARK    4  A    between atoms: O_4  and  C_32
REMARK    5  A    between atoms: O_6  and  C_25
REMARK    6  A    between atoms: O_6  and  C_39
REMARK    7  A    between atoms: O_19  and  C_51
REMARK    8  A    between atoms: C_24  and  C_29
REMARK    9  A    between atoms: C_40  and  C_43
REMARK                            x       y       z     vdW  Elec       q    Type
REMARK                         _______ _______ _______ _____ _____    ______ ____
ROOT
ATOM      1  O   UNL     1     111.101 128.540 138.080  0.00  0.00    +0.000 OA
ATOM      2  O   UNL     1     108.942 129.731 138.299  0.00  0.00    +0.000 OA
ATOM      3  O   UNL     1     108.992 128.234 137.606  0.00  0.00    +0.000 OA
ATOM      4  C   UNL     1     110.356 129.686 138.499  0.00  0.00    +0.000 C 
ATOM      5  C   UNL     1     109.662 129.334 138.226  0.00  0.00    +0.000 C 
ATOM      6  C   UNL     1     109.686 128.586 137.880  0.00  0.00    +0.000 C 
ATOM      7  C   UNL     1     110.406 128.189 137.807  0.00  0.00    +0.000 C 
ATOM      8  C   UNL     1     111.076 129.289 138.426  0.00  0.00    +0.000 C 
ENDROOT
BRANCH   4   9
ATOM      9  O   UNL     1     110.331 130.434 138.845  0.00  0.00    +0.000 OA
BRANCH   9  14
ATOM     10  O   UNL     1     110.295 131.034 137.548  0.00  0.00    +0.000 OA
ATOM     11  O   UNL     1     110.207 131.926 139.538  0.00  0.00    +0.000 OA
ATOM     12  O   UNL     1     110.109 133.271 138.588  0.00  0.00    +0.000 OA
ATOM     13  O   UNL     1     110.134 133.124 136.944  0.00  0.00    +0.000 OA
ATOM     14  C   UNL     1     110.282 131.106 138.370  0.00  0.00    +0.000 C 
ATOM     15  C   UNL     1     110.220 131.853 138.716  0.00  0.00    +0.000 C 
ATOM     16  C   UNL     1     110.171 132.526 138.241  0.00  0.00    +0.000 C 
ATOM     17  C   UNL     1     110.183 132.452 137.420  0.00  0.00    +0.000 C 
ATOM     18  C   UNL     1     110.245 131.706 137.073  0.00  0.00    +0.000 C 
ATOM     19  C   UNL     1     110.258 131.632 136.251  0.00  0.00    +0.000 C 
ENDBRANCH   9  14
ENDBRANCH   4   9
BRANCH   8  20
ATOM     20  O   UNL     1     111.770 129.640 138.699  0.00  0.00    +0.000 OA
BRANCH  20  25
ATOM     21  O   UNL     1     113.678 128.696 139.183  0.00  0.00    +0.000 OA
ATOM     22  O   UNL     1     111.364 128.796 140.058  0.00  0.00    +0.000 OA
ATOM     23  O   UNL     1     111.706 127.912 141.145  0.00  0.00    +0.000 OA
ATOM     24  O   UNL     1     114.440 126.908 141.352  0.00  0.00    +0.000 OA
ATOM     25  C   UNL     1     112.338 129.185 139.087  0.00  0.00    +0.000 A 
ATOM     26  C   UNL     1     113.110 129.151 138.795  0.00  0.00    +0.000 A 
ATOM     27  C   UNL     1     112.135 128.763 139.766  0.00  0.00    +0.000 A 
ATOM     28  C   UNL     1     112.703 128.308 140.154  0.00  0.00    +0.000 A 
ATOM     29  C   UNL     1     113.474 128.274 139.863  0.00  0.00    +0.000 A 
ATOM     30  C   UNL     1     112.480 127.873 140.861  0.00  0.00    +0.000 A 
ATOM     31  C   UNL     1     114.075 127.803 140.258  0.00  0.00    +0.000 A 
ATOM     32  C   UNL     1     113.066 127.397 141.270  0.00  0.00    +0.000 A 
ATOM     33  C   UNL     1     113.870 127.362 140.966  0.00  0.00    +0.000 A 
BRANCH  26  35
ATOM     34  O   UNL     1     113.923 130.839 136.078  0.00  0.00    +0.000 OA
ATOM     35  C   UNL     1     113.313 129.573 138.116  0.00  0.00    +0.000 A 
ATOM     36  C   UNL     1     113.331 129.193 137.384  0.00  0.00    +0.000 A 
ATOM     37  C   UNL     1     113.498 130.375 138.169  0.00  0.00    +0.000 A 
ATOM     38  C   UNL     1     113.534 129.614 136.705  0.00  0.00    +0.000 A 
ATOM     39  C   UNL     1     113.702 130.797 137.489  0.00  0.00    +0.000 A 
ATOM     40  C   UNL     1     113.719 130.416 136.758  0.00  0.00    +0.000 A 
BRANCH  38  41
ATOM     41  O   UNL     1     113.552 129.234 135.973  0.00  0.00    +0.000 OA
ATOM     42  C   UNL     1     113.753 128.436 135.928  0.00  0.00    +0.000 C 
ENDBRANCH  38  41
ENDBRANCH  26  35
ENDBRANCH  20  25
ENDBRANCH   8  20
BRANCH   7  43
ATOM     43  C   UNL     1     110.431 127.440 137.460  0.00  0.00    +0.000 C 
BRANCH  43  44
ATOM     44  O   UNL     1     110.821 126.822 137.843  0.00  0.00    +0.000 OA
BRANCH  44  49
ATOM     45  O   UNL     1     110.912 126.100 136.614  0.00  0.00    +0.000 OA
ATOM     46  O   UNL     1     111.312 125.480 138.668  0.00  0.00    +0.000 OA
ATOM     47  O   UNL     1     111.649 124.087 137.851  0.00  0.00    +0.000 OA
ATOM     48  O   UNL     1     111.494 124.035 136.209  0.00  0.00    +0.000 OA
ATOM     49  C   UNL     1     110.989 126.125 137.435  0.00  0.00    +0.000 C 
ATOM     50  C   UNL     1     111.235 125.454 137.847  0.00  0.00    +0.000 C 
ATOM     51  C   UNL     1     111.403 124.758 137.438  0.00  0.00    +0.000 C 
ATOM     52  C   UNL     1     111.326 124.732 136.618  0.00  0.00    +0.000 C 
ATOM     53  C   UNL     1     111.080 125.403 136.206  0.00  0.00    +0.000 C 
ATOM     54  C   UNL     1     111.003 125.377 135.384  0.00  0.00    +0.000 C 
ENDBRANCH  44  49
ENDBRANCH  43  44
ENDBRANCH   7  43
TORSDOF 9
ENDMDL
MODEL 2
REMARK VINA RESULT:     -10.8      1.675      5.447
REMARK  Name = 44566503
REMARK  9 active torsions:
REMARK  status: ('A' for Active; 'I' for Inactive)
REMARK    1  A    between atoms: O_1  and  C_21
REMARK    2  A    between atoms: O_1  and  C_26
REMARK    3  A    between atoms: O_4  and  C_29
REMARK    4  A    between atoms: O_4  and  C_32
REMARK    5  A    between atoms: O_6  and  C_25
REMARK    6  A    between atoms: O_6  and  C_39
REMARK    7  A    between atoms: O_19  and  C_51
REMARK    8  A    between atoms: C_24  and  C_29
REMARK    9  A    between atoms: C_40  and  C_43
REMARK                            x       y       z     vdW  Elec       q    Type
REMARK                         _______ _______ _______ _____ _____    ______ ____
ROOT
ATOM      1  O   UNL     1     112.531 128.156 138.840  0.00  0.00    +0.000 OA
ATOM      2  O   UNL     1     112.409 125.757 139.434  0.00  0.00    +0.000 OA
ATOM      3  O   UNL     1     113.194 126.813 140.428  0.00  0.00    +0.000 OA
ATOM      4  C   UNL     1     112.097 126.827 138.541  0.00  0.00    +0.000 C 
ATOM      5  C   UNL     1     112.449 126.556 139.236  0.00  0.00    +0.000 C 
ATOM      6  C   UNL     1     112.842 127.084 139.733  0.00  0.00    +0.000 C 
ATOM      7  C   UNL     1     112.883 127.884 139.535  0.00  0.00    +0.000 C 
ATOM      8  C   UNL     1     112.138 127.627 138.343  0.00  0.00    +0.000 C 
ENDROOT
BRANCH   4   9
ATOM      9  O   UNL     1     111.705 126.300 138.044  0.00  0.00    +0.000 OA
BRANCH   9  14
ATOM     10  O   UNL     1     112.949 125.901 137.464  0.00  0.00    +0.000 OA
ATOM     11  O   UNL     1     110.945 125.059 137.266  0.00  0.00    +0.000 OA
ATOM     12  O   UNL     1     111.809 124.040 136.297  0.00  0.00    +0.000 OA
ATOM     13  O   UNL     1     113.433 124.262 136.107  0.00  0.00    +0.000 OA
ATOM     14  C   UNL     1     112.137 125.790 137.559  0.00  0.00    +0.000 C 
ATOM     15  C   UNL     1     111.757 125.169 137.170  0.00  0.00    +0.000 C 
ATOM     16  C   UNL     1     112.189 124.660 136.686  0.00  0.00    +0.000 C 
ATOM     17  C   UNL     1     113.001 124.772 136.591  0.00  0.00    +0.000 C 
ATOM     18  C   UNL     1     113.381 125.391 136.980  0.00  0.00    +0.000 C 
ATOM     19  C   UNL     1     114.193 125.503 136.885  0.00  0.00    +0.000 C 
ENDBRANCH   9  14
ENDBRANCH   4   9
BRANCH   8  20
ATOM     20  O   UNL     1     111.786 127.899 137.648  0.00  0.00    +0.000 OA
BRANCH  20  25
ATOM     21  O   UNL     1     111.141 129.924 137.149  0.00  0.00    +0.000 OA
ATOM     22  O   UNL     1     110.497 128.075 138.663  0.00  0.00    +0.000 OA
ATOM     23  O   UNL     1     109.405 128.852 139.196  0.00  0.00    +0.000 OA
ATOM     24  O   UNL     1     108.956 131.552 138.178  0.00  0.00    +0.000 OA
ATOM     25  C   UNL     1     111.356 128.603 137.651  0.00  0.00    +0.000 A 
ATOM     26  C   UNL     1     111.571 129.220 137.146  0.00  0.00    +0.000 A 
ATOM     27  C   UNL     1     110.712 128.691 138.158  0.00  0.00    +0.000 A 
ATOM     28  C   UNL     1     110.282 129.395 138.161  0.00  0.00    +0.000 A 
ATOM     29  C   UNL     1     110.496 130.012 137.657  0.00  0.00    +0.000 A 
ATOM     30  C   UNL     1     109.613 129.474 138.695  0.00  0.00    +0.000 A 
ATOM     31  C   UNL     1     110.056 130.749 137.651  0.00  0.00    +0.000 A 
ATOM     32  C   UNL     1     109.161 130.205 138.703  0.00  0.00    +0.000 A 
ATOM     33  C   UNL     1     109.385 130.847 138.177  0.00  0.00    +0.000 A 
BRANCH  26  35
ATOM     34  O   UNL     1     114.148 128.870 135.115  0.00  0.00    +0.000 OA
ATOM     35  C   UNL     1     112.215 129.132 136.639  0.00  0.00    +0.000 A 
ATOM     36  C   UNL     1     112.943 129.471 136.832  0.00  0.00    +0.000 A 
ATOM     37  C   UNL     1     112.132 128.707 135.937  0.00  0.00    +0.000 A 
ATOM     38  C   UNL     1     113.586 129.383 136.325  0.00  0.00    +0.000 A 
ATOM     39  C   UNL     1     112.777 128.619 135.429  0.00  0.00    +0.000 A 
ATOM     40  C   UNL     1     113.504 128.957 135.623  0.00  0.00    +0.000 A 
BRANCH  38  41
ATOM     41  O   UNL     1     114.314 129.721 136.518  0.00  0.00    +0.000 OA
ATOM     42  C   UNL     1     114.341 130.469 136.866  0.00  0.00    +0.000 C 
ENDBRANCH  38  41
ENDBRANCH  26  35
ENDBRANCH  20  25
ENDBRANCH   8  20
BRANCH   7  43
ATOM     43  C   UNL     1     113.276 128.413 140.032  0.00  0.00    +0.000 C 
BRANCH  43  44
ATOM     44  O   UNL     1     112.904 129.110 140.269  0.00  0.00    +0.000 OA
BRANCH  44  49
ATOM     45  O   UNL     1     114.130 129.836 140.381  0.00  0.00    +0.000 OA
ATOM     46  O   UNL     1     112.220 130.090 141.406  0.00  0.00    +0.000 OA
ATOM     47  O   UNL     1     113.104 131.306 142.087  0.00  0.00    +0.000 OA
ATOM     48  O   UNL     1     114.672 131.541 141.631  0.00  0.00    +0.000 OA
ATOM     49  C   UNL     1     113.346 129.719 140.610  0.00  0.00    +0.000 C 
ATOM     50  C   UNL     1     113.004 130.209 141.178  0.00  0.00    +0.000 C 
ATOM     51  C   UNL     1     113.446 130.816 141.519  0.00  0.00    +0.000 C 
ATOM     52  C   UNL     1     114.229 130.933 141.291  0.00  0.00    +0.000 C 
ATOM     53  C   UNL     1     114.571 130.443 140.722  0.00  0.00    +0.000 C 
ATOM     54  C   UNL     1     115.356 130.561 140.493  0.00  0.00    +0.000 C 
ENDBRANCH  44  49
ENDBRANCH  43  44
ENDBRANCH   7  43
TORSDOF 9
ENDMDL
MODEL 3
REMARK VINA RESULT:     -10.7      1.691      4.855
REMARK  Name = 44566503
REMARK  9 active torsions:
REMARK  status: ('A' for Active; 'I' for Inactive)
REMARK    1  A    between atoms: O_1  and  C_21
REMARK    2  A    between atoms: O_1  and  C_26
REMARK    3  A    between atoms: O_4  and  C_29
REMARK    4  A    between atoms: O_4  and  C_32
REMARK    5  A    between atoms: O_6  and  C_25
REMARK    6  A    between atoms: O_6  and  C_39
REMARK    7  A    between atoms: O_19  and  C_51
REMARK    8  A    between atoms: C_24  and  C_29
REMARK    9  A    between atoms: C_40  and  C_43
REMARK                            x       y       z     vdW  Elec       q    Type
REMARK                         _______ _______ _______ _____ _____    ______ ____
ROOT
ATOM      1  O   UNL     1     111.460 128.035 139.164  0.00  0.00    +0.000 OA
ATOM      2  O   UNL     1     111.183 125.585 139.374  0.00  0.00    +0.000 OA
ATOM      3  O   UNL     1     110.143 126.603 140.152  0.00  0.00    +0.000 OA
ATOM      4  C   UNL     1     111.888 126.709 138.844  0.00  0.00    +0.000 C 
ATOM      5  C   UNL     1     111.275 126.402 139.304  0.00  0.00    +0.000 C 
ATOM      6  C   UNL     1     110.756 126.910 139.693  0.00  0.00    +0.000 C 
ATOM      7  C   UNL     1     110.848 127.727 139.623  0.00  0.00    +0.000 C 
ATOM      8  C   UNL     1     111.980 127.526 138.774  0.00  0.00    +0.000 C 
ENDROOT
BRANCH   4   9
ATOM      9  O   UNL     1     112.408 126.201 138.456  0.00  0.00    +0.000 OA
BRANCH   9  14
ATOM     10  O   UNL     1     111.447 125.999 137.417  0.00  0.00    +0.000 OA
ATOM     11  O   UNL     1     113.352 125.011 137.813  0.00  0.00    +0.000 OA
ATOM     12  O   UNL     1     112.863 124.213 136.453  0.00  0.00    +0.000 OA
ATOM     13  O   UNL     1     111.430 124.607 135.737  0.00  0.00    +0.000 OA
ATOM     14  C   UNL     1     112.163 125.802 137.776  0.00  0.00    +0.000 C 
ATOM     15  C   UNL     1     112.636 125.207 137.454  0.00  0.00    +0.000 C 
ATOM     16  C   UNL     1     112.391 124.808 136.774  0.00  0.00    +0.000 C 
ATOM     17  C   UNL     1     111.674 125.005 136.416  0.00  0.00    +0.000 C 
ATOM     18  C   UNL     1     111.202 125.600 136.738  0.00  0.00    +0.000 C 
ATOM     19  C   UNL     1     110.485 125.797 136.380  0.00  0.00    +0.000 C 
ENDBRANCH   9  14
ENDBRANCH   4   9
BRANCH   8  20
ATOM     20  O   UNL     1     112.592 127.835 138.315  0.00  0.00    +0.000 OA
BRANCH  20  25
ATOM     21  O   UNL     1     113.457 129.839 138.303  0.00  0.00    +0.000 OA
ATOM     22  O   UNL     1     113.266 127.892 139.821  0.00  0.00    +0.000 OA
ATOM     23  O   UNL     1     114.008 128.583 140.847  0.00  0.00    +0.000 OA
ATOM     24  O   UNL     1     114.960 131.294 140.329  0.00  0.00    +0.000 OA
ATOM     25  C   UNL     1     112.993 128.512 138.562  0.00  0.00    +0.000 A 
ATOM     26  C   UNL     1     113.056 129.161 138.056  0.00  0.00    +0.000 A 
ATOM     27  C   UNL     1     113.329 128.541 139.314  0.00  0.00    +0.000 A 
ATOM     28  C   UNL     1     113.730 129.219 139.562  0.00  0.00    +0.000 A 
ATOM     29  C   UNL     1     113.794 129.868 139.057  0.00  0.00    +0.000 A 
ATOM     30  C   UNL     1     114.076 129.237 140.348  0.00  0.00    +0.000 A 
ATOM     31  C   UNL     1     114.208 130.579 139.302  0.00  0.00    +0.000 A 
ATOM     32  C   UNL     1     114.495 129.939 140.612  0.00  0.00    +0.000 A 
ATOM     33  C   UNL     1     114.561 130.615 140.084  0.00  0.00    +0.000 A 
BRANCH  26  35
ATOM     34  O   UNL     1     111.710 129.046 135.045  0.00  0.00    +0.000 OA
ATOM     35  C   UNL     1     112.720 129.132 137.304  0.00  0.00    +0.000 A 
ATOM     36  C   UNL     1     111.980 129.473 137.169  0.00  0.00    +0.000 A 
ATOM     37  C   UNL     1     113.123 128.763 136.686  0.00  0.00    +0.000 A 
ATOM     38  C   UNL     1     111.644 129.444 136.417  0.00  0.00    +0.000 A 
ATOM     39  C   UNL     1     112.786 128.735 135.933  0.00  0.00    +0.000 A 
ATOM     40  C   UNL     1     112.047 129.075 135.799  0.00  0.00    +0.000 A 
BRANCH  38  41
ATOM     41  O   UNL     1     110.904 129.784 136.282  0.00  0.00    +0.000 OA
ATOM     42  C   UNL     1     110.764 130.566 136.503  0.00  0.00    +0.000 C 
ENDBRANCH  38  41
ENDBRANCH  26  35
ENDBRANCH  20  25
ENDBRANCH   8  20
BRANCH   7  43
ATOM     43  C   UNL     1     110.328 128.236 140.012  0.00  0.00    +0.000 C 
BRANCH  43  44
ATOM     44  O   UNL     1     110.035 128.902 139.623  0.00  0.00    +0.000 OA
BRANCH  44  49
ATOM     45  O   UNL     1     110.041 129.758 140.767  0.00  0.00    +0.000 OA
ATOM     46  O   UNL     1     108.673 129.652 139.070  0.00  0.00    +0.000 OA
ATOM     47  O   UNL     1     107.999 130.883 139.937  0.00  0.00    +0.000 OA
ATOM     48  O   UNL     1     108.687 131.364 141.358  0.00  0.00    +0.000 OA
ATOM     49  C   UNL     1     109.697 129.518 140.057  0.00  0.00    +0.000 C 
ATOM     50  C   UNL     1     109.016 129.893 139.780  0.00  0.00    +0.000 C 
ATOM     51  C   UNL     1     108.680 130.508 140.214  0.00  0.00    +0.000 C 
ATOM     52  C   UNL     1     109.023 130.748 140.924  0.00  0.00    +0.000 C 
ATOM     53  C   UNL     1     109.704 130.373 141.200  0.00  0.00    +0.000 C 
ATOM     54  C   UNL     1     110.048 130.614 141.911  0.00  0.00    +0.000 C 
ENDBRANCH  44  49
ENDBRANCH  43  44
ENDBRANCH   7  43
TORSDOF 9
ENDMDL
MODEL 4
REMARK VINA RESULT:     -10.6      1.722      3.658
REMARK  Name = 44566503
REMARK  9 active torsions:
REMARK  status: ('A' for Active; 'I' for Inactive)
REMARK    1  A    between atoms: O_1  and  C_21
REMARK    2  A    between atoms: O_1  and  C_26
REMARK    3  A    between atoms: O_4  and  C_29
REMARK    4  A    between atoms: O_4  and  C_32
REMARK    5  A    between atoms: O_6  and  C_25
REMARK    6  A    between atoms: O_6  and  C_39
REMARK    7  A    between atoms: O_19  and  C_51
REMARK    8  A    between atoms: C_24  and  C_29
REMARK    9  A    between atoms: C_40  and  C_43
REMARK                            x       y       z     vdW  Elec       q    Type
REMARK                         _______ _______ _______ _____ _____    ______ ____
ROOT
ATOM      1  O   UNL     1     112.815 128.092 138.725  0.00  0.00    +0.000 OA
ATOM      2  O   UNL     1     113.175 128.255 141.169  0.00  0.00    +0.000 OA
ATOM      3  O   UNL     1     113.429 126.822 140.391  0.00  0.00    +0.000 OA
ATOM      4  C   UNL     1     112.808 128.863 139.929  0.00  0.00    +0.000 C 
ATOM      5  C   UNL     1     113.055 128.201 140.354  0.00  0.00    +0.000 C 
ATOM      6  C   UNL     1     113.182 127.485 139.966  0.00  0.00    +0.000 C 
ATOM      7  C   UNL     1     113.062 127.430 139.152  0.00  0.00    +0.000 C 
ATOM      8  C   UNL     1     112.687 128.809 139.115  0.00  0.00    +0.000 C 
ENDROOT
BRANCH   4   9
ATOM      9  O   UNL     1     112.680 129.579 140.317  0.00  0.00    +0.000 OA
BRANCH   9  14
ATOM     10  O   UNL     1     114.075 129.889 140.269  0.00  0.00    +0.000 OA
ATOM     11  O   UNL     1     112.461 130.746 141.463  0.00  0.00    +0.000 OA
ATOM     12  O   UNL     1     113.745 131.639 141.987  0.00  0.00    +0.000 OA
ATOM     13  O   UNL     1     115.249 131.365 141.366  0.00  0.00    +0.000 OA
ATOM     14  C   UNL     1     113.323 130.026 140.579  0.00  0.00    +0.000 C 
ATOM     15  C   UNL     1     113.213 130.610 141.153  0.00  0.00    +0.000 C 
ATOM     16  C   UNL     1     113.855 131.056 141.415  0.00  0.00    +0.000 C 
ATOM     17  C   UNL     1     114.607 130.919 141.104  0.00  0.00    +0.000 C 
ATOM     18  C   UNL     1     114.717 130.336 140.532  0.00  0.00    +0.000 C 
ATOM     19  C   UNL     1     115.469 130.198 140.221  0.00  0.00    +0.000 C 
ENDBRANCH   9  14
ENDBRANCH   4   9
BRANCH   8  20
ATOM     20  O   UNL     1     112.440 129.470 138.688  0.00  0.00    +0.000 OA
BRANCH  20  25
ATOM     21  O   UNL     1     111.427 129.549 136.757  0.00  0.00    +0.000 OA
ATOM     22  O   UNL     1     110.960 128.861 139.088  0.00  0.00    +0.000 OA
ATOM     23  O   UNL     1     109.617 128.470 138.735  0.00  0.00    +0.000 OA
ATOM     24  O   UNL     1     108.730 128.780 135.970  0.00  0.00    +0.000 OA
ATOM     25  C   UNL     1     111.855 129.395 138.111  0.00  0.00    +0.000 A 
ATOM     26  C   UNL     1     112.011 129.624 137.334  0.00  0.00    +0.000 A 
ATOM     27  C   UNL     1     111.116 129.090 138.311  0.00  0.00    +0.000 A 
ATOM     28  C   UNL     1     110.531 129.015 137.734  0.00  0.00    +0.000 A 
ATOM     29  C   UNL     1     110.686 129.244 136.957  0.00  0.00    +0.000 A 
ATOM     30  C   UNL     1     109.763 128.696 137.955  0.00  0.00    +0.000 A 
ATOM     31  C   UNL     1     110.085 129.170 136.347  0.00  0.00    +0.000 A 
ATOM     32  C   UNL     1     109.150 128.615 137.359  0.00  0.00    +0.000 A 
ATOM     33  C   UNL     1     109.313 128.854 136.549  0.00  0.00    +0.000 A 
BRANCH  26  35
ATOM     34  O   UNL     1     114.972 130.843 136.533  0.00  0.00    +0.000 OA
ATOM     35  C   UNL     1     112.751 129.928 137.134  0.00  0.00    +0.000 A 
ATOM     36  C   UNL     1     113.300 129.455 136.739  0.00  0.00    +0.000 A 
ATOM     37  C   UNL     1     112.943 130.707 137.328  0.00  0.00    +0.000 A 
ATOM     38  C   UNL     1     114.039 129.759 136.539  0.00  0.00    +0.000 A 
ATOM     39  C   UNL     1     113.683 131.012 137.128  0.00  0.00    +0.000 A 
ATOM     40  C   UNL     1     114.231 130.538 136.733  0.00  0.00    +0.000 A 
BRANCH  38  41
ATOM     41  O   UNL     1     114.588 129.286 136.144  0.00  0.00    +0.000 OA
ATOM     42  C   UNL     1     114.329 128.718 135.605  0.00  0.00    +0.000 C 
ENDBRANCH  38  41
ENDBRANCH  26  35
ENDBRANCH  20  25
ENDBRANCH   8  20
BRANCH   7  43
ATOM     43  C   UNL     1     113.189 126.713 138.763  0.00  0.00    +0.000 C 
BRANCH  43  44
ATOM     44  O   UNL     1     112.593 126.387 138.295  0.00  0.00    +0.000 OA
BRANCH  44  49
ATOM     45  O   UNL     1     113.544 125.555 137.627  0.00  0.00    +0.000 OA
ATOM     46  O   UNL     1     111.362 125.497 137.649  0.00  0.00    +0.000 OA
ATOM     47  O   UNL     1     111.698 124.221 136.659  0.00  0.00    +0.000 OA
ATOM     48  O   UNL     1     113.265 123.834 136.315  0.00  0.00    +0.000 OA
ATOM     49  C   UNL     1     112.761 125.748 137.799  0.00  0.00    +0.000 C 
ATOM     50  C   UNL     1     112.146 125.303 137.477  0.00  0.00    +0.000 C 
ATOM     51  C   UNL     1     112.314 124.666 136.982  0.00  0.00    +0.000 C 
ATOM     52  C   UNL     1     113.096 124.472 136.810  0.00  0.00    +0.000 C 
ATOM     53  C   UNL     1     113.712 124.917 137.132  0.00  0.00    +0.000 C 
ATOM     54  C   UNL     1     114.496 124.724 136.960  0.00  0.00    +0.000 C 
ENDBRANCH  44  49
ENDBRANCH  43  44
ENDBRANCH   7  43
TORSDOF 9
ENDMDL
MODEL 5
REMARK VINA RESULT:     -10.5      1.935      4.707
REMARK  Name = 44566503
REMARK  9 active torsions:
REMARK  status: ('A' for Active; 'I' for Inactive)
REMARK    1  A    between atoms: O_1  and  C_21
REMARK    2  A    between atoms: O_1  and  C_26
REMARK    3  A    between atoms: O_4  and  C_29
REMARK    4  A    between atoms: O_4  and  C_32
REMARK    5  A    between atoms: O_6  and  C_25
REMARK    6  A    between atoms: O_6  and  C_39
REMARK    7  A    between atoms: O_19  and  C_51
REMARK    8  A    between atoms: C_24  and  C_29
REMARK    9  A    between atoms: C_40  and  C_43
REMARK                            x       y       z     vdW  Elec       q    Type
REMARK                         _______ _______ _______ _____ _____    ______ ____
ROOT
ATOM      1  O   UNL     1     111.524 127.649 138.102  0.00  0.00    +0.000 OA
ATOM      2  O   UNL     1     109.065 127.368 138.135  0.00  0.00    +0.000 OA
ATOM      3  O   UNL     1     109.752 128.514 137.166  0.00  0.00    +0.000 OA
ATOM      4  C   UNL     1     110.360 126.982 138.598  0.00  0.00    +0.000 C 
ATOM      5  C   UNL     1     109.885 127.462 138.124  0.00  0.00    +0.000 C 
ATOM      6  C   UNL     1     110.228 128.034 137.640  0.00  0.00    +0.000 C 
ATOM      7  C   UNL     1     111.047 128.128 137.629  0.00  0.00    +0.000 C 
ATOM      8  C   UNL     1     111.180 127.076 138.587  0.00  0.00    +0.000 C 
ENDROOT
BRANCH   4   9
ATOM      9  O   UNL     1     110.017 126.410 139.081  0.00  0.00    +0.000 OA
BRANCH   9  14
ATOM     10  O   UNL     1     109.687 127.416 140.041  0.00  0.00    +0.000 OA
ATOM     11  O   UNL     1     109.435 125.248 140.099  0.00  0.00    +0.000 OA
ATOM     12  O   UNL     1     108.813 125.674 141.567  0.00  0.00    +0.000 OA
ATOM     13  O   UNL     1     108.774 127.261 142.017  0.00  0.00    +0.000 OA
ATOM     14  C   UNL     1     109.706 126.622 139.815  0.00  0.00    +0.000 C 
ATOM     15  C   UNL     1     109.415 126.042 140.325  0.00  0.00    +0.000 C 
ATOM     16  C   UNL     1     109.104 126.254 141.059  0.00  0.00    +0.000 C 
ATOM     17  C   UNL     1     109.085 127.048 141.283  0.00  0.00    +0.000 C 
ATOM     18  C   UNL     1     109.376 127.628 140.775  0.00  0.00    +0.000 C 
ATOM     19  C   UNL     1     109.357 128.422 141.000  0.00  0.00    +0.000 C 
ENDBRANCH   9  14
ENDBRANCH   4   9
BRANCH   8  20
ATOM     20  O   UNL     1     111.657 126.596 139.060  0.00  0.00    +0.000 OA
BRANCH  20  25
ATOM     21  O   UNL     1     113.793 126.188 138.885  0.00  0.00    +0.000 OA
ATOM     22  O   UNL     1     111.692 125.712 137.667  0.00  0.00    +0.000 OA
ATOM     23  O   UNL     1     112.410 124.974 136.657  0.00  0.00    +0.000 OA
ATOM     24  O   UNL     1     115.310 124.713 136.884  0.00  0.00    +0.000 OA
ATOM     25  C   UNL     1     112.375 126.313 138.769  0.00  0.00    +0.000 A 
ATOM     26  C   UNL     1     113.075 126.472 139.176  0.00  0.00    +0.000 A 
ATOM     27  C   UNL     1     112.392 125.871 138.073  0.00  0.00    +0.000 A 
ATOM     28  C   UNL     1     113.110 125.588 137.783  0.00  0.00    +0.000 A 
ATOM     29  C   UNL     1     113.811 125.746 138.188  0.00  0.00    +0.000 A 
ATOM     30  C   UNL     1     113.116 125.128 137.056  0.00  0.00    +0.000 A 
ATOM     31  C   UNL     1     114.565 125.456 137.896  0.00  0.00    +0.000 A 
ATOM     32  C   UNL     1     113.861 124.830 136.748  0.00  0.00    +0.000 A 
ATOM     33  C   UNL     1     114.590 124.995 137.172  0.00  0.00    +0.000 A 
BRANCH  26  35
ATOM     34  O   UNL     1     113.005 128.239 141.962  0.00  0.00    +0.000 OA
ATOM     35  C   UNL     1     113.058 126.913 139.871  0.00  0.00    +0.000 A 
ATOM     36  C   UNL     1     113.230 127.720 139.853  0.00  0.00    +0.000 A 
ATOM     37  C   UNL     1     112.868 126.549 140.587  0.00  0.00    +0.000 A 
ATOM     38  C   UNL     1     113.213 128.162 140.549  0.00  0.00    +0.000 A 
ATOM     39  C   UNL     1     112.850 126.991 141.284  0.00  0.00    +0.000 A 
ATOM     40  C   UNL     1     113.023 127.797 141.264  0.00  0.00    +0.000 A 
BRANCH  38  41
ATOM     41  O   UNL     1     113.386 128.969 140.531  0.00  0.00    +0.000 OA
ATOM     42  C   UNL     1     114.121 129.226 140.262  0.00  0.00    +0.000 C 
ENDBRANCH  38  41
ENDBRANCH  26  35
ENDBRANCH  20  25
ENDBRANCH   8  20
BRANCH   7  43
ATOM     43  C   UNL     1     111.391 128.701 137.145  0.00  0.00    +0.000 C 
BRANCH  43  44
ATOM     44  O   UNL     1     111.863 129.291 137.476  0.00  0.00    +0.000 OA
BRANCH  44  49
ATOM     45  O   UNL     1     112.939 129.129 136.551  0.00  0.00    +0.000 OA
ATOM     46  O   UNL     1     112.201 130.902 137.588  0.00  0.00    +0.000 OA
ATOM     47  O   UNL     1     113.447 131.546 136.718  0.00  0.00    +0.000 OA
ATOM     48  O   UNL     1     114.355 130.579 135.737  0.00  0.00    +0.000 OA
ATOM     49  C   UNL     1     112.486 129.614 137.041  0.00  0.00    +0.000 C 
ATOM     50  C   UNL     1     112.655 130.419 137.097  0.00  0.00    +0.000 C 
ATOM     51  C   UNL     1     113.278 130.741 136.662  0.00  0.00    +0.000 C 
ATOM     52  C   UNL     1     113.731 130.257 136.172  0.00  0.00    +0.000 C 
ATOM     53  C   UNL     1     113.562 129.452 136.116  0.00  0.00    +0.000 C 
ATOM     54  C   UNL     1     114.016 128.968 135.625  0.00  0.00    +0.000 C 
ENDBRANCH  44  49
ENDBRANCH  43  44
ENDBRANCH   7  43
TORSDOF 9
ENDMDL
MODEL 6
REMARK VINA RESULT:     -10.5      1.859      5.572
REMARK  Name = 44566503
REMARK  9 active torsions:
REMARK  status: ('A' for Active; 'I' for Inactive)
REMARK    1  A    between atoms: O_1  and  C_21
REMARK    2  A    between atoms: O_1  and  C_26
REMARK    3  A    between atoms: O_4  and  C_29
REMARK    4  A    between atoms: O_4  and  C_32
REMARK    5  A    between atoms: O_6  and  C_25
REMARK    6  A    between atoms: O_6  and  C_39
REMARK    7  A    between atoms: O_19  and  C_51
REMARK    8  A    between atoms: C_24  and  C_29
REMARK    9  A    between atoms: C_40  and  C_43
REMARK                            x       y       z     vdW  Elec       q    Type
REMARK                         _______ _______ _______ _____ _____    ______ ____
ROOT
ATOM      1  O   UNL     1     111.304 127.926 138.263  0.00  0.00    +0.000 OA
ATOM      2  O   UNL     1     111.395 125.546 138.935  0.00  0.00    +0.000 OA
ATOM      3  O   UNL     1     111.077 126.709 140.061  0.00  0.00    +0.000 OA
ATOM      4  C   UNL     1     111.493 126.551 137.923  0.00  0.00    +0.000 C 
ATOM      5  C   UNL     1     111.364 126.339 138.711  0.00  0.00    +0.000 C 
ATOM      6  C   UNL     1     111.206 126.920 139.274  0.00  0.00    +0.000 C 
ATOM      7  C   UNL     1     111.176 127.714 139.050  0.00  0.00    +0.000 C 
ATOM      8  C   UNL     1     111.463 127.344 137.700  0.00  0.00    +0.000 C 
ENDROOT
BRANCH   4   9
ATOM      9  O   UNL     1     111.651 125.969 137.361  0.00  0.00    +0.000 OA
BRANCH   9  14
ATOM     10  O   UNL     1     113.013 125.917 137.791  0.00  0.00    +0.000 OA
ATOM     11  O   UNL     1     111.920 124.688 136.356  0.00  0.00    +0.000 OA
ATOM     12  O   UNL     1     113.416 123.995 136.285  0.00  0.00    +0.000 OA
ATOM     13  O   UNL     1     114.643 124.584 137.218  0.00  0.00    +0.000 OA
ATOM     14  C   UNL     1     112.399 125.623 137.325  0.00  0.00    +0.000 C 
ATOM     15  C   UNL     1     112.534 124.982 136.823  0.00  0.00    +0.000 C 
ATOM     16  C   UNL     1     113.282 124.635 136.787  0.00  0.00    +0.000 C 
ATOM     17  C   UNL     1     113.895 124.930 137.254  0.00  0.00    +0.000 C 
ATOM     18  C   UNL     1     113.761 125.570 137.755  0.00  0.00    +0.000 C 
ATOM     19  C   UNL     1     114.374 125.865 138.222  0.00  0.00    +0.000 C 
ENDBRANCH   9  14
ENDBRANCH   4   9
BRANCH   8  20
ATOM     20  O   UNL     1     111.591 127.556 136.913  0.00  0.00    +0.000 OA
BRANCH  20  25
ATOM     21  O   UNL     1     111.034 129.385 135.859  0.00  0.00    +0.000 OA
ATOM     22  O   UNL     1     109.945 127.436 136.928  0.00  0.00    +0.000 OA
ATOM     23  O   UNL     1     108.638 127.948 136.596  0.00  0.00    +0.000 OA
ATOM     24  O   UNL     1     108.429 130.479 135.154  0.00  0.00    +0.000 OA
ATOM     25  C   UNL     1     111.131 128.146 136.564  0.00  0.00    +0.000 A 
ATOM     26  C   UNL     1     111.494 128.795 136.208  0.00  0.00    +0.000 A 
ATOM     27  C   UNL     1     110.309 128.085 136.572  0.00  0.00    +0.000 A 
ATOM     28  C   UNL     1     109.849 128.675 136.223  0.00  0.00    +0.000 A 
ATOM     29  C   UNL     1     110.211 129.324 135.866  0.00  0.00    +0.000 A 
ATOM     30  C   UNL     1     108.992 128.601 136.237  0.00  0.00    +0.000 A 
ATOM     31  C   UNL     1     109.743 129.945 135.499  0.00  0.00    +0.000 A 
ATOM     32  C   UNL     1     108.507 129.211 135.875  0.00  0.00    +0.000 A 
ATOM     33  C   UNL     1     108.886 129.888 135.504  0.00  0.00    +0.000 A 
BRANCH  26  35
ATOM     34  O   UNL     1     114.786 129.036 136.176  0.00  0.00    +0.000 OA
ATOM     35  C   UNL     1     112.316 128.856 136.200  0.00  0.00    +0.000 A 
ATOM     36  C   UNL     1     112.702 129.326 136.758  0.00  0.00    +0.000 A 
ATOM     37  C   UNL     1     112.755 128.445 135.634  0.00  0.00    +0.000 A 
ATOM     38  C   UNL     1     113.524 129.386 136.750  0.00  0.00    +0.000 A 
ATOM     39  C   UNL     1     113.578 128.505 135.626  0.00  0.00    +0.000 A 
ATOM     40  C   UNL     1     113.962 128.976 136.184  0.00  0.00    +0.000 A 
BRANCH  38  41
ATOM     41  O   UNL     1     113.909 129.857 137.308  0.00  0.00    +0.000 OA
ATOM     42  C   UNL     1     113.650 130.628 137.445  0.00  0.00    +0.000 C 
ENDBRANCH  38  41
ENDBRANCH  26  35
ENDBRANCH  20  25
ENDBRANCH   8  20
BRANCH   7  43
ATOM     43  C   UNL     1     111.017 128.296 139.613  0.00  0.00    +0.000 C 
BRANCH  43  44
ATOM     44  O   UNL     1     111.542 128.924 139.716  0.00  0.00    +0.000 OA
BRANCH  44  49
ATOM     45  O   UNL     1     110.533 129.892 140.006  0.00  0.00    +0.000 OA
ATOM     46  O   UNL     1     112.585 129.708 140.727  0.00  0.00    +0.000 OA
ATOM     47  O   UNL     1     112.097 131.068 141.522  0.00  0.00    +0.000 OA
ATOM     48  O   UNL     1     110.566 131.645 141.307  0.00  0.00    +0.000 OA
ATOM     49  C   UNL     1     111.298 129.605 140.114  0.00  0.00    +0.000 C 
ATOM     50  C   UNL     1     111.819 129.997 140.620  0.00  0.00    +0.000 C 
ATOM     51  C   UNL     1     111.575 130.676 141.017  0.00  0.00    +0.000 C 
ATOM     52  C   UNL     1     110.811 130.965 140.909  0.00  0.00    +0.000 C 
ATOM     53  C   UNL     1     110.289 130.573 140.404  0.00  0.00    +0.000 C 
ATOM     54  C   UNL     1     109.523 130.861 140.296  0.00  0.00    +0.000 C 
ENDBRANCH  44  49
ENDBRANCH  43  44
ENDBRANCH   7  43
TORSDOF 9
ENDMDL
MODEL 7
REMARK VINA RESULT:     -10.5      1.600      5.290
REMARK  Name = 44566503
REMARK  9 active torsions:
REMARK  status: ('A' for Active; 'I' for Inactive)
REMARK    1  A    between atoms: O_1  and  C_21
REMARK    2  A    between atoms: O_1  and  C_26
REMARK    3  A    between atoms: O_4  and  C_29
REMARK    4  A    between atoms: O_4  and  C_32
REMARK    5  A    between atoms: O_6  and  C_25
REMARK    6  A    between atoms: O_6  and  C_39
REMARK    7  A    between atoms: O_19  and  C_51
REMARK    8  A    between atoms: C_24  and  C_29
REMARK    9  A    between atoms: C_40  and  C_43
REMARK                            x       y       z     vdW  Elec       q    Type
REMARK                         _______ _______ _______ _____ _____    ______ ____
ROOT
ATOM      1  O   UNL     1     111.979 128.905 138.286  0.00  0.00    +0.000 OA
ATOM      2  O   UNL     1     112.457 127.672 136.194  0.00  0.00    +0.000 OA
ATOM      3  O   UNL     1     111.445 128.975 136.171  0.00  0.00    +0.000 OA
ATOM      4  C   UNL     1     112.645 127.842 137.600  0.00  0.00    +0.000 C 
ATOM      5  C   UNL     1     112.298 128.083 136.891  0.00  0.00    +0.000 C 
ATOM      6  C   UNL     1     111.792 128.734 136.880  0.00  0.00    +0.000 C 
ATOM      7  C   UNL     1     111.633 129.145 137.577  0.00  0.00    +0.000 C 
ATOM      8  C   UNL     1     112.486 128.253 138.298  0.00  0.00    +0.000 C 
ENDROOT
BRANCH   4   9
ATOM      9  O   UNL     1     113.151 127.191 137.612  0.00  0.00    +0.000 OA
BRANCH   9  14
ATOM     10  O   UNL     1     112.028 126.307 137.640  0.00  0.00    +0.000 OA
ATOM     11  O   UNL     1     114.157 125.905 137.376  0.00  0.00    +0.000 OA
ATOM     12  O   UNL     1     113.538 124.379 137.286  0.00  0.00    +0.000 OA
ATOM     13  O   UNL     1     111.912 124.138 137.431  0.00  0.00    +0.000 OA
ATOM     14  C   UNL     1     112.841 126.428 137.567  0.00  0.00    +0.000 C 
ATOM     15  C   UNL     1     113.345 125.784 137.449  0.00  0.00    +0.000 C 
ATOM     16  C   UNL     1     113.035 125.021 137.404  0.00  0.00    +0.000 C 
ATOM     17  C   UNL     1     112.222 124.901 137.477  0.00  0.00    +0.000 C 
ATOM     18  C   UNL     1     111.719 125.543 137.594  0.00  0.00    +0.000 C 
ATOM     19  C   UNL     1     110.906 125.423 137.667  0.00  0.00    +0.000 C 
ENDBRANCH   9  14
ENDBRANCH   4   9
BRANCH   8  20
ATOM     20  O   UNL     1     112.832 128.014 139.007  0.00  0.00    +0.000 OA
BRANCH  20  25
ATOM     21  O   UNL     1     113.128 129.099 140.877  0.00  0.00    +0.000 OA
ATOM     22  O   UNL     1     113.840 129.222 138.510  0.00  0.00    +0.000 OA
ATOM     23  O   UNL     1     114.626 130.402 138.777  0.00  0.00    +0.000 OA
ATOM     24  O   UNL     1     114.693 131.477 141.491  0.00  0.00    +0.000 OA
ATOM     25  C   UNL     1     113.099 128.577 139.547  0.00  0.00    +0.000 A 
ATOM     26  C   UNL     1     112.861 128.535 140.336  0.00  0.00    +0.000 A 
ATOM     27  C   UNL     1     113.603 129.180 139.299  0.00  0.00    +0.000 A 
ATOM     28  C   UNL     1     113.869 129.744 139.839  0.00  0.00    +0.000 A 
ATOM     29  C   UNL     1     113.632 129.703 140.629  0.00  0.00    +0.000 A 
ATOM     30  C   UNL     1     114.394 130.369 139.569  0.00  0.00    +0.000 A 
ATOM     31  C   UNL     1     113.903 130.284 141.201  0.00  0.00    +0.000 A 
ATOM     32  C   UNL     1     114.675 130.958 140.127  0.00  0.00    +0.000 A 
ATOM     33  C   UNL     1     114.428 130.915 140.949  0.00  0.00    +0.000 A 
BRANCH  26  35
ATOM     34  O   UNL     1     110.846 126.119 141.331  0.00  0.00    +0.000 OA
ATOM     35  C   UNL     1     112.358 127.932 140.585  0.00  0.00    +0.000 A 
ATOM     36  C   UNL     1     111.546 128.069 140.644  0.00  0.00    +0.000 A 
ATOM     37  C   UNL     1     112.665 127.190 140.775  0.00  0.00    +0.000 A 
ATOM     38  C   UNL     1     111.042 127.465 140.892  0.00  0.00    +0.000 A 
ATOM     39  C   UNL     1     112.161 126.586 141.024  0.00  0.00    +0.000 A 
ATOM     40  C   UNL     1     111.350 126.724 141.082  0.00  0.00    +0.000 A 
BRANCH  38  41
ATOM     41  O   UNL     1     110.231 127.602 140.951  0.00  0.00    +0.000 OA
ATOM     42  C   UNL     1     109.951 128.223 141.417  0.00  0.00    +0.000 C 
ENDBRANCH  38  41
ENDBRANCH  26  35
ENDBRANCH  20  25
ENDBRANCH   8  20
BRANCH   7  43
ATOM     43  C   UNL     1     111.126 129.797 137.565  0.00  0.00    +0.000 C 
BRANCH  43  44
ATOM     44  O   UNL     1     110.523 129.859 138.124  0.00  0.00    +0.000 OA
BRANCH  44  49
ATOM     45  O   UNL     1     110.405 131.273 137.949  0.00  0.00    +0.000 OA
ATOM     46  O   UNL     1     108.963 129.796 138.659  0.00  0.00    +0.000 OA
ATOM     47  O   UNL     1     108.066 131.178 138.751  0.00  0.00    +0.000 OA
ATOM     48  O   UNL     1     108.728 132.623 138.308  0.00  0.00    +0.000 OA
ATOM     49  C   UNL     1     110.074 130.551 138.170  0.00  0.00    +0.000 C 
ATOM     50  C   UNL     1     109.294 130.519 138.438  0.00  0.00    +0.000 C 
ATOM     51  C   UNL     1     108.846 131.210 138.483  0.00  0.00    +0.000 C 
ATOM     52  C   UNL     1     109.177 131.932 138.262  0.00  0.00    +0.000 C 
ATOM     53  C   UNL     1     109.956 131.963 137.995  0.00  0.00    +0.000 C 
ATOM     54  C   UNL     1     110.288 132.686 137.773  0.00  0.00    +0.000 C 
ENDBRANCH  44  49
ENDBRANCH  43  44
ENDBRANCH   7  43
TORSDOF 9
ENDMDL
MODEL 8
REMARK VINA RESULT:     -10.5      1.456      4.949
REMARK  Name = 44566503
REMARK  9 active torsions:
REMARK  status: ('A' for Active; 'I' for Inactive)
REMARK    1  A    between atoms: O_1  and  C_21
REMARK    2  A    between atoms: O_1  and  C_26
REMARK    3  A    between atoms: O_4  and  C_29
REMARK    4  A    between atoms: O_4  and  C_32
REMARK    5  A    between atoms: O_6  and  C_25
REMARK    6  A    between atoms: O_6  and  C_39
REMARK    7  A    between atoms: O_19  and  C_51
REMARK    8  A    between atoms: C_24  and  C_29
REMARK    9  A    between atoms: C_40  and  C_43
REMARK                            x       y       z     vdW  Elec       q    Type
REMARK                         _______ _______ _______ _____ _____    ______ ____
ROOT
ATOM      1  O   UNL     1     111.546 129.529 137.794  0.00  0.00    +0.000 OA
ATOM      2  O   UNL     1     111.472 129.794 140.253  0.00  0.00    +0.000 OA
ATOM      3  O   UNL     1     110.414 130.629 139.301  0.00  0.00    +0.000 OA
ATOM      4  C   UNL     1     112.050 129.199 139.090  0.00  0.00    +0.000 C 
ATOM      5  C   UNL     1     111.496 129.706 139.433  0.00  0.00    +0.000 C 
ATOM      6  C   UNL     1     110.968 130.123 138.958  0.00  0.00    +0.000 C 
ATOM      7  C   UNL     1     110.993 130.034 138.138  0.00  0.00    +0.000 C 
ATOM      8  C   UNL     1     112.075 129.111 138.270  0.00  0.00    +0.000 C 
ENDROOT
BRANCH   4   9
ATOM      9  O   UNL     1     112.579 128.782 139.566  0.00  0.00    +0.000 OA
BRANCH   9  14
ATOM     10  O   UNL     1     111.604 127.759 139.776  0.00  0.00    +0.000 OA
ATOM     11  O   UNL     1     113.527 128.120 140.743  0.00  0.00    +0.000 OA
ATOM     12  O   UNL     1     113.026 126.766 141.541  0.00  0.00    +0.000 OA
ATOM     13  O   UNL     1     111.577 126.074 141.163  0.00  0.00    +0.000 OA
ATOM     14  C   UNL     1     112.328 128.105 139.965  0.00  0.00    +0.000 C 
ATOM     15  C   UNL     1     112.803 127.774 140.554  0.00  0.00    +0.000 C 
ATOM     16  C   UNL     1     112.552 127.097 140.953  0.00  0.00    +0.000 C 
ATOM     17  C   UNL     1     111.827 126.751 140.763  0.00  0.00    +0.000 C 
ATOM     18  C   UNL     1     111.353 127.082 140.175  0.00  0.00    +0.000 C 
ATOM     19  C   UNL     1     110.628 126.736 139.986  0.00  0.00    +0.000 C 
ENDBRANCH   9  14
ENDBRANCH   4   9
BRANCH   8  20
ATOM     20  O   UNL     1     112.629 128.605 137.926  0.00  0.00    +0.000 OA
BRANCH  20  25
ATOM     21  O   UNL     1     113.510 128.630 135.930  0.00  0.00    +0.000 OA
ATOM     22  O   UNL     1     113.452 130.035 137.967  0.00  0.00    +0.000 OA
ATOM     23  O   UNL     1     114.302 131.021 137.346  0.00  0.00    +0.000 OA
ATOM     24  O   UNL     1     115.228 130.577 134.612  0.00  0.00    +0.000 OA
ATOM     25  C   UNL     1     113.060 128.852 137.267  0.00  0.00    +0.000 A 
ATOM     26  C   UNL     1     113.079 128.383 136.588  0.00  0.00    +0.000 A 
ATOM     27  C   UNL     1     113.471 129.566 137.288  0.00  0.00    +0.000 A 
ATOM     28  C   UNL     1     113.902 129.812 136.629  0.00  0.00    +0.000 A 
ATOM     29  C   UNL     1     113.922 129.345 135.950  0.00  0.00    +0.000 A 
ATOM     30  C   UNL     1     114.327 130.559 136.662  0.00  0.00    +0.000 A 
ATOM     31  C   UNL     1     114.368 129.591 135.258  0.00  0.00    +0.000 A 
ATOM     32  C   UNL     1     114.778 130.822 135.980  0.00  0.00    +0.000 A 
ATOM     33  C   UNL     1     114.798 130.333 135.272  0.00  0.00    +0.000 A 
BRANCH  26  35
ATOM     34  O   UNL     1     111.434 125.524 136.507  0.00  0.00    +0.000 OA
ATOM     35  C   UNL     1     112.668 127.669 136.568  0.00  0.00    +0.000 A 
ATOM     36  C   UNL     1     111.916 127.634 136.229  0.00  0.00    +0.000 A 
ATOM     37  C   UNL     1     113.008 126.988 136.887  0.00  0.00    +0.000 A 
ATOM     38  C   UNL     1     111.505 126.920 136.208  0.00  0.00    +0.000 A 
ATOM     39  C   UNL     1     112.596 126.273 136.867  0.00  0.00    +0.000 A 
ATOM     40  C   UNL     1     111.845 126.239 136.527  0.00  0.00    +0.000 A 
BRANCH  38  41
ATOM     41  O   UNL     1     110.754 126.885 135.869  0.00  0.00    +0.000 OA
ATOM     42  C   UNL     1     110.632 127.177 135.107  0.00  0.00    +0.000 C 
ENDBRANCH  38  41
ENDBRANCH  26  35
ENDBRANCH  20  25
ENDBRANCH   8  20
BRANCH   7  43
ATOM     43  C   UNL     1     110.464 130.452 137.661  0.00  0.00    +0.000 C 
BRANCH  43  44
ATOM     44  O   UNL     1     109.995 130.049 137.115  0.00  0.00    +0.000 OA
BRANCH  44  49
ATOM     45  O   UNL     1     109.655 131.232 136.390  0.00  0.00    +0.000 OA
ATOM     46  O   UNL     1     108.573 129.354 136.648  0.00  0.00    +0.000 OA
ATOM     47  O   UNL     1     107.523 130.191 135.688  0.00  0.00    +0.000 OA
ATOM     48  O   UNL     1     107.894 131.721 135.196  0.00  0.00    +0.000 OA
ATOM     49  C   UNL     1     109.469 130.467 136.635  0.00  0.00    +0.000 C 
ATOM     50  C   UNL     1     108.758 130.120 136.401  0.00  0.00    +0.000 C 
ATOM     51  C   UNL     1     108.233 130.538 135.922  0.00  0.00    +0.000 C 
ATOM     52  C   UNL     1     108.419 131.302 135.676  0.00  0.00    +0.000 C 
ATOM     53  C   UNL     1     109.130 131.650 135.910  0.00  0.00    +0.000 C 
ATOM     54  C   UNL     1     109.316 132.416 135.664  0.00  0.00    +0.000 C 
ENDBRANCH  44  49
ENDBRANCH  43  44
ENDBRANCH   7  43
TORSDOF 9
ENDMDL
MODEL 9
REMARK VINA RESULT:     -10.4      1.788      3.269
REMARK  Name = 44566503
REMARK  9 active torsions:
REMARK  status: ('A' for Active; 'I' for Inactive)
REMARK    1  A    between atoms: O_1  and  C_21
REMARK    2  A    between atoms: O_1  and  C_26
REMARK    3  A    between atoms: O_4  and  C_29
REMARK    4  A    between atoms: O_4  and  C_32
REMARK    5  A    between atoms: O_6  and  C_25
REMARK    6  A    between atoms: O_6  and  C_39
REMARK    7  A    between atoms: O_19  and  C_51
REMARK    8  A    between atoms: C_24  and  C_29
REMARK    9  A    between atoms: C_40  and  C_43
REMARK                            x       y       z     vdW  Elec       q    Type
REMARK                         _______ _______ _______ _____ _____    ______ ____
ROOT
ATOM      1  O   UNL     1     111.993 128.659 137.027  0.00  0.00    +0.000 OA
ATOM      2  O   UNL     1     111.292 129.647 134.868  0.00  0.00    +0.000 OA
ATOM      3  O   UNL     1     112.138 128.230 134.891  0.00  0.00    +0.000 OA
ATOM      4  C   UNL     1     111.336 129.697 136.295  0.00  0.00    +0.000 C 
ATOM      5  C   UNL     1     111.525 129.317 135.588  0.00  0.00    +0.000 C 
ATOM      6  C   UNL     1     111.948 128.610 135.599  0.00  0.00    +0.000 C 
ATOM      7  C   UNL     1     112.182 128.281 136.318  0.00  0.00    +0.000 C 
ATOM      8  C   UNL     1     111.570 129.368 137.015  0.00  0.00    +0.000 C 
ENDROOT
BRANCH   4   9
ATOM      9  O   UNL     1     110.913 130.405 136.284  0.00  0.00    +0.000 OA
BRANCH   9  14
ATOM     10  O   UNL     1     109.696 129.675 136.115  0.00  0.00    +0.000 OA
ATOM     11  O   UNL     1     110.069 131.822 136.243  0.00  0.00    +0.000 OA
ATOM     12  O   UNL     1     108.430 131.800 136.053  0.00  0.00    +0.000 OA
ATOM     13  O   UNL     1     107.635 130.362 135.904  0.00  0.00    +0.000 OA
ATOM     14  C   UNL     1     110.094 130.394 136.189  0.00  0.00    +0.000 C 
ATOM     15  C   UNL     1     109.671 131.103 136.169  0.00  0.00    +0.000 C 
ATOM     16  C   UNL     1     108.851 131.092 136.074  0.00  0.00    +0.000 C 
ATOM     17  C   UNL     1     108.455 130.372 135.999  0.00  0.00    +0.000 C 
ATOM     18  C   UNL     1     108.876 129.664 136.020  0.00  0.00    +0.000 C 
ATOM     19  C   UNL     1     108.480 128.945 135.945  0.00  0.00    +0.000 C 
ENDBRANCH   9  14
ENDBRANCH   4   9
BRANCH   8  20
ATOM     20  O   UNL     1     111.381 129.746 137.723  0.00  0.00    +0.000 OA
BRANCH  20  25
ATOM     21  O   UNL     1     112.325 129.555 139.681  0.00  0.00    +0.000 OA
ATOM     22  O   UNL     1     112.852 130.432 137.428  0.00  0.00    +0.000 OA
ATOM     23  O   UNL     1     114.166 130.839 137.862  0.00  0.00    +0.000 OA
ATOM     24  O   UNL     1     114.962 130.350 140.628  0.00  0.00    +0.000 OA
ATOM     25  C   UNL     1     111.941 129.797 138.327  0.00  0.00    +0.000 A 
ATOM     26  C   UNL     1     111.765 129.504 139.078  0.00  0.00    +0.000 A 
ATOM     27  C   UNL     1     112.676 130.139 138.179  0.00  0.00    +0.000 A 
ATOM     28  C   UNL     1     113.236 130.190 138.782  0.00  0.00    +0.000 A 
ATOM     29  C   UNL     1     113.061 129.898 139.534  0.00  0.00    +0.000 A 
ATOM     30  C   UNL     1     114.000 130.549 138.616  0.00  0.00    +0.000 A 
ATOM     31  C   UNL     1     113.636 129.945 140.170  0.00  0.00    +0.000 A 
ATOM     32  C   UNL     1     114.587 130.605 139.240  0.00  0.00    +0.000 A 
ATOM     33  C   UNL     1     114.403 130.300 140.023  0.00  0.00    +0.000 A 
BRANCH  26  35
ATOM     34  O   UNL     1     108.822 128.132 139.669  0.00  0.00    +0.000 OA
ATOM     35  C   UNL     1     111.029 129.162 139.226  0.00  0.00    +0.000 A 
ATOM     36  C   UNL     1     110.371 129.640 139.364  0.00  0.00    +0.000 A 
ATOM     37  C   UNL     1     110.952 128.341 139.235  0.00  0.00    +0.000 A 
ATOM     38  C   UNL     1     109.636 129.297 139.512  0.00  0.00    +0.000 A 
ATOM     39  C   UNL     1     110.215 127.997 139.383  0.00  0.00    +0.000 A 
ATOM     40  C   UNL     1     109.558 128.476 139.521  0.00  0.00    +0.000 A 
BRANCH  38  41
ATOM     41  O   UNL     1     108.977 129.775 139.650  0.00  0.00    +0.000 OA
ATOM     42  C   UNL     1     109.079 130.546 139.925  0.00  0.00    +0.000 C 
ENDBRANCH  38  41
ENDBRANCH  26  35
ENDBRANCH  20  25
ENDBRANCH   8  20
BRANCH   7  43
ATOM     43  C   UNL     1     112.605 127.572 136.330  0.00  0.00    +0.000 C 
BRANCH  43  44
ATOM     44  O   UNL     1     112.303 126.918 136.732  0.00  0.00    +0.000 OA
BRANCH  44  49
ATOM     45  O   UNL     1     113.543 126.222 136.590  0.00  0.00    +0.000 OA
ATOM     46  O   UNL     1     111.555 125.503 137.133  0.00  0.00    +0.000 OA
ATOM     47  O   UNL     1     112.421 124.100 137.192  0.00  0.00    +0.000 OA
ATOM     48  O   UNL     1     114.035 124.112 136.850  0.00  0.00    +0.000 OA
ATOM     49  C   UNL     1     112.736 126.216 136.761  0.00  0.00    +0.000 C 
ATOM     50  C   UNL     1     112.362 125.508 136.962  0.00  0.00    +0.000 C 
ATOM     51  C   UNL     1     112.795 124.807 136.992  0.00  0.00    +0.000 C 
ATOM     52  C   UNL     1     113.601 124.813 136.821  0.00  0.00    +0.000 C 
ATOM     53  C   UNL     1     113.975 125.521 136.620  0.00  0.00    +0.000 C 
ATOM     54  C   UNL     1     114.783 125.527 136.449  0.00  0.00    +0.000 C 
ENDBRANCH  44  49
ENDBRANCH  43  44
ENDBRANCH   7  43
TORSDOF 9
ENDMDL
MODEL 10
REMARK VINA RESULT:     -10.4      1.315      3.688
REMARK  Name = 44566503
REMARK  9 active torsions:
REMARK  status: ('A' for Active; 'I' for Inactive)
REMARK    1  A    between atoms: O_1  and  C_21
REMARK    2  A    between atoms: O_1  and  C_26
REMARK    3  A    between atoms: O_4  and  C_29
REMARK    4  A    between atoms: O_4  and  C_32
REMARK    5  A    between atoms: O_6  and  C_25
REMARK    6  A    between atoms: O_6  and  C_39
REMARK    7  A    between atoms: O_19  and  C_51
REMARK    8  A    between atoms: C_24  and  C_29
REMARK    9  A    between atoms: C_40  and  C_43
REMARK                            x       y       z     vdW  Elec       q    Type
REMARK                         _______ _______ _______ _____ _____    ______ ____
ROOT
ATOM      1  O   UNL     1     111.164 128.440 138.151  0.00  0.00    +0.000 OA
ATOM      2  O   UNL     1     109.038 129.628 138.595  0.00  0.00    +0.000 OA
ATOM      3  O   UNL     1     110.169 129.485 139.788  0.00  0.00    +0.000 OA
ATOM      4  C   UNL     1     109.890 128.908 137.702  0.00  0.00    +0.000 C 
ATOM      5  C   UNL     1     109.747 129.232 138.447  0.00  0.00    +0.000 C 
ATOM      6  C   UNL     1     110.312 129.161 139.043  0.00  0.00    +0.000 C 
ATOM      7  C   UNL     1     111.020 128.765 138.895  0.00  0.00    +0.000 C 
ATOM      8  C   UNL     1     110.598 128.512 137.553  0.00  0.00    +0.000 C 
ENDROOT
BRANCH   4   9
ATOM      9  O   UNL     1     109.325 128.979 137.105  0.00  0.00    +0.000 OA
BRANCH   9  14
ATOM     10  O   UNL     1     109.755 130.318 136.852  0.00  0.00    +0.000 OA
ATOM     11  O   UNL     1     108.086 129.174 136.033  0.00  0.00    +0.000 OA
ATOM     12  O   UNL     1     107.897 130.611 135.244  0.00  0.00    +0.000 OA
ATOM     13  O   UNL     1     108.947 131.852 135.527  0.00  0.00    +0.000 OA
ATOM     14  C   UNL     1     109.230 129.697 136.711  0.00  0.00    +0.000 C 
ATOM     15  C   UNL     1     108.611 129.795 136.174  0.00  0.00    +0.000 C 
ATOM     16  C   UNL     1     108.516 130.513 135.779  0.00  0.00    +0.000 C 
ATOM     17  C   UNL     1     109.041 131.134 135.921  0.00  0.00    +0.000 C 
ATOM     18  C   UNL     1     109.660 131.036 136.457  0.00  0.00    +0.000 C 
ATOM     19  C   UNL     1     110.186 131.657 136.599  0.00  0.00    +0.000 C 
ENDBRANCH   9  14
ENDBRANCH   4   9
BRANCH   8  20
ATOM     20  O   UNL     1     110.742 128.187 136.809  0.00  0.00    +0.000 OA
BRANCH  20  25
ATOM     21  O   UNL     1     112.222 126.704 136.198  0.00  0.00    +0.000 OA
ATOM     22  O   UNL     1     110.207 126.858 137.627  0.00  0.00    +0.000 OA
ATOM     23  O   UNL     1     110.321 125.466 137.989  0.00  0.00    +0.000 OA
ATOM     24  O   UNL     1     112.516 123.889 136.883  0.00  0.00    +0.000 OA
ATOM     25  C   UNL     1     111.146 127.471 136.742  0.00  0.00    +0.000 A 
ATOM     26  C   UNL     1     111.818 127.420 136.265  0.00  0.00    +0.000 A 
ATOM     27  C   UNL     1     110.878 126.807 137.151  0.00  0.00    +0.000 A 
ATOM     28  C   UNL     1     111.283 126.091 137.083  0.00  0.00    +0.000 A 
ATOM     29  C   UNL     1     111.954 126.039 136.607  0.00  0.00    +0.000 A 
ATOM     30  C   UNL     1     110.994 125.405 137.514  0.00  0.00    +0.000 A 
ATOM     31  C   UNL     1     112.384 125.299 136.529  0.00  0.00    +0.000 A 
ATOM     32  C   UNL     1     111.410 124.656 137.449  0.00  0.00    +0.000 A 
ATOM     33  C   UNL     1     112.110 124.603 136.952  0.00  0.00    +0.000 A 
BRANCH  26  35
ATOM     34  O   UNL     1     112.888 130.078 134.628  0.00  0.00    +0.000 OA
ATOM     35  C   UNL     1     112.085 128.084 135.857  0.00  0.00    +0.000 A 
ATOM     36  C   UNL     1     112.680 128.556 136.179  0.00  0.00    +0.000 A 
ATOM     37  C   UNL     1     111.759 128.277 135.124  0.00  0.00    +0.000 A 
ATOM     38  C   UNL     1     112.948 129.220 135.771  0.00  0.00    +0.000 A 
ATOM     39  C   UNL     1     112.026 128.942 134.714  0.00  0.00    +0.000 A 
ATOM     40  C   UNL     1     112.621 129.413 135.038  0.00  0.00    +0.000 A 
BRANCH  38  41
ATOM     41  O   UNL     1     113.542 129.693 136.094  0.00  0.00    +0.000 OA
ATOM     42  C   UNL     1     114.229 129.345 136.390  0.00  0.00    +0.000 C 
ENDBRANCH  38  41
ENDBRANCH  26  35
ENDBRANCH  20  25
ENDBRANCH   8  20
BRANCH   7  43
ATOM     43  C   UNL     1     111.586 128.693 139.492  0.00  0.00    +0.000 C 
BRANCH  43  44
ATOM     44  O   UNL     1     112.356 128.960 139.364  0.00  0.00    +0.000 OA
BRANCH  44  49
ATOM     45  O   UNL     1     113.013 127.803 139.886  0.00  0.00    +0.000 OA
ATOM     46  O   UNL     1     113.551 129.917 139.979  0.00  0.00    +0.000 OA
ATOM     47  O   UNL     1     114.805 129.239 140.809  0.00  0.00    +0.000 OA
ATOM     48  O   UNL     1     114.865 127.604 141.024  0.00  0.00    +0.000 OA
ATOM     49  C   UNL     1     112.984 128.621 139.779  0.00  0.00    +0.000 C 
ATOM     50  C   UNL     1     113.581 129.099 140.087  0.00  0.00    +0.000 C 
ATOM     51  C   UNL     1     114.208 128.761 140.502  0.00  0.00    +0.000 C 
ATOM     52  C   UNL     1     114.238 127.944 140.609  0.00  0.00    +0.000 C 
ATOM     53  C   UNL     1     113.641 127.465 140.302  0.00  0.00    +0.000 C 
ATOM     54  C   UNL     1     113.670 126.647 140.409  0.00  0.00    +0.000 C 
ENDBRANCH  44  49
ENDBRANCH  43  44
ENDBRANCH   7  43
TORSDOF 9
ENDMDL
