MODEL 1
REMARK VINA RESULT:      -9.7      0.000      0.000
REMARK  Name = 44260051
REMARK  11 active torsions:
REMARK  status: ('A' for Active; 'I' for Inactive)
REMARK    1  A    between atoms: O_1  and  C_19
REMARK    2  A    between atoms: O_1  and  C_22
REMARK    3  A    between atoms: O_6  and  C_27
REMARK    4  A    between atoms: O_6  and  C_31
REMARK    5  A    between atoms: O_12  and  C_32
REMARK    6  A    between atoms: O_13  and  C_33
REMARK    7  A    between atoms: O_16  and  C_39
REMARK    8  A    between atoms: O_18  and  C_48
REMARK    9  A    between atoms: C_23  and  C_29
REMARK   10  A    between atoms: C_28  and  C_30
REMARK   11  A    between atoms: C_38  and  C_42
REMARK                            x       y       z     vdW  Elec       q    Type
REMARK                         _______ _______ _______ _____ _____    ______ ____
ROOT
ATOM      1  O   UNL     1     110.264 130.693 136.096  0.00  0.00    +0.000 OA
ATOM      2  O   UNL     1     112.614 131.609 137.517  0.00  0.00    +0.000 OA
ATOM      3  O   UNL     1     111.507 132.516 137.336  0.00  0.00    +0.000 OA
ATOM      4  C   UNL     1     112.162 129.678 136.604  0.00  0.00    +0.000 A 
ATOM      5  C   UNL     1     111.406 129.819 136.305  0.00  0.00    +0.000 A 
ATOM      6  C   UNL     1     112.564 130.274 137.007  0.00  0.00    +0.000 A 
ATOM      7  C   UNL     1     111.052 130.557 136.411  0.00  0.00    +0.000 A 
ATOM      8  C   UNL     1     112.211 131.012 137.113  0.00  0.00    +0.000 A 
ATOM      9  C   UNL     1     111.455 131.154 136.815  0.00  0.00    +0.000 A 
ATOM     10  C   UNL     1     111.097 131.926 136.931  0.00  0.00    +0.000 A 
ATOM     11  C   UNL     1     109.891 131.459 136.203  0.00  0.00    +0.000 A 
ATOM     12  C   UNL     1     110.310 132.080 136.623  0.00  0.00    +0.000 A 
ENDROOT
BRANCH  11  13
ATOM     13  C   UNL     1     109.134 131.598 135.904  0.00  0.00    +0.000 A 
ATOM     14  C   UNL     1     109.041 131.903 135.143  0.00  0.00    +0.000 A 
ATOM     15  C   UNL     1     108.471 131.432 136.367  0.00  0.00    +0.000 A 
ATOM     16  C   UNL     1     108.285 132.042 134.845  0.00  0.00    +0.000 A 
ATOM     17  C   UNL     1     107.715 131.571 136.068  0.00  0.00    +0.000 A 
ATOM     18  C   UNL     1     107.622 131.876 135.307  0.00  0.00    +0.000 A 
BRANCH  18  19
ATOM     19  O   UNL     1     106.865 132.015 135.008  0.00  0.00    +0.000 OA
ATOM     20  C   UNL     1     106.212 131.993 135.511  0.00  0.00    +0.000 C 
ENDBRANCH  18  19
ENDBRANCH  11  13
BRANCH   5  21
ATOM     21  O   UNL     1     111.003 129.223 135.902  0.00  0.00    +0.000 OA
ATOM     22  C   UNL     1     111.048 129.178 135.079  0.00  0.00    +0.000 C 
ENDBRANCH   5  21
BRANCH   6  23
ATOM     23  O   UNL     1     113.321 130.133 137.305  0.00  0.00    +0.000 OA
ATOM     24  C   UNL     1     113.948 130.622 137.089  0.00  0.00    +0.000 C 
ENDBRANCH   6  23
BRANCH  12  25
ATOM     25  O   UNL     1     109.959 132.819 136.731  0.00  0.00    +0.000 OA
ATOM     26  C   UNL     1     110.425 133.474 136.913  0.00  0.00    +0.000 C 
ENDBRANCH  12  25
BRANCH   4  27
ATOM     27  O   UNL     1     112.515 128.940 136.498  0.00  0.00    +0.000 OA
BRANCH  27  35
ATOM     28  O   UNL     1     111.960 128.493 137.736  0.00  0.00    +0.000 OA
ATOM     29  O   UNL     1     112.227 126.623 138.830  0.00  0.00    +0.000 OA
ATOM     30  O   UNL     1     113.339 127.518 136.354  0.00  0.00    +0.000 OA
ATOM     31  C   UNL     1     112.783 127.071 137.592  0.00  0.00    +0.000 C 
ATOM     32  C   UNL     1     112.300 127.202 138.247  0.00  0.00    +0.000 C 
ATOM     33  C   UNL     1     112.856 127.649 137.009  0.00  0.00    +0.000 C 
ATOM     34  C   UNL     1     111.888 127.914 138.319  0.00  0.00    +0.000 C 
ATOM     35  C   UNL     1     112.444 128.361 137.081  0.00  0.00    +0.000 C 
BRANCH  34  37
ATOM     36  O   UNL     1     110.584 128.050 138.887  0.00  0.00    +0.000 OA
ATOM     37  C   UNL     1     111.404 128.046 138.974  0.00  0.00    +0.000 C 
ENDBRANCH  34  37
BRANCH  31  38
ATOM     38  O   UNL     1     113.195 126.359 137.520  0.00  0.00    +0.000 OA
BRANCH  38  43
ATOM     39  O   UNL     1     112.102 125.788 136.797  0.00  0.00    +0.000 OA
ATOM     40  O   UNL     1     113.914 124.877 137.604  0.00  0.00    +0.000 OA
ATOM     41  O   UNL     1     113.181 123.564 136.924  0.00  0.00    +0.000 OA
ATOM     42  O   UNL     1     111.730 123.735 136.159  0.00  0.00    +0.000 OA
ATOM     43  C   UNL     1     112.829 125.703 137.180  0.00  0.00    +0.000 C 
ATOM     44  C   UNL     1     113.189 124.962 137.222  0.00  0.00    +0.000 C 
ATOM     45  C   UNL     1     112.822 124.306 136.882  0.00  0.00    +0.000 C 
ATOM     46  C   UNL     1     112.096 124.391 136.499  0.00  0.00    +0.000 C 
ATOM     47  C   UNL     1     111.737 125.132 136.457  0.00  0.00    +0.000 C 
BRANCH  47  49
ATOM     48  O   UNL     1     110.973 125.597 135.343  0.00  0.00    +0.000 OA
ATOM     49  C   UNL     1     111.011 125.218 136.075  0.00  0.00    +0.000 C 
ENDBRANCH  47  49
ENDBRANCH  38  43
ENDBRANCH  31  38
ENDBRANCH  27  35
ENDBRANCH   4  27
TORSDOF 11
ENDMDL
MODEL 2
REMARK VINA RESULT:      -9.0      6.060      7.685
REMARK  Name = 44260051
REMARK  11 active torsions:
REMARK  status: ('A' for Active; 'I' for Inactive)
REMARK    1  A    between atoms: O_1  and  C_19
REMARK    2  A    between atoms: O_1  and  C_22
REMARK    3  A    between atoms: O_6  and  C_27
REMARK    4  A    between atoms: O_6  and  C_31
REMARK    5  A    between atoms: O_12  and  C_32
REMARK    6  A    between atoms: O_13  and  C_33
REMARK    7  A    between atoms: O_16  and  C_39
REMARK    8  A    between atoms: O_18  and  C_48
REMARK    9  A    between atoms: C_23  and  C_29
REMARK   10  A    between atoms: C_28  and  C_30
REMARK   11  A    between atoms: C_38  and  C_42
REMARK                            x       y       z     vdW  Elec       q    Type
REMARK                         _______ _______ _______ _____ _____    ______ ____
ROOT
ATOM      1  O   UNL     1     111.300 131.810 145.296  0.00  0.00    +0.000 OA
ATOM      2  O   UNL     1     112.251 132.409 142.629  0.00  0.00    +0.000 OA
ATOM      3  O   UNL     1     111.991 133.497 143.539  0.00  0.00    +0.000 OA
ATOM      4  C   UNL     1     111.821 130.499 143.594  0.00  0.00    +0.000 A 
ATOM      5  C   UNL     1     111.576 130.752 144.340  0.00  0.00    +0.000 A 
ATOM      6  C   UNL     1     112.046 131.050 143.024  0.00  0.00    +0.000 A 
ATOM      7  C   UNL     1     111.556 131.558 144.516  0.00  0.00    +0.000 A 
ATOM      8  C   UNL     1     112.026 131.856 143.199  0.00  0.00    +0.000 A 
ATOM      9  C   UNL     1     111.781 132.110 143.945  0.00  0.00    +0.000 A 
ATOM     10  C   UNL     1     111.765 132.952 144.116  0.00  0.00    +0.000 A 
ATOM     11  C   UNL     1     111.277 132.648 145.485  0.00  0.00    +0.000 A 
ATOM     12  C   UNL     1     111.511 133.222 144.891  0.00  0.00    +0.000 A 
ENDROOT
BRANCH  11  13
ATOM     13  C   UNL     1     111.031 132.899 146.232  0.00  0.00    +0.000 A 
ATOM     14  C   UNL     1     111.582 132.982 146.840  0.00  0.00    +0.000 A 
ATOM     15  C   UNL     1     110.235 133.067 146.369  0.00  0.00    +0.000 A 
ATOM     16  C   UNL     1     111.336 133.233 147.586  0.00  0.00    +0.000 A 
ATOM     17  C   UNL     1     109.990 133.318 147.115  0.00  0.00    +0.000 A 
ATOM     18  C   UNL     1     110.540 133.401 147.724  0.00  0.00    +0.000 A 
BRANCH  18  19
ATOM     19  O   UNL     1     110.295 133.652 148.471  0.00  0.00    +0.000 OA
ATOM     20  C   UNL     1     110.813 133.610 149.112  0.00  0.00    +0.000 C 
ENDBRANCH  18  19
ENDBRANCH  11  13
BRANCH   5  21
ATOM     21  O   UNL     1     111.352 130.200 144.910  0.00  0.00    +0.000 OA
ATOM     22  C   UNL     1     111.903 129.926 145.460  0.00  0.00    +0.000 C 
ENDBRANCH   5  21
BRANCH   6  23
ATOM     23  O   UNL     1     112.291 130.797 142.278  0.00  0.00    +0.000 OA
ATOM     24  C   UNL     1     113.045 130.986 142.005  0.00  0.00    +0.000 C 
ENDBRANCH   6  23
BRANCH  12  25
ATOM     25  O   UNL     1     111.492 134.029 145.064  0.00  0.00    +0.000 OA
ATOM     26  C   UNL     1     111.872 134.566 144.566  0.00  0.00    +0.000 C 
ENDBRANCH  12  25
BRANCH   4  27
ATOM     27  O   UNL     1     111.841 129.693 143.418  0.00  0.00    +0.000 OA
BRANCH  27  35
ATOM     28  O   UNL     1     110.464 129.721 143.039  0.00  0.00    +0.000 OA
ATOM     29  O   UNL     1     109.240 128.251 141.989  0.00  0.00    +0.000 OA
ATOM     30  O   UNL     1     111.995 128.193 142.747  0.00  0.00    +0.000 OA
ATOM     31  C   UNL     1     110.617 128.222 142.368  0.00  0.00    +0.000 C 
ATOM     32  C   UNL     1     109.891 128.611 142.346  0.00  0.00    +0.000 C 
ATOM     33  C   UNL     1     111.268 128.582 142.725  0.00  0.00    +0.000 C 
ATOM     34  C   UNL     1     109.814 129.360 142.682  0.00  0.00    +0.000 C 
ATOM     35  C   UNL     1     111.191 129.332 143.061  0.00  0.00    +0.000 C 
BRANCH  34  37
ATOM     36  O   UNL     1     108.976 130.390 142.151  0.00  0.00    +0.000 OA
ATOM     37  C   UNL     1     109.086 129.750 142.660  0.00  0.00    +0.000 C 
ENDBRANCH  34  37
BRANCH  31  38
ATOM     38  O   UNL     1     110.694 127.472 142.032  0.00  0.00    +0.000 OA
BRANCH  38  43
ATOM     39  O   UNL     1     111.094 128.067 140.796  0.00  0.00    +0.000 OA
ATOM     40  O   UNL     1     110.823 125.974 141.354  0.00  0.00    +0.000 OA
ATOM     41  O   UNL     1     111.288 125.819 139.778  0.00  0.00    +0.000 OA
ATOM     42  O   UNL     1     111.623 127.162 138.882  0.00  0.00    +0.000 OA
ATOM     43  C   UNL     1     110.927 127.394 141.245  0.00  0.00    +0.000 C 
ATOM     44  C   UNL     1     110.991 126.645 140.905  0.00  0.00    +0.000 C 
ATOM     45  C   UNL     1     111.224 126.568 140.117  0.00  0.00    +0.000 C 
ATOM     46  C   UNL     1     111.391 127.239 139.669  0.00  0.00    +0.000 C 
ATOM     47  C   UNL     1     111.327 127.989 140.008  0.00  0.00    +0.000 C 
BRANCH  47  49
ATOM     48  O   UNL     1     110.882 129.164 139.327  0.00  0.00    +0.000 OA
ATOM     49  C   UNL     1     111.494 128.661 139.560  0.00  0.00    +0.000 C 
ENDBRANCH  47  49
ENDBRANCH  38  43
ENDBRANCH  31  38
ENDBRANCH  27  35
ENDBRANCH   4  27
TORSDOF 11
ENDMDL
MODEL 3
REMARK VINA RESULT:      -9.0      2.767      6.006
REMARK  Name = 44260051
REMARK  11 active torsions:
REMARK  status: ('A' for Active; 'I' for Inactive)
REMARK    1  A    between atoms: O_1  and  C_19
REMARK    2  A    between atoms: O_1  and  C_22
REMARK    3  A    between atoms: O_6  and  C_27
REMARK    4  A    between atoms: O_6  and  C_31
REMARK    5  A    between atoms: O_12  and  C_32
REMARK    6  A    between atoms: O_13  and  C_33
REMARK    7  A    between atoms: O_16  and  C_39
REMARK    8  A    between atoms: O_18  and  C_48
REMARK    9  A    between atoms: C_23  and  C_29
REMARK   10  A    between atoms: C_28  and  C_30
REMARK   11  A    between atoms: C_38  and  C_42
REMARK                            x       y       z     vdW  Elec       q    Type
REMARK                         _______ _______ _______ _____ _____    ______ ____
ROOT
ATOM      1  O   UNL     1     111.850 127.540 137.363  0.00  0.00    +0.000 OA
ATOM      2  O   UNL     1     111.404 130.123 136.136  0.00  0.00    +0.000 OA
ATOM      3  O   UNL     1     111.303 128.935 135.323  0.00  0.00    +0.000 OA
ATOM      4  C   UNL     1     111.897 129.589 138.194  0.00  0.00    +0.000 A 
ATOM      5  C   UNL     1     111.940 128.767 138.136  0.00  0.00    +0.000 A 
ATOM      6  C   UNL     1     111.719 130.041 137.528  0.00  0.00    +0.000 A 
ATOM      7  C   UNL     1     111.803 128.397 137.412  0.00  0.00    +0.000 A 
ATOM      8  C   UNL     1     111.583 129.671 136.803  0.00  0.00    +0.000 A 
ATOM      9  C   UNL     1     111.625 128.849 136.744  0.00  0.00    +0.000 A 
ATOM     10  C   UNL     1     111.481 128.476 135.984  0.00  0.00    +0.000 A 
ATOM     11  C   UNL     1     111.709 127.149 136.611  0.00  0.00    +0.000 A 
ATOM     12  C   UNL     1     111.523 127.620 135.918  0.00  0.00    +0.000 A 
ENDROOT
BRANCH  11  13
ATOM     13  C   UNL     1     111.751 126.327 136.556  0.00  0.00    +0.000 A 
ATOM     14  C   UNL     1     112.462 125.964 136.348  0.00  0.00    +0.000 A 
ATOM     15  C   UNL     1     111.082 125.868 136.710  0.00  0.00    +0.000 A 
ATOM     16  C   UNL     1     112.504 125.142 136.293  0.00  0.00    +0.000 A 
ATOM     17  C   UNL     1     111.125 125.046 136.654  0.00  0.00    +0.000 A 
ATOM     18  C   UNL     1     111.836 124.683 136.446  0.00  0.00    +0.000 A 
BRANCH  18  19
ATOM     19  O   UNL     1     111.879 123.861 136.391  0.00  0.00    +0.000 OA
ATOM     20  C   UNL     1     111.947 123.404 137.074  0.00  0.00    +0.000 C 
ENDBRANCH  18  19
ENDBRANCH  11  13
BRANCH   5  21
ATOM     21  O   UNL     1     112.118 128.315 138.802  0.00  0.00    +0.000 OA
ATOM     22  C   UNL     1     112.898 128.093 138.955  0.00  0.00    +0.000 C 
ENDBRANCH   5  21
BRANCH   6  23
ATOM     23  O   UNL     1     111.677 130.863 137.585  0.00  0.00    +0.000 OA
ATOM     24  C   UNL     1     112.152 131.335 137.105  0.00  0.00    +0.000 C 
ENDBRANCH   6  23
BRANCH  12  25
ATOM     25  O   UNL     1     111.386 127.253 135.192  0.00  0.00    +0.000 OA
ATOM     26  C   UNL     1     110.942 127.637 134.612  0.00  0.00    +0.000 C 
ENDBRANCH  12  25
BRANCH   4  27
ATOM     27  O   UNL     1     112.034 129.958 138.919  0.00  0.00    +0.000 OA
BRANCH  27  35
ATOM     28  O   UNL     1     110.641 129.879 139.227  0.00  0.00    +0.000 OA
ATOM     29  O   UNL     1     109.498 130.696 140.898  0.00  0.00    +0.000 OA
ATOM     30  O   UNL     1     112.285 130.854 140.281  0.00  0.00    +0.000 OA
ATOM     31  C   UNL     1     110.891 130.775 140.590  0.00  0.00    +0.000 C 
ATOM     32  C   UNL     1     110.133 130.512 140.403  0.00  0.00    +0.000 C 
ATOM     33  C   UNL     1     111.526 130.591 140.095  0.00  0.00    +0.000 C 
ATOM     34  C   UNL     1     110.007 130.064 139.722  0.00  0.00    +0.000 C 
ATOM     35  C   UNL     1     111.401 130.143 139.414  0.00  0.00    +0.000 C 
BRANCH  34  37
ATOM     36  O   UNL     1     109.055 129.003 139.619  0.00  0.00    +0.000 OA
ATOM     37  C   UNL     1     109.248 129.800 139.535  0.00  0.00    +0.000 C 
ENDBRANCH  34  37
BRANCH  31  38
ATOM     38  O   UNL     1     111.017 131.223 141.271  0.00  0.00    +0.000 OA
BRANCH  38  43
ATOM     39  O   UNL     1     111.267 130.030 142.017  0.00  0.00    +0.000 OA
ATOM     40  O   UNL     1     111.460 132.131 142.575  0.00  0.00    +0.000 OA
ATOM     41  O   UNL     1     111.931 131.392 143.973  0.00  0.00    +0.000 OA
ATOM     42  O   UNL     1     111.960 129.746 144.066  0.00  0.00    +0.000 OA
ATOM     43  C   UNL     1     111.253 130.854 141.970  0.00  0.00    +0.000 C 
ATOM     44  C   UNL     1     111.474 131.308 142.622  0.00  0.00    +0.000 C 
ATOM     45  C   UNL     1     111.710 130.938 143.321  0.00  0.00    +0.000 C 
ATOM     46  C   UNL     1     111.725 130.115 143.368  0.00  0.00    +0.000 C 
ATOM     47  C   UNL     1     111.503 129.661 142.716  0.00  0.00    +0.000 C 
BRANCH  47  49
ATOM     48  O   UNL     1     110.809 128.415 142.797  0.00  0.00    +0.000 OA
ATOM     49  C   UNL     1     111.517 128.838 142.762  0.00  0.00    +0.000 C 
ENDBRANCH  47  49
ENDBRANCH  38  43
ENDBRANCH  31  38
ENDBRANCH  27  35
ENDBRANCH   4  27
TORSDOF 11
ENDMDL
MODEL 4
REMARK VINA RESULT:      -8.8      3.066      6.280
REMARK  Name = 44260051
REMARK  11 active torsions:
REMARK  status: ('A' for Active; 'I' for Inactive)
REMARK    1  A    between atoms: O_1  and  C_19
REMARK    2  A    between atoms: O_1  and  C_22
REMARK    3  A    between atoms: O_6  and  C_27
REMARK    4  A    between atoms: O_6  and  C_31
REMARK    5  A    between atoms: O_12  and  C_32
REMARK    6  A    between atoms: O_13  and  C_33
REMARK    7  A    between atoms: O_16  and  C_39
REMARK    8  A    between atoms: O_18  and  C_48
REMARK    9  A    between atoms: C_23  and  C_29
REMARK   10  A    between atoms: C_28  and  C_30
REMARK   11  A    between atoms: C_38  and  C_42
REMARK                            x       y       z     vdW  Elec       q    Type
REMARK                         _______ _______ _______ _____ _____    ______ ____
ROOT
ATOM      1  O   UNL     1     112.792 127.778 137.769  0.00  0.00    +0.000 OA
ATOM      2  O   UNL     1     113.029 130.511 136.849  0.00  0.00    +0.000 OA
ATOM      3  O   UNL     1     113.512 129.445 136.006  0.00  0.00    +0.000 OA
ATOM      4  C   UNL     1     112.204 129.696 138.698  0.00  0.00    +0.000 A 
ATOM      5  C   UNL     1     112.321 128.888 138.579  0.00  0.00    +0.000 A 
ATOM      6  C   UNL     1     112.440 130.237 138.123  0.00  0.00    +0.000 A 
ATOM      7  C   UNL     1     112.674 128.621 137.883  0.00  0.00    +0.000 A 
ATOM      8  C   UNL     1     112.793 129.970 137.426  0.00  0.00    +0.000 A 
ATOM      9  C   UNL     1     112.910 129.163 137.306  0.00  0.00    +0.000 A 
ATOM     10  C   UNL     1     113.279 128.897 136.577  0.00  0.00    +0.000 A 
ATOM     11  C   UNL     1     113.159 127.493 137.047  0.00  0.00    +0.000 A 
ATOM     12  C   UNL     1     113.404 128.057 136.447  0.00  0.00    +0.000 A 
ENDROOT
BRANCH  11  13
ATOM     13  C   UNL     1     113.275 126.685 136.929  0.00  0.00    +0.000 A 
ATOM     14  C   UNL     1     112.710 126.241 136.524  0.00  0.00    +0.000 A 
ATOM     15  C   UNL     1     113.957 126.321 137.218  0.00  0.00    +0.000 A 
ATOM     16  C   UNL     1     112.827 125.434 136.407  0.00  0.00    +0.000 A 
ATOM     17  C   UNL     1     114.073 125.512 137.101  0.00  0.00    +0.000 A 
ATOM     18  C   UNL     1     113.508 125.069 136.696  0.00  0.00    +0.000 A 
BRANCH  18  19
ATOM     19  O   UNL     1     113.624 124.260 136.578  0.00  0.00    +0.000 OA
ATOM     20  C   UNL     1     113.017 123.727 136.745  0.00  0.00    +0.000 C 
ENDBRANCH  18  19
ENDBRANCH  11  13
BRANCH   5  21
ATOM     21  O   UNL     1     112.086 128.347 139.155  0.00  0.00    +0.000 OA
ATOM     22  C   UNL     1     111.349 127.979 139.100  0.00  0.00    +0.000 C 
ENDBRANCH   5  21
BRANCH   6  23
ATOM     23  O   UNL     1     112.323 131.045 138.242  0.00  0.00    +0.000 OA
ATOM     24  C   UNL     1     111.862 131.478 137.713  0.00  0.00    +0.000 C 
ENDBRANCH   6  23
BRANCH  12  25
ATOM     25  O   UNL     1     113.757 127.793 135.749  0.00  0.00    +0.000 OA
ATOM     26  C   UNL     1     114.271 128.288 135.334  0.00  0.00    +0.000 C 
ENDBRANCH  12  25
BRANCH   4  27
ATOM     27  O   UNL     1     111.851 129.963 139.395  0.00  0.00    +0.000 OA
BRANCH  27  35
ATOM     28  O   UNL     1     113.139 130.081 140.003  0.00  0.00    +0.000 OA
ATOM     29  O   UNL     1     113.723 130.776 141.988  0.00  0.00    +0.000 OA
ATOM     30  O   UNL     1     111.148 130.541 140.771  0.00  0.00    +0.000 OA
ATOM     31  C   UNL     1     112.436 130.659 141.379  0.00  0.00    +0.000 C 
ATOM     32  C   UNL     1     113.255 130.573 141.340  0.00  0.00    +0.000 C 
ATOM     33  C   UNL     1     111.967 130.455 140.731  0.00  0.00    +0.000 C 
ATOM     34  C   UNL     1     113.606 130.284 140.651  0.00  0.00    +0.000 C 
ATOM     35  C   UNL     1     112.319 130.166 140.043  0.00  0.00    +0.000 C 
BRANCH  34  37
ATOM     36  O   UNL     1     114.765 129.447 140.651  0.00  0.00    +0.000 OA
ATOM     37  C   UNL     1     114.427 130.199 140.611  0.00  0.00    +0.000 C 
ENDBRANCH  34  37
BRANCH  31  38
ATOM     38  O   UNL     1     112.084 130.947 142.068  0.00  0.00    +0.000 OA
BRANCH  38  43
ATOM     39  O   UNL     1     111.880 129.620 142.554  0.00  0.00    +0.000 OA
ATOM     40  O   UNL     1     111.790 131.546 143.577  0.00  0.00    +0.000 OA
ATOM     41  O   UNL     1     111.438 130.517 144.818  0.00  0.00    +0.000 OA
ATOM     42  O   UNL     1     111.381 128.891 144.550  0.00  0.00    +0.000 OA
ATOM     43  C   UNL     1     111.908 130.434 142.688  0.00  0.00    +0.000 C 
ATOM     44  C   UNL     1     111.761 130.733 143.443  0.00  0.00    +0.000 C 
ATOM     45  C   UNL     1     111.585 130.218 144.063  0.00  0.00    +0.000 C 
ATOM     46  C   UNL     1     111.557 129.405 143.930  0.00  0.00    +0.000 C 
ATOM     47  C   UNL     1     111.704 129.106 143.175  0.00  0.00    +0.000 C 
BRANCH  47  49
ATOM     48  O   UNL     1     111.031 127.963 142.643  0.00  0.00    +0.000 OA
ATOM     49  C   UNL     1     111.675 128.293 143.041  0.00  0.00    +0.000 C 
ENDBRANCH  47  49
ENDBRANCH  38  43
ENDBRANCH  31  38
ENDBRANCH  27  35
ENDBRANCH   4  27
TORSDOF 11
ENDMDL
MODEL 5
REMARK VINA RESULT:      -8.8      3.427      6.513
REMARK  Name = 44260051
REMARK  11 active torsions:
REMARK  status: ('A' for Active; 'I' for Inactive)
REMARK    1  A    between atoms: O_1  and  C_19
REMARK    2  A    between atoms: O_1  and  C_22
REMARK    3  A    between atoms: O_6  and  C_27
REMARK    4  A    between atoms: O_6  and  C_31
REMARK    5  A    between atoms: O_12  and  C_32
REMARK    6  A    between atoms: O_13  and  C_33
REMARK    7  A    between atoms: O_16  and  C_39
REMARK    8  A    between atoms: O_18  and  C_48
REMARK    9  A    between atoms: C_23  and  C_29
REMARK   10  A    between atoms: C_28  and  C_30
REMARK   11  A    between atoms: C_38  and  C_42
REMARK                            x       y       z     vdW  Elec       q    Type
REMARK                         _______ _______ _______ _____ _____    ______ ____
ROOT
ATOM      1  O   UNL     1     112.170 126.477 138.186  0.00  0.00    +0.000 OA
ATOM      2  O   UNL     1     114.776 126.294 139.432  0.00  0.00    +0.000 OA
ATOM      3  O   UNL     1     114.561 125.644 138.163  0.00  0.00    +0.000 OA
ATOM      4  C   UNL     1     112.949 127.294 140.087  0.00  0.00    +0.000 A 
ATOM      5  C   UNL     1     112.440 127.113 139.463  0.00  0.00    +0.000 A 
ATOM      6  C   UNL     1     113.727 127.022 140.077  0.00  0.00    +0.000 A 
ATOM      7  C   UNL     1     112.709 126.659 138.830  0.00  0.00    +0.000 A 
ATOM      8  C   UNL     1     113.997 126.568 139.443  0.00  0.00    +0.000 A 
ATOM      9  C   UNL     1     113.488 126.386 138.819  0.00  0.00    +0.000 A 
ATOM     10  C   UNL     1     113.781 125.913 138.165  0.00  0.00    +0.000 A 
ATOM     11  C   UNL     1     112.445 126.004 137.523  0.00  0.00    +0.000 A 
ATOM     12  C   UNL     1     113.255 125.721 137.512  0.00  0.00    +0.000 A 
ENDROOT
BRANCH  11  13
ATOM     13  C   UNL     1     111.934 125.825 136.901  0.00  0.00    +0.000 A 
ATOM     14  C   UNL     1     111.511 125.116 136.905  0.00  0.00    +0.000 A 
ATOM     15  C   UNL     1     111.846 126.354 136.273  0.00  0.00    +0.000 A 
ATOM     16  C   UNL     1     111.000 124.937 136.283  0.00  0.00    +0.000 A 
ATOM     17  C   UNL     1     111.335 126.175 135.651  0.00  0.00    +0.000 A 
ATOM     18  C   UNL     1     110.912 125.466 135.656  0.00  0.00    +0.000 A 
BRANCH  18  19
ATOM     19  O   UNL     1     110.401 125.286 135.034  0.00  0.00    +0.000 OA
ATOM     20  C   UNL     1     109.784 125.800 134.844  0.00  0.00    +0.000 C 
ENDBRANCH  18  19
ENDBRANCH  11  13
BRANCH   5  21
ATOM     21  O   UNL     1     111.662 127.386 139.474  0.00  0.00    +0.000 OA
ATOM     22  C   UNL     1     111.060 126.908 139.775  0.00  0.00    +0.000 C 
ENDBRANCH   5  21
BRANCH   6  23
ATOM     23  O   UNL     1     114.237 127.202 140.700  0.00  0.00    +0.000 OA
ATOM     24  C   UNL     1     114.596 126.597 141.129  0.00  0.00    +0.000 C 
ENDBRANCH   6  23
BRANCH  12  25
ATOM     25  O   UNL     1     113.528 125.266 136.880  0.00  0.00    +0.000 OA
ATOM     26  C   UNL     1     114.290 124.951 136.896  0.00  0.00    +0.000 C 
ENDBRANCH  12  25
BRANCH   4  27
ATOM     27  O   UNL     1     112.679 127.748 140.721  0.00  0.00    +0.000 OA
BRANCH  27  35
ATOM     28  O   UNL     1     113.100 128.940 140.054  0.00  0.00    +0.000 OA
ATOM     29  O   UNL     1     113.170 131.012 140.739  0.00  0.00    +0.000 OA
ATOM     30  O   UNL     1     112.328 128.627 142.072  0.00  0.00    +0.000 OA
ATOM     31  C   UNL     1     112.749 129.819 141.406  0.00  0.00    +0.000 C 
ATOM     32  C   UNL     1     113.047 130.196 140.735  0.00  0.00    +0.000 C 
ATOM     33  C   UNL     1     112.626 129.003 141.402  0.00  0.00    +0.000 C 
ATOM     34  C   UNL     1     113.223 129.756 140.060  0.00  0.00    +0.000 C 
ATOM     35  C   UNL     1     112.802 128.564 140.726  0.00  0.00    +0.000 C 
BRANCH  34  37
ATOM     36  O   UNL     1     113.042 130.233 138.724  0.00  0.00    +0.000 OA
ATOM     37  C   UNL     1     113.521 130.132 139.388  0.00  0.00    +0.000 C 
ENDBRANCH  34  37
BRANCH  31  38
ATOM     38  O   UNL     1     112.573 130.259 142.081  0.00  0.00    +0.000 OA
BRANCH  38  43
ATOM     39  O   UNL     1     111.224 130.407 141.634  0.00  0.00    +0.000 OA
ATOM     40  O   UNL     1     112.209 131.092 143.458  0.00  0.00    +0.000 OA
ATOM     41  O   UNL     1     110.677 131.657 143.700  0.00  0.00    +0.000 OA
ATOM     42  O   UNL     1     109.511 131.389 142.565  0.00  0.00    +0.000 OA
ATOM     43  C   UNL     1     111.808 130.542 142.203  0.00  0.00    +0.000 C 
ATOM     44  C   UNL     1     111.626 130.958 142.891  0.00  0.00    +0.000 C 
ATOM     45  C   UNL     1     110.860 131.240 143.011  0.00  0.00    +0.000 C 
ATOM     46  C   UNL     1     110.276 131.107 142.444  0.00  0.00    +0.000 C 
ATOM     47  C   UNL     1     110.459 130.690 141.756  0.00  0.00    +0.000 C 
BRANCH  47  49
ATOM     48  O   UNL     1     109.896 130.966 140.472  0.00  0.00    +0.000 OA
ATOM     49  C   UNL     1     109.876 130.556 141.188  0.00  0.00    +0.000 C 
ENDBRANCH  47  49
ENDBRANCH  38  43
ENDBRANCH  31  38
ENDBRANCH  27  35
ENDBRANCH   4  27
TORSDOF 11
ENDMDL
MODEL 6
REMARK VINA RESULT:      -8.8      3.261      7.282
REMARK  Name = 44260051
REMARK  11 active torsions:
REMARK  status: ('A' for Active; 'I' for Inactive)
REMARK    1  A    between atoms: O_1  and  C_19
REMARK    2  A    between atoms: O_1  and  C_22
REMARK    3  A    between atoms: O_6  and  C_27
REMARK    4  A    between atoms: O_6  and  C_31
REMARK    5  A    between atoms: O_12  and  C_32
REMARK    6  A    between atoms: O_13  and  C_33
REMARK    7  A    between atoms: O_16  and  C_39
REMARK    8  A    between atoms: O_18  and  C_48
REMARK    9  A    between atoms: C_23  and  C_29
REMARK   10  A    between atoms: C_28  and  C_30
REMARK   11  A    between atoms: C_38  and  C_42
REMARK                            x       y       z     vdW  Elec       q    Type
REMARK                         _______ _______ _______ _____ _____    ______ ____
ROOT
ATOM      1  O   UNL     1     113.361 126.404 138.697  0.00  0.00    +0.000 OA
ATOM      2  O   UNL     1     110.674 126.094 139.725  0.00  0.00    +0.000 OA
ATOM      3  O   UNL     1     111.072 125.332 138.566  0.00  0.00    +0.000 OA
ATOM      4  C   UNL     1     112.328 127.343 140.411  0.00  0.00    +0.000 A 
ATOM      5  C   UNL     1     112.911 127.147 139.860  0.00  0.00    +0.000 A 
ATOM      6  C   UNL     1     111.583 126.993 140.366  0.00  0.00    +0.000 A 
ATOM      7  C   UNL     1     112.747 126.600 139.265  0.00  0.00    +0.000 A 
ATOM      8  C   UNL     1     111.420 126.445 139.770  0.00  0.00    +0.000 A 
ATOM      9  C   UNL     1     112.001 126.249 139.219  0.00  0.00    +0.000 A 
ATOM     10  C   UNL     1     111.820 125.678 138.604  0.00  0.00    +0.000 A 
ATOM     11  C   UNL     1     113.198 125.835 138.074  0.00  0.00    +0.000 A 
ATOM     12  C   UNL     1     112.422 125.470 138.028  0.00  0.00    +0.000 A 
ENDROOT
BRANCH  11  13
ATOM     13  C   UNL     1     113.782 125.640 137.525  0.00  0.00    +0.000 A 
ATOM     14  C   UNL     1     114.271 124.989 137.656  0.00  0.00    +0.000 A 
ATOM     15  C   UNL     1     113.877 126.098 136.844  0.00  0.00    +0.000 A 
ATOM     16  C   UNL     1     114.855 124.795 137.106  0.00  0.00    +0.000 A 
ATOM     17  C   UNL     1     114.461 125.904 136.295  0.00  0.00    +0.000 A 
ATOM     18  C   UNL     1     114.950 125.253 136.426  0.00  0.00    +0.000 A 
BRANCH  18  19
ATOM     19  O   UNL     1     115.534 125.058 135.877  0.00  0.00    +0.000 OA
ATOM     20  C   UNL     1     115.623 125.508 135.191  0.00  0.00    +0.000 C 
ENDBRANCH  18  19
ENDBRANCH  11  13
BRANCH   5  21
ATOM     21  O   UNL     1     113.655 127.498 139.905  0.00  0.00    +0.000 OA
ATOM     22  C   UNL     1     114.266 127.121 140.313  0.00  0.00    +0.000 C 
ENDBRANCH   5  21
BRANCH   6  23
ATOM     23  O   UNL     1     111.000 127.188 140.916  0.00  0.00    +0.000 OA
ATOM     24  C   UNL     1     110.642 126.598 141.366  0.00  0.00    +0.000 C 
ENDBRANCH   6  23
BRANCH  12  25
ATOM     25  O   UNL     1     112.256 124.922 137.433  0.00  0.00    +0.000 OA
ATOM     26  C   UNL     1     111.553 124.491 137.454  0.00  0.00    +0.000 C 
ENDBRANCH  12  25
BRANCH   4  27
ATOM     27  O   UNL     1     112.491 127.890 141.006  0.00  0.00    +0.000 OA
BRANCH  27  35
ATOM     28  O   UNL     1     112.071 128.952 140.147  0.00  0.00    +0.000 OA
ATOM     29  O   UNL     1     111.897 131.098 140.508  0.00  0.00    +0.000 OA
ATOM     30  O   UNL     1     112.736 128.973 142.226  0.00  0.00    +0.000 OA
ATOM     31  C   UNL     1     112.316 130.036 141.367  0.00  0.00    +0.000 C 
ATOM     32  C   UNL     1     112.046 130.296 140.634  0.00  0.00    +0.000 C 
ATOM     33  C   UNL     1     112.465 129.234 141.493  0.00  0.00    +0.000 C 
ATOM     34  C   UNL     1     111.923 129.754 140.024  0.00  0.00    +0.000 C 
ATOM     35  C   UNL     1     112.343 128.692 140.883  0.00  0.00    +0.000 C 
BRANCH  34  37
ATOM     36  O   UNL     1     110.870 129.874 139.064  0.00  0.00    +0.000 OA
ATOM     37  C   UNL     1     111.652 130.014 139.288  0.00  0.00    +0.000 C 
ENDBRANCH  34  37
BRANCH  31  38
ATOM     38  O   UNL     1     112.439 130.577 141.977  0.00  0.00    +0.000 OA
BRANCH  38  43
ATOM     39  O   UNL     1     111.126 130.351 142.494  0.00  0.00    +0.000 OA
ATOM     40  O   UNL     1     112.537 131.980 142.841  0.00  0.00    +0.000 OA
ATOM     41  O   UNL     1     111.273 132.455 143.788  0.00  0.00    +0.000 OA
ATOM     42  O   UNL     1     109.911 131.528 143.873  0.00  0.00    +0.000 OA
ATOM     43  C   UNL     1     111.807 130.816 142.451  0.00  0.00    +0.000 C 
ATOM     44  C   UNL     1     111.856 131.517 142.883  0.00  0.00    +0.000 C 
ATOM     45  C   UNL     1     111.224 131.754 143.357  0.00  0.00    +0.000 C 
ATOM     46  C   UNL     1     110.543 131.291 143.399  0.00  0.00    +0.000 C 
ATOM     47  C   UNL     1     110.494 130.590 142.968  0.00  0.00    +0.000 C 
BRANCH  47  49
ATOM     48  O   UNL     1     109.835 129.396 143.396  0.00  0.00    +0.000 OA
ATOM     49  C   UNL     1     109.813 130.126 143.009  0.00  0.00    +0.000 C 
ENDBRANCH  47  49
ENDBRANCH  38  43
ENDBRANCH  31  38
ENDBRANCH  27  35
ENDBRANCH   4  27
TORSDOF 11
ENDMDL
MODEL 7
REMARK VINA RESULT:      -8.7      3.993      6.722
REMARK  Name = 44260051
REMARK  11 active torsions:
REMARK  status: ('A' for Active; 'I' for Inactive)
REMARK    1  A    between atoms: O_1  and  C_19
REMARK    2  A    between atoms: O_1  and  C_22
REMARK    3  A    between atoms: O_6  and  C_27
REMARK    4  A    between atoms: O_6  and  C_31
REMARK    5  A    between atoms: O_12  and  C_32
REMARK    6  A    between atoms: O_13  and  C_33
REMARK    7  A    between atoms: O_16  and  C_39
REMARK    8  A    between atoms: O_18  and  C_48
REMARK    9  A    between atoms: C_23  and  C_29
REMARK   10  A    between atoms: C_28  and  C_30
REMARK   11  A    between atoms: C_38  and  C_42
REMARK                            x       y       z     vdW  Elec       q    Type
REMARK                         _______ _______ _______ _____ _____    ______ ____
ROOT
ATOM      1  O   UNL     1     112.492 128.488 138.573  0.00  0.00    +0.000 OA
ATOM      2  O   UNL     1     114.048 130.851 139.186  0.00  0.00    +0.000 OA
ATOM      3  O   UNL     1     114.005 130.374 137.825  0.00  0.00    +0.000 OA
ATOM      4  C   UNL     1     112.844 129.563 140.473  0.00  0.00    +0.000 A 
ATOM      5  C   UNL     1     112.568 129.009 139.927  0.00  0.00    +0.000 A 
ATOM      6  C   UNL     1     113.337 130.176 140.227  0.00  0.00    +0.000 A 
ATOM      7  C   UNL     1     112.785 129.070 139.133  0.00  0.00    +0.000 A 
ATOM      8  C   UNL     1     113.554 130.236 139.433  0.00  0.00    +0.000 A 
ATOM      9  C   UNL     1     113.279 129.684 138.886  0.00  0.00    +0.000 A 
ATOM     10  C   UNL     1     113.512 129.758 138.063  0.00  0.00    +0.000 A 
ATOM     11  C   UNL     1     112.715 128.546 137.745  0.00  0.00    +0.000 A 
ATOM     12  C   UNL     1     113.228 129.185 137.489  0.00  0.00    +0.000 A 
ENDROOT
BRANCH  11  13
ATOM     13  C   UNL     1     112.437 127.991 137.201  0.00  0.00    +0.000 A 
ATOM     14  C   UNL     1     112.885 127.319 137.032  0.00  0.00    +0.000 A 
ATOM     15  C   UNL     1     111.712 128.109 136.826  0.00  0.00    +0.000 A 
ATOM     16  C   UNL     1     112.608 126.766 136.487  0.00  0.00    +0.000 A 
ATOM     17  C   UNL     1     111.434 127.555 136.281  0.00  0.00    +0.000 A 
ATOM     18  C   UNL     1     111.882 126.883 136.112  0.00  0.00    +0.000 A 
BRANCH  18  19
ATOM     19  O   UNL     1     111.605 126.329 135.568  0.00  0.00    +0.000 OA
ATOM     20  C   UNL     1     111.231 125.642 135.831  0.00  0.00    +0.000 C 
ENDBRANCH  18  19
ENDBRANCH  11  13
BRANCH   5  21
ATOM     21  O   UNL     1     112.075 128.396 140.174  0.00  0.00    +0.000 OA
ATOM     22  C   UNL     1     112.396 127.662 140.371  0.00  0.00    +0.000 C 
ENDBRANCH   5  21
BRANCH   6  23
ATOM     23  O   UNL     1     113.613 130.729 140.773  0.00  0.00    +0.000 OA
ATOM     24  C   UNL     1     114.424 130.832 140.883  0.00  0.00    +0.000 C 
ENDBRANCH   6  23
BRANCH  12  25
ATOM     25  O   UNL     1     113.447 129.248 136.696  0.00  0.00    +0.000 OA
ATOM     26  C   UNL     1     113.798 129.941 136.419  0.00  0.00    +0.000 C 
ENDBRANCH  12  25
BRANCH   4  27
ATOM     27  O   UNL     1     112.627 129.502 141.267  0.00  0.00    +0.000 OA
BRANCH  27  35
ATOM     28  O   UNL     1     111.444 130.261 141.011  0.00  0.00    +0.000 OA
ATOM     29  O   UNL     1     109.968 131.111 142.377  0.00  0.00    +0.000 OA
ATOM     30  O   UNL     1     112.335 129.593 142.888  0.00  0.00    +0.000 OA
ATOM     31  C   UNL     1     111.152 130.352 142.633  0.00  0.00    +0.000 C 
ATOM     32  C   UNL     1     110.633 130.708 142.100  0.00  0.00    +0.000 C 
ATOM     33  C   UNL     1     111.817 129.949 142.356  0.00  0.00    +0.000 C 
ATOM     34  C   UNL     1     110.779 130.663 141.289  0.00  0.00    +0.000 C 
ATOM     35  C   UNL     1     111.963 129.904 141.545  0.00  0.00    +0.000 C 
BRANCH  34  37
ATOM     36  O   UNL     1     110.460 131.740 140.404  0.00  0.00    +0.000 OA
ATOM     37  C   UNL     1     110.260 131.020 140.756  0.00  0.00    +0.000 C 
ENDBRANCH  34  37
BRANCH  31  38
ATOM     38  O   UNL     1     111.006 130.397 143.443  0.00  0.00    +0.000 OA
BRANCH  38  43
ATOM     39  O   UNL     1     111.722 131.631 143.532  0.00  0.00    +0.000 OA
ATOM     40  O   UNL     1     111.071 130.241 145.085  0.00  0.00    +0.000 OA
ATOM     41  O   UNL     1     111.819 131.396 145.994  0.00  0.00    +0.000 OA
ATOM     42  O   UNL     1     112.502 132.707 145.263  0.00  0.00    +0.000 OA
ATOM     43  C   UNL     1     111.380 130.974 143.899  0.00  0.00    +0.000 C 
ATOM     44  C   UNL     1     111.412 130.896 144.719  0.00  0.00    +0.000 C 
ATOM     45  C   UNL     1     111.787 131.474 145.174  0.00  0.00    +0.000 C 
ATOM     46  C   UNL     1     112.128 132.130 144.808  0.00  0.00    +0.000 C 
ATOM     47  C   UNL     1     112.096 132.208 143.988  0.00  0.00    +0.000 C 
BRANCH  47  49
ATOM     48  O   UNL     1     111.959 133.416 143.236  0.00  0.00    +0.000 OA
ATOM     49  C   UNL     1     112.437 132.863 143.621  0.00  0.00    +0.000 C 
ENDBRANCH  47  49
ENDBRANCH  38  43
ENDBRANCH  31  38
ENDBRANCH  27  35
ENDBRANCH   4  27
TORSDOF 11
ENDMDL
MODEL 8
REMARK VINA RESULT:      -8.7      1.488      6.054
REMARK  Name = 44260051
REMARK  11 active torsions:
REMARK  status: ('A' for Active; 'I' for Inactive)
REMARK    1  A    between atoms: O_1  and  C_19
REMARK    2  A    between atoms: O_1  and  C_22
REMARK    3  A    between atoms: O_6  and  C_27
REMARK    4  A    between atoms: O_6  and  C_31
REMARK    5  A    between atoms: O_12  and  C_32
REMARK    6  A    between atoms: O_13  and  C_33
REMARK    7  A    between atoms: O_16  and  C_39
REMARK    8  A    between atoms: O_18  and  C_48
REMARK    9  A    between atoms: C_23  and  C_29
REMARK   10  A    between atoms: C_28  and  C_30
REMARK   11  A    between atoms: C_38  and  C_42
REMARK                            x       y       z     vdW  Elec       q    Type
REMARK                         _______ _______ _______ _____ _____    ______ ____
ROOT
ATOM      1  O   UNL     1     112.309 127.608 137.715  0.00  0.00    +0.000 OA
ATOM      2  O   UNL     1     113.771 129.126 139.698  0.00  0.00    +0.000 OA
ATOM      3  O   UNL     1     113.828 127.685 139.737  0.00  0.00    +0.000 OA
ATOM      4  C   UNL     1     112.513 129.785 138.040  0.00  0.00    +0.000 A 
ATOM      5  C   UNL     1     112.285 129.060 137.719  0.00  0.00    +0.000 A 
ATOM      6  C   UNL     1     113.008 129.807 138.699  0.00  0.00    +0.000 A 
ATOM      7  C   UNL     1     112.552 128.357 138.057  0.00  0.00    +0.000 A 
ATOM      8  C   UNL     1     113.275 129.104 139.038  0.00  0.00    +0.000 A 
ATOM      9  C   UNL     1     113.048 128.379 138.717  0.00  0.00    +0.000 A 
ATOM     10  C   UNL     1     113.334 127.654 139.079  0.00  0.00    +0.000 A 
ATOM     11  C   UNL     1     112.584 126.872 138.062  0.00  0.00    +0.000 A 
ATOM     12  C   UNL     1     113.100 126.895 138.749  0.00  0.00    +0.000 A 
ENDROOT
BRANCH  11  13
ATOM     13  C   UNL     1     112.355 126.148 137.739  0.00  0.00    +0.000 A 
ATOM     14  C   UNL     1     111.674 125.772 138.012  0.00  0.00    +0.000 A 
ATOM     15  C   UNL     1     112.808 125.801 137.143  0.00  0.00    +0.000 A 
ATOM     16  C   UNL     1     111.445 125.048 137.689  0.00  0.00    +0.000 A 
ATOM     17  C   UNL     1     112.579 125.077 136.820  0.00  0.00    +0.000 A 
ATOM     18  C   UNL     1     111.898 124.701 137.093  0.00  0.00    +0.000 A 
BRANCH  18  19
ATOM     19  O   UNL     1     111.668 123.977 136.770  0.00  0.00    +0.000 OA
ATOM     20  C   UNL     1     112.086 123.291 136.956  0.00  0.00    +0.000 C 
ENDBRANCH  18  19
ENDBRANCH  11  13
BRANCH   5  21
ATOM     21  O   UNL     1     111.790 129.038 137.060  0.00  0.00    +0.000 OA
ATOM     22  C   UNL     1     112.109 128.931 136.307  0.00  0.00    +0.000 C 
ENDBRANCH   5  21
BRANCH   6  23
ATOM     23  O   UNL     1     113.236 130.532 139.021  0.00  0.00    +0.000 OA
ATOM     24  C   UNL     1     114.033 130.739 139.050  0.00  0.00    +0.000 C 
ENDBRANCH   6  23
BRANCH  12  25
ATOM     25  O   UNL     1     113.369 126.194 139.089  0.00  0.00    +0.000 OA
ATOM     26  C   UNL     1     114.082 126.184 139.504  0.00  0.00    +0.000 C 
ENDBRANCH  12  25
BRANCH   4  27
ATOM     27  O   UNL     1     112.245 130.488 137.702  0.00  0.00    +0.000 OA
BRANCH  27  35
ATOM     28  O   UNL     1     111.176 130.572 138.647  0.00  0.00    +0.000 OA
ATOM     29  O   UNL     1     109.356 131.777 138.642  0.00  0.00    +0.000 OA
ATOM     30  O   UNL     1     111.493 131.609 136.753  0.00  0.00    +0.000 OA
ATOM     31  C   UNL     1     110.425 131.693 137.697  0.00  0.00    +0.000 C 
ATOM     32  C   UNL     1     110.078 131.455 138.407  0.00  0.00    +0.000 C 
ATOM     33  C   UNL     1     111.147 131.371 137.462  0.00  0.00    +0.000 C 
ATOM     34  C   UNL     1     110.454 130.894 138.881  0.00  0.00    +0.000 C 
ATOM     35  C   UNL     1     111.523 130.811 137.936  0.00  0.00    +0.000 C 
BRANCH  34  37
ATOM     36  O   UNL     1     109.773 129.904 139.656  0.00  0.00    +0.000 OA
ATOM     37  C   UNL     1     110.107 130.656 139.592  0.00  0.00    +0.000 C 
ENDBRANCH  34  37
BRANCH  31  38
ATOM     38  O   UNL     1     110.049 132.253 137.223  0.00  0.00    +0.000 OA
BRANCH  38  43
ATOM     39  O   UNL     1     109.270 131.257 136.557  0.00  0.00    +0.000 OA
ATOM     40  O   UNL     1     109.831 133.276 135.946  0.00  0.00    +0.000 OA
ATOM     41  O   UNL     1     108.943 132.791 134.643  0.00  0.00    +0.000 OA
ATOM     42  O   UNL     1     108.273 131.284 134.616  0.00  0.00    +0.000 OA
ATOM     43  C   UNL     1     109.605 132.011 136.571  0.00  0.00    +0.000 C 
ATOM     44  C   UNL     1     109.496 132.523 135.933  0.00  0.00    +0.000 C 
ATOM     45  C   UNL     1     109.052 132.280 135.281  0.00  0.00    +0.000 C 
ATOM     46  C   UNL     1     108.717 131.527 135.267  0.00  0.00    +0.000 C 
ATOM     47  C   UNL     1     108.826 131.015 135.906  0.00  0.00    +0.000 C 
BRANCH  47  49
ATOM     48  O   UNL     1     107.808 130.106 136.330  0.00  0.00    +0.000 OA
ATOM     49  C   UNL     1     108.491 130.261 135.893  0.00  0.00    +0.000 C 
ENDBRANCH  47  49
ENDBRANCH  38  43
ENDBRANCH  31  38
ENDBRANCH  27  35
ENDBRANCH   4  27
TORSDOF 11
ENDMDL
MODEL 9
REMARK VINA RESULT:      -8.6      3.682      5.371
REMARK  Name = 44260051
REMARK  11 active torsions:
REMARK  status: ('A' for Active; 'I' for Inactive)
REMARK    1  A    between atoms: O_1  and  C_19
REMARK    2  A    between atoms: O_1  and  C_22
REMARK    3  A    between atoms: O_6  and  C_27
REMARK    4  A    between atoms: O_6  and  C_31
REMARK    5  A    between atoms: O_12  and  C_32
REMARK    6  A    between atoms: O_13  and  C_33
REMARK    7  A    between atoms: O_16  and  C_39
REMARK    8  A    between atoms: O_18  and  C_48
REMARK    9  A    between atoms: C_23  and  C_29
REMARK   10  A    between atoms: C_28  and  C_30
REMARK   11  A    between atoms: C_38  and  C_42
REMARK                            x       y       z     vdW  Elec       q    Type
REMARK                         _______ _______ _______ _____ _____    ______ ____
ROOT
ATOM      1  O   UNL     1     111.790 129.582 142.570  0.00  0.00    +0.000 OA
ATOM      2  O   UNL     1     113.846 131.213 141.350  0.00  0.00    +0.000 OA
ATOM      3  O   UNL     1     113.119 131.735 142.481  0.00  0.00    +0.000 OA
ATOM      4  C   UNL     1     113.135 129.210 140.855  0.00  0.00    +0.000 A 
ATOM      5  C   UNL     1     112.552 129.104 141.429  0.00  0.00    +0.000 A 
ATOM      6  C   UNL     1     113.566 129.912 140.828  0.00  0.00    +0.000 A 
ATOM      7  C   UNL     1     112.400 129.702 141.977  0.00  0.00    +0.000 A 
ATOM      8  C   UNL     1     113.414 130.510 141.376  0.00  0.00    +0.000 A 
ATOM      9  C   UNL     1     112.831 130.406 141.950  0.00  0.00    +0.000 A 
ATOM     10  C   UNL     1     112.683 131.035 142.515  0.00  0.00    +0.000 A 
ATOM     11  C   UNL     1     111.627 130.200 143.143  0.00  0.00    +0.000 A 
ATOM     12  C   UNL     1     112.076 130.932 143.115  0.00  0.00    +0.000 A 
ENDROOT
BRANCH  11  13
ATOM     13  C   UNL     1     111.044 130.093 143.716  0.00  0.00    +0.000 A 
ATOM     14  C   UNL     1     111.243 129.786 144.456  0.00  0.00    +0.000 A 
ATOM     15  C   UNL     1     110.260 130.292 143.549  0.00  0.00    +0.000 A 
ATOM     16  C   UNL     1     110.659 129.679 145.028  0.00  0.00    +0.000 A 
ATOM     17  C   UNL     1     109.676 130.184 144.122  0.00  0.00    +0.000 A 
ATOM     18  C   UNL     1     109.876 129.878 144.862  0.00  0.00    +0.000 A 
BRANCH  18  19
ATOM     19  O   UNL     1     109.292 129.770 145.435  0.00  0.00    +0.000 OA
ATOM     20  C   UNL     1     108.547 129.490 145.218  0.00  0.00    +0.000 C 
ENDBRANCH  18  19
ENDBRANCH  11  13
BRANCH   5  21
ATOM     21  O   UNL     1     112.121 128.402 141.455  0.00  0.00    +0.000 OA
ATOM     22  C   UNL     1     112.360 127.789 141.954  0.00  0.00    +0.000 C 
ENDBRANCH   5  21
BRANCH   6  23
ATOM     23  O   UNL     1     114.150 130.018 140.254  0.00  0.00    +0.000 OA
ATOM     24  C   UNL     1     114.916 130.224 140.477  0.00  0.00    +0.000 C 
ENDBRANCH   6  23
BRANCH  12  25
ATOM     25  O   UNL     1     111.927 131.531 143.662  0.00  0.00    +0.000 OA
ATOM     26  C   UNL     1     112.298 132.264 143.583  0.00  0.00    +0.000 C 
ENDBRANCH  12  25
BRANCH   4  27
ATOM     27  O   UNL     1     113.287 128.612 140.307  0.00  0.00    +0.000 OA
BRANCH  27  35
ATOM     28  O   UNL     1     112.327 129.182 139.416  0.00  0.00    +0.000 OA
ATOM     29  O   UNL     1     111.754 128.623 137.385  0.00  0.00    +0.000 OA
ATOM     30  O   UNL     1     113.675 127.483 139.168  0.00  0.00    +0.000 OA
ATOM     31  C   UNL     1     112.714 128.053 138.276  0.00  0.00    +0.000 C 
ATOM     32  C   UNL     1     112.138 128.620 138.115  0.00  0.00    +0.000 C 
ATOM     33  C   UNL     1     113.098 128.050 139.007  0.00  0.00    +0.000 C 
ATOM     34  C   UNL     1     111.944 129.184 138.685  0.00  0.00    +0.000 C 
ATOM     35  C   UNL     1     112.904 128.614 139.576  0.00  0.00    +0.000 C 
BRANCH  34  37
ATOM     36  O   UNL     1     110.623 129.695 138.877  0.00  0.00    +0.000 OA
ATOM     37  C   UNL     1     111.366 129.752 138.524  0.00  0.00    +0.000 C 
ENDBRANCH  34  37
BRANCH  31  38
ATOM     38  O   UNL     1     112.908 127.489 137.707  0.00  0.00    +0.000 OA
BRANCH  38  43
ATOM     39  O   UNL     1     111.888 126.626 138.214  0.00  0.00    +0.000 OA
ATOM     40  O   UNL     1     113.323 126.344 136.593  0.00  0.00    +0.000 OA
ATOM     41  O   UNL     1     112.510 124.909 136.543  0.00  0.00    +0.000 OA
ATOM     42  O   UNL     1     111.283 124.619 137.607  0.00  0.00    +0.000 OA
ATOM     43  C   UNL     1     112.502 126.771 137.681  0.00  0.00    +0.000 C 
ATOM     44  C   UNL     1     112.709 126.199 137.124  0.00  0.00    +0.000 C 
ATOM     45  C   UNL     1     112.302 125.481 137.100  0.00  0.00    +0.000 C 
ATOM     46  C   UNL     1     111.689 125.336 137.632  0.00  0.00    +0.000 C 
ATOM     47  C   UNL     1     111.482 125.908 138.188  0.00  0.00    +0.000 C 
BRANCH  47  49
ATOM     48  O   UNL     1     111.038 125.612 139.514  0.00  0.00    +0.000 OA
ATOM     49  C   UNL     1     110.868 125.764 138.721  0.00  0.00    +0.000 C 
ENDBRANCH  47  49
ENDBRANCH  38  43
ENDBRANCH  31  38
ENDBRANCH  27  35
ENDBRANCH   4  27
TORSDOF 11
ENDMDL
MODEL 10
REMARK VINA RESULT:      -8.6      6.104      7.942
REMARK  Name = 44260051
REMARK  11 active torsions:
REMARK  status: ('A' for Active; 'I' for Inactive)
REMARK    1  A    between atoms: O_1  and  C_19
REMARK    2  A    between atoms: O_1  and  C_22
REMARK    3  A    between atoms: O_6  and  C_27
REMARK    4  A    between atoms: O_6  and  C_31
REMARK    5  A    between atoms: O_12  and  C_32
REMARK    6  A    between atoms: O_13  and  C_33
REMARK    7  A    between atoms: O_16  and  C_39
REMARK    8  A    between atoms: O_18  and  C_48
REMARK    9  A    between atoms: C_23  and  C_29
REMARK   10  A    between atoms: C_28  and  C_30
REMARK   11  A    between atoms: C_38  and  C_42
REMARK                            x       y       z     vdW  Elec       q    Type
REMARK                         _______ _______ _______ _____ _____    ______ ____
ROOT
ATOM      1  O   UNL     1     110.821 131.620 144.705  0.00  0.00    +0.000 OA
ATOM      2  O   UNL     1     112.501 131.728 142.351  0.00  0.00    +0.000 OA
ATOM      3  O   UNL     1     112.514 132.839 143.271  0.00  0.00    +0.000 OA
ATOM      4  C   UNL     1     111.124 130.185 143.050  0.00  0.00    +0.000 A 
ATOM      5  C   UNL     1     110.845 130.528 143.747  0.00  0.00    +0.000 A 
ATOM      6  C   UNL     1     111.675 130.584 142.585  0.00  0.00    +0.000 A 
ATOM      7  C   UNL     1     111.118 131.272 143.978  0.00  0.00    +0.000 A 
ATOM      8  C   UNL     1     111.949 131.328 142.816  0.00  0.00    +0.000 A 
ATOM      9  C   UNL     1     111.670 131.672 143.513  0.00  0.00    +0.000 A 
ATOM     10  C   UNL     1     111.962 132.446 143.743  0.00  0.00    +0.000 A 
ATOM     11  C   UNL     1     111.101 132.393 144.952  0.00  0.00    +0.000 A 
ATOM     12  C   UNL     1     111.676 132.809 144.467  0.00  0.00    +0.000 A 
ENDROOT
BRANCH  11  13
ATOM     13  C   UNL     1     110.821 132.735 145.648  0.00  0.00    +0.000 A 
ATOM     14  C   UNL     1     110.086 133.109 145.658  0.00  0.00    +0.000 A 
ATOM     15  C   UNL     1     111.277 132.701 146.336  0.00  0.00    +0.000 A 
ATOM     16  C   UNL     1     109.807 133.450 146.355  0.00  0.00    +0.000 A 
ATOM     17  C   UNL     1     110.996 133.042 147.033  0.00  0.00    +0.000 A 
ATOM     18  C   UNL     1     110.261 133.417 147.042  0.00  0.00    +0.000 A 
BRANCH  18  19
ATOM     19  O   UNL     1     109.981 133.758 147.739  0.00  0.00    +0.000 OA
ATOM     20  C   UNL     1     109.191 133.665 147.956  0.00  0.00    +0.000 C 
ENDBRANCH  18  19
ENDBRANCH  11  13
BRANCH   5  21
ATOM     21  O   UNL     1     110.294 130.129 144.212  0.00  0.00    +0.000 OA
ATOM     22  C   UNL     1     110.544 129.691 144.865  0.00  0.00    +0.000 C 
ENDBRANCH   5  21
BRANCH   6  23
ATOM     23  O   UNL     1     111.955 130.241 141.888  0.00  0.00    +0.000 OA
ATOM     24  C   UNL     1     112.761 130.101 141.791  0.00  0.00    +0.000 C 
ENDBRANCH   6  23
BRANCH  12  25
ATOM     25  O   UNL     1     111.950 133.553 144.696  0.00  0.00    +0.000 OA
ATOM     26  C   UNL     1     112.150 134.113 144.124  0.00  0.00    +0.000 C 
ENDBRANCH  12  25
BRANCH   4  27
ATOM     27  O   UNL     1     110.851 129.442 142.819  0.00  0.00    +0.000 OA
BRANCH  27  35
ATOM     28  O   UNL     1     109.844 130.060 142.016  0.00  0.00    +0.000 OA
ATOM     29  O   UNL     1     108.241 129.193 140.816  0.00  0.00    +0.000 OA
ATOM     30  O   UNL     1     110.256 127.955 142.421  0.00  0.00    +0.000 OA
ATOM     31  C   UNL     1     109.248 128.574 141.618  0.00  0.00    +0.000 C 
ATOM     32  C   UNL     1     108.893 129.254 141.317  0.00  0.00    +0.000 C 
ATOM     33  C   UNL     1     109.901 128.636 142.119  0.00  0.00    +0.000 C 
ATOM     34  C   UNL     1     109.191 129.997 141.516  0.00  0.00    +0.000 C 
ATOM     35  C   UNL     1     110.199 129.379 142.318  0.00  0.00    +0.000 C 
BRANCH  34  37
ATOM     36  O   UNL     1     108.394 131.168 141.710  0.00  0.00    +0.000 OA
ATOM     37  C   UNL     1     108.836 130.679 141.214  0.00  0.00    +0.000 C 
ENDBRANCH  34  37
BRANCH  31  38
ATOM     38  O   UNL     1     108.950 127.831 141.419  0.00  0.00    +0.000 OA
BRANCH  38  43
ATOM     39  O   UNL     1     108.036 127.903 142.516  0.00  0.00    +0.000 OA
ATOM     40  O   UNL     1     108.384 126.327 141.046  0.00  0.00    +0.000 OA
ATOM     41  O   UNL     1     107.186 125.647 141.956  0.00  0.00    +0.000 OA
ATOM     42  O   UNL     1     106.557 126.471 143.238  0.00  0.00    +0.000 OA
ATOM     43  C   UNL     1     108.352 127.490 141.874  0.00  0.00    +0.000 C 
ATOM     44  C   UNL     1     108.069 126.738 141.687  0.00  0.00    +0.000 C 
ATOM     45  C   UNL     1     107.470 126.399 142.142  0.00  0.00    +0.000 C 
ATOM     46  C   UNL     1     107.155 126.811 142.783  0.00  0.00    +0.000 C 
ATOM     47  C   UNL     1     107.438 127.563 142.970  0.00  0.00    +0.000 C 
BRANCH  47  49
ATOM     48  O   UNL     1     107.555 128.038 144.312  0.00  0.00    +0.000 OA
ATOM     49  C   UNL     1     107.123 127.975 143.611  0.00  0.00    +0.000 C 
ENDBRANCH  47  49
ENDBRANCH  38  43
ENDBRANCH  31  38
ENDBRANCH  27  35
ENDBRANCH   4  27
TORSDOF 11
ENDMDL
