MODEL 1
REMARK VINA RESULT:      -8.2      0.000      0.000
REMARK  Name = dimefline
REMARK  4 active torsions:
REMARK  status: ('A' for Active; 'I' for Inactive)
REMARK    1  A    between atoms: C_1  and  N_2
REMARK    2  A    between atoms: C_1  and  C_3
REMARK    3  A    between atoms: C_7  and  O_10
REMARK    4  A    between atoms: C_14  and  C_18
REMARK                            x       y       z     vdW  Elec       q    Type
REMARK                         _______ _______ _______ _____ _____    ______ ____
ROOT
ATOM      1  C   UNL     1     111.570 127.354 135.691  0.00  0.00    +0.000 A 
ATOM      2  C   UNL     1     111.738 126.571 135.892  0.00  0.00    +0.000 A 
ATOM      3  C   UNL     1     110.839 127.540 135.356  0.00  0.00    +0.000 A 
ATOM      4  C   UNL     1     111.175 125.975 135.757  0.00  0.00    +0.000 A 
ATOM      5  O   UNL     1     112.468 126.386 136.227  0.00  0.00    +0.000 OA
ATOM      6  C   UNL     1     110.276 126.944 135.221  0.00  0.00    +0.000 A 
ATOM      7  C   UNL     1     111.342 125.193 135.958  0.00  0.00    +0.000 A 
ATOM      8  C   UNL     1     110.444 126.161 135.422  0.00  0.00    +0.000 A 
ATOM      9  C   UNL     1     112.636 125.603 136.428  0.00  0.00    +0.000 A 
ATOM     10  O   UNL     1     110.783 124.600 135.824  0.00  0.00    +0.000 OA
ATOM     11  C   UNL     1     112.073 125.007 136.293  0.00  0.00    +0.000 A 
ATOM     12  C   UNL     1     112.243 124.224 136.495  0.00  0.00    +0.000 C 
ENDROOT
BRANCH   9  13
ATOM     13  C   UNL     1     113.365 125.413 136.764  0.00  0.00    +0.000 A 
ATOM     14  C   UNL     1     114.003 125.216 136.279  0.00  0.00    +0.000 A 
ATOM     15  C   UNL     1     113.459 125.421 137.584  0.00  0.00    +0.000 A 
ATOM     16  C   UNL     1     114.734 125.025 136.614  0.00  0.00    +0.000 A 
ATOM     17  C   UNL     1     114.187 125.231 137.918  0.00  0.00    +0.000 A 
ATOM     18  C   UNL     1     114.825 125.033 137.433  0.00  0.00    +0.000 A 
ENDBRANCH   9  13
BRANCH   3  19
ATOM     19  O   UNL     1     110.668 128.321 135.154  0.00  0.00    +0.000 OA
ATOM     20  C   UNL     1     110.065 128.487 134.613  0.00  0.00    +0.000 C 
ENDBRANCH   3  19
BRANCH   1  21
ATOM     21  C   UNL     1     112.129 127.947 135.825  0.00  0.00    +0.000 C 
BRANCH  21  22
ATOM     22  N   UNL     1     112.080 128.413 136.504  0.00  0.00    +0.000 NA
ATOM     23  C   UNL     1     111.387 128.422 136.951  0.00  0.00    +0.000 C 
ATOM     24  C   UNL     1     112.725 128.872 136.736  0.00  0.00    +0.000 C 
ENDBRANCH  21  22
ENDBRANCH   1  21
TORSDOF 4
ENDMDL
MODEL 2
REMARK VINA RESULT:      -7.7     13.504     14.165
REMARK  Name = dimefline
REMARK  4 active torsions:
REMARK  status: ('A' for Active; 'I' for Inactive)
REMARK    1  A    between atoms: C_1  and  N_2
REMARK    2  A    between atoms: C_1  and  C_3
REMARK    3  A    between atoms: C_7  and  O_10
REMARK    4  A    between atoms: C_14  and  C_18
REMARK                            x       y       z     vdW  Elec       q    Type
REMARK                         _______ _______ _______ _____ _____    ______ ____
ROOT
ATOM      1  C   UNL     1     103.895 124.472 147.449  0.00  0.00    +0.000 A 
ATOM      2  C   UNL     1     104.355 124.893 147.990  0.00  0.00    +0.000 A 
ATOM      3  C   UNL     1     103.104 124.681 147.339  0.00  0.00    +0.000 A 
ATOM      4  C   UNL     1     104.025 125.523 148.419  0.00  0.00    +0.000 A 
ATOM      5  O   UNL     1     105.145 124.683 148.100  0.00  0.00    +0.000 OA
ATOM      6  C   UNL     1     102.774 125.311 147.769  0.00  0.00    +0.000 A 
ATOM      7  C   UNL     1     104.485 125.944 148.959  0.00  0.00    +0.000 A 
ATOM      8  C   UNL     1     103.234 125.733 148.309  0.00  0.00    +0.000 A 
ATOM      9  C   UNL     1     105.606 125.104 148.640  0.00  0.00    +0.000 A 
ATOM     10  O   UNL     1     104.157 126.570 149.386  0.00  0.00    +0.000 OA
ATOM     11  C   UNL     1     105.276 125.734 149.070  0.00  0.00    +0.000 A 
ATOM     12  C   UNL     1     105.738 126.155 149.610  0.00  0.00    +0.000 C 
ENDROOT
BRANCH   9  13
ATOM     13  C   UNL     1     106.397 124.898 148.753  0.00  0.00    +0.000 A 
ATOM     14  C   UNL     1     106.979 125.214 148.261  0.00  0.00    +0.000 A 
ATOM     15  C   UNL     1     106.606 124.376 149.358  0.00  0.00    +0.000 A 
ATOM     16  C   UNL     1     107.771 125.007 148.374  0.00  0.00    +0.000 A 
ATOM     17  C   UNL     1     107.396 124.171 149.470  0.00  0.00    +0.000 A 
ATOM     18  C   UNL     1     107.978 124.486 148.978  0.00  0.00    +0.000 A 
ENDBRANCH   9  13
BRANCH   3  19
ATOM     19  O   UNL     1     102.641 124.263 146.800  0.00  0.00    +0.000 OA
ATOM     20  C   UNL     1     101.817 124.281 146.860  0.00  0.00    +0.000 C 
ENDBRANCH   3  19
BRANCH   1  21
ATOM     21  C   UNL     1     104.223 123.846 147.023  0.00  0.00    +0.000 C 
BRANCH  21  22
ATOM     22  N   UNL     1     104.311 123.907 146.205  0.00  0.00    +0.000 NA
ATOM     23  C   UNL     1     104.027 123.309 145.713  0.00  0.00    +0.000 C 
ATOM     24  C   UNL     1     104.683 124.567 145.878  0.00  0.00    +0.000 C 
ENDBRANCH  21  22
ENDBRANCH   1  21
TORSDOF 4
ENDMDL
MODEL 3
REMARK VINA RESULT:      -7.7      1.231      3.451
REMARK  Name = dimefline
REMARK  4 active torsions:
REMARK  status: ('A' for Active; 'I' for Inactive)
REMARK    1  A    between atoms: C_1  and  N_2
REMARK    2  A    between atoms: C_1  and  C_3
REMARK    3  A    between atoms: C_7  and  O_10
REMARK    4  A    between atoms: C_14  and  C_18
REMARK                            x       y       z     vdW  Elec       q    Type
REMARK                         _______ _______ _______ _____ _____    ______ ____
ROOT
ATOM      1  C   UNL     1     112.576 125.159 136.869  0.00  0.00    +0.000 A 
ATOM      2  C   UNL     1     112.312 125.852 136.506  0.00  0.00    +0.000 A 
ATOM      3  C   UNL     1     112.168 124.453 136.739  0.00  0.00    +0.000 A 
ATOM      4  C   UNL     1     111.642 125.839 136.014  0.00  0.00    +0.000 A 
ATOM      5  O   UNL     1     112.720 126.557 136.635  0.00  0.00    +0.000 OA
ATOM      6  C   UNL     1     111.498 124.440 136.248  0.00  0.00    +0.000 A 
ATOM      7  C   UNL     1     111.379 126.531 135.652  0.00  0.00    +0.000 A 
ATOM      8  C   UNL     1     111.235 125.133 135.885  0.00  0.00    +0.000 A 
ATOM      9  C   UNL     1     112.456 127.251 136.273  0.00  0.00    +0.000 A 
ATOM     10  O   UNL     1     110.714 126.518 135.164  0.00  0.00    +0.000 OA
ATOM     11  C   UNL     1     111.786 127.238 135.781  0.00  0.00    +0.000 A 
ATOM     12  C   UNL     1     111.525 127.933 135.419  0.00  0.00    +0.000 C 
ENDROOT
BRANCH   9  13
ATOM     13  C   UNL     1     112.861 127.959 136.399  0.00  0.00    +0.000 A 
ATOM     14  C   UNL     1     112.678 128.426 137.054  0.00  0.00    +0.000 A 
ATOM     15  C   UNL     1     113.448 128.201 135.871  0.00  0.00    +0.000 A 
ATOM     16  C   UNL     1     113.083 129.135 137.182  0.00  0.00    +0.000 A 
ATOM     17  C   UNL     1     113.851 128.908 135.999  0.00  0.00    +0.000 A 
ATOM     18  C   UNL     1     113.668 129.375 136.654  0.00  0.00    +0.000 A 
ENDBRANCH   9  13
BRANCH   3  19
ATOM     19  O   UNL     1     112.428 123.759 137.100  0.00  0.00    +0.000 OA
ATOM     20  C   UNL     1     111.905 123.129 137.213  0.00  0.00    +0.000 C 
ENDBRANCH   3  19
BRANCH   1  21
ATOM     21  C   UNL     1     113.241 125.172 137.357  0.00  0.00    +0.000 C 
BRANCH  21  22
ATOM     22  N   UNL     1     113.972 124.928 137.063  0.00  0.00    +0.000 NA
ATOM     23  C   UNL     1     114.027 124.609 136.305  0.00  0.00    +0.000 C 
ATOM     24  C   UNL     1     114.649 125.004 137.528  0.00  0.00    +0.000 C 
ENDBRANCH  21  22
ENDBRANCH   1  21
TORSDOF 4
ENDMDL
MODEL 4
REMARK VINA RESULT:      -7.6      1.004      3.595
REMARK  Name = dimefline
REMARK  4 active torsions:
REMARK  status: ('A' for Active; 'I' for Inactive)
REMARK    1  A    between atoms: C_1  and  N_2
REMARK    2  A    between atoms: C_1  and  C_3
REMARK    3  A    between atoms: C_7  and  O_10
REMARK    4  A    between atoms: C_14  and  C_18
REMARK                            x       y       z     vdW  Elec       q    Type
REMARK                         _______ _______ _______ _____ _____    ______ ____
ROOT
ATOM      1  C   UNL     1     112.909 126.156 136.875  0.00  0.00    +0.000 A 
ATOM      2  C   UNL     1     112.212 126.025 136.452  0.00  0.00    +0.000 A 
ATOM      3  C   UNL     1     113.365 125.512 137.116  0.00  0.00    +0.000 A 
ATOM      4  C   UNL     1     111.972 125.250 136.271  0.00  0.00    +0.000 A 
ATOM      5  O   UNL     1     111.756 126.669 136.211  0.00  0.00    +0.000 OA
ATOM      6  C   UNL     1     113.125 124.738 136.935  0.00  0.00    +0.000 A 
ATOM      7  C   UNL     1     111.276 125.118 135.849  0.00  0.00    +0.000 A 
ATOM      8  C   UNL     1     112.429 124.606 136.512  0.00  0.00    +0.000 A 
ATOM      9  C   UNL     1     111.060 126.537 135.789  0.00  0.00    +0.000 A 
ATOM     10  O   UNL     1     111.038 124.349 135.669  0.00  0.00    +0.000 OA
ATOM     11  C   UNL     1     110.820 125.762 135.607  0.00  0.00    +0.000 A 
ATOM     12  C   UNL     1     110.122 125.634 135.184  0.00  0.00    +0.000 C 
ENDROOT
BRANCH   9  13
ATOM     13  C   UNL     1     110.600 127.178 135.546  0.00  0.00    +0.000 A 
ATOM     14  C   UNL     1     109.947 127.410 135.993  0.00  0.00    +0.000 A 
ATOM     15  C   UNL     1     110.793 127.588 134.855  0.00  0.00    +0.000 A 
ATOM     16  C   UNL     1     109.487 128.053 135.750  0.00  0.00    +0.000 A 
ATOM     17  C   UNL     1     110.334 128.228 134.613  0.00  0.00    +0.000 A 
ATOM     18  C   UNL     1     109.681 128.460 135.061  0.00  0.00    +0.000 A 
ENDBRANCH   9  13
BRANCH   3  19
ATOM     19  O   UNL     1     114.062 125.640 137.538  0.00  0.00    +0.000 OA
ATOM     20  C   UNL     1     114.646 125.055 137.561  0.00  0.00    +0.000 C 
ENDBRANCH   3  19
BRANCH   1  21
ATOM     21  C   UNL     1     113.147 126.925 137.055  0.00  0.00    +0.000 C 
BRANCH  21  22
ATOM     22  N   UNL     1     112.966 127.251 137.791  0.00  0.00    +0.000 NA
ATOM     23  C   UNL     1     112.755 126.761 138.419  0.00  0.00    +0.000 C 
ATOM     24  C   UNL     1     112.996 128.069 137.898  0.00  0.00    +0.000 C 
ENDBRANCH  21  22
ENDBRANCH   1  21
TORSDOF 4
ENDMDL
MODEL 5
REMARK VINA RESULT:      -7.5      9.969     11.700
REMARK  Name = dimefline
REMARK  4 active torsions:
REMARK  status: ('A' for Active; 'I' for Inactive)
REMARK    1  A    between atoms: C_1  and  N_2
REMARK    2  A    between atoms: C_1  and  C_3
REMARK    3  A    between atoms: C_7  and  O_10
REMARK    4  A    between atoms: C_14  and  C_18
REMARK                            x       y       z     vdW  Elec       q    Type
REMARK                         _______ _______ _______ _____ _____    ______ ____
ROOT
ATOM      1  C   UNL     1     104.238 129.357 142.893  0.00  0.00    +0.000 A 
ATOM      2  C   UNL     1     103.748 129.557 142.260  0.00  0.00    +0.000 A 
ATOM      3  C   UNL     1     104.707 128.679 142.846  0.00  0.00    +0.000 A 
ATOM      4  C   UNL     1     103.727 129.080 141.580  0.00  0.00    +0.000 A 
ATOM      5  O   UNL     1     103.280 130.234 142.308  0.00  0.00    +0.000 OA
ATOM      6  C   UNL     1     104.686 128.202 142.166  0.00  0.00    +0.000 A 
ATOM      7  C   UNL     1     103.238 129.280 140.946  0.00  0.00    +0.000 A 
ATOM      8  C   UNL     1     104.196 128.403 141.532  0.00  0.00    +0.000 A 
ATOM      9  C   UNL     1     102.790 130.434 141.674  0.00  0.00    +0.000 A 
ATOM     10  O   UNL     1     103.218 128.807 140.271  0.00  0.00    +0.000 OA
ATOM     11  C   UNL     1     102.769 129.958 140.994  0.00  0.00    +0.000 A 
ATOM     12  C   UNL     1     102.278 130.160 140.361  0.00  0.00    +0.000 C 
ENDROOT
BRANCH   9  13
ATOM     13  C   UNL     1     102.320 131.111 141.718  0.00  0.00    +0.000 A 
ATOM     14  C   UNL     1     101.564 131.067 142.046  0.00  0.00    +0.000 A 
ATOM     15  C   UNL     1     102.604 131.832 141.433  0.00  0.00    +0.000 A 
ATOM     16  C   UNL     1     101.093 131.744 142.090  0.00  0.00    +0.000 A 
ATOM     17  C   UNL     1     102.134 132.507 141.477  0.00  0.00    +0.000 A 
ATOM     18  C   UNL     1     101.378 132.463 141.805  0.00  0.00    +0.000 A 
ENDBRANCH   9  13
BRANCH   3  19
ATOM     19  O   UNL     1     105.197 128.476 143.477  0.00  0.00    +0.000 OA
ATOM     20  C   UNL     1     105.447 127.693 143.573  0.00  0.00    +0.000 C 
ENDBRANCH   3  19
BRANCH   1  21
ATOM     21  C   UNL     1     104.258 129.830 143.569  0.00  0.00    +0.000 C 
BRANCH  21  22
ATOM     22  N   UNL     1     104.853 130.395 143.658  0.00  0.00    +0.000 NA
ATOM     23  C   UNL     1     105.525 130.366 143.182  0.00  0.00    +0.000 C 
ATOM     24  C   UNL     1     104.774 130.990 144.224  0.00  0.00    +0.000 C 
ENDBRANCH  21  22
ENDBRANCH   1  21
TORSDOF 4
ENDMDL
MODEL 6
REMARK VINA RESULT:      -7.5     13.949     14.667
REMARK  Name = dimefline
REMARK  4 active torsions:
REMARK  status: ('A' for Active; 'I' for Inactive)
REMARK    1  A    between atoms: C_1  and  N_2
REMARK    2  A    between atoms: C_1  and  C_3
REMARK    3  A    between atoms: C_7  and  O_10
REMARK    4  A    between atoms: C_14  and  C_18
REMARK                            x       y       z     vdW  Elec       q    Type
REMARK                         _______ _______ _______ _____ _____    ______ ____
ROOT
ATOM      1  C   UNL     1     102.050 123.750 146.658  0.00  0.00    +0.000 A 
ATOM      2  C   UNL     1     102.840 123.967 146.764  0.00  0.00    +0.000 A 
ATOM      3  C   UNL     1     101.853 123.212 146.064  0.00  0.00    +0.000 A 
ATOM      4  C   UNL     1     103.431 123.646 146.277  0.00  0.00    +0.000 A 
ATOM      5  O   UNL     1     103.036 124.504 147.358  0.00  0.00    +0.000 OA
ATOM      6  C   UNL     1     102.445 122.891 145.577  0.00  0.00    +0.000 A 
ATOM      7  C   UNL     1     104.220 123.862 146.384  0.00  0.00    +0.000 A 
ATOM      8  C   UNL     1     103.235 123.107 145.683  0.00  0.00    +0.000 A 
ATOM      9  C   UNL     1     103.825 124.721 147.465  0.00  0.00    +0.000 A 
ATOM     10  O   UNL     1     104.808 123.543 145.900  0.00  0.00    +0.000 OA
ATOM     11  C   UNL     1     104.417 124.400 146.978  0.00  0.00    +0.000 A 
ATOM     12  C   UNL     1     105.206 124.618 147.086  0.00  0.00    +0.000 C 
ENDROOT
BRANCH   9  13
ATOM     13  C   UNL     1     104.026 125.259 148.058  0.00  0.00    +0.000 A 
ATOM     14  C   UNL     1     104.273 124.985 148.795  0.00  0.00    +0.000 A 
ATOM     15  C   UNL     1     103.980 126.071 147.914  0.00  0.00    +0.000 A 
ATOM     16  C   UNL     1     104.475 125.523 149.389  0.00  0.00    +0.000 A 
ATOM     17  C   UNL     1     104.181 126.607 148.506  0.00  0.00    +0.000 A 
ATOM     18  C   UNL     1     104.429 126.333 149.244  0.00  0.00    +0.000 A 
ENDBRANCH   9  13
BRANCH   3  19
ATOM     19  O   UNL     1     101.066 122.993 145.954  0.00  0.00    +0.000 OA
ATOM     20  C   UNL     1     100.804 122.742 145.211  0.00  0.00    +0.000 C 
ENDBRANCH   3  19
BRANCH   1  21
ATOM     21  C   UNL     1     101.463 124.069 147.141  0.00  0.00    +0.000 C 
BRANCH  21  22
ATOM     22  N   UNL     1     101.200 123.649 147.802  0.00  0.00    +0.000 NA
ATOM     23  C   UNL     1     101.362 122.844 147.871  0.00  0.00    +0.000 C 
ATOM     24  C   UNL     1     100.775 124.037 148.393  0.00  0.00    +0.000 C 
ENDBRANCH  21  22
ENDBRANCH   1  21
TORSDOF 4
ENDMDL
MODEL 7
REMARK VINA RESULT:      -7.5      2.544      3.364
REMARK  Name = dimefline
REMARK  4 active torsions:
REMARK  status: ('A' for Active; 'I' for Inactive)
REMARK    1  A    between atoms: C_1  and  N_2
REMARK    2  A    between atoms: C_1  and  C_3
REMARK    3  A    between atoms: C_7  and  O_10
REMARK    4  A    between atoms: C_14  and  C_18
REMARK                            x       y       z     vdW  Elec       q    Type
REMARK                         _______ _______ _______ _____ _____    ______ ____
ROOT
ATOM      1  C   UNL     1     112.465 126.588 139.715  0.00  0.00    +0.000 A 
ATOM      2  C   UNL     1     112.393 126.188 138.997  0.00  0.00    +0.000 A 
ATOM      3  C   UNL     1     111.790 126.738 140.166  0.00  0.00    +0.000 A 
ATOM      4  C   UNL     1     111.646 125.939 138.729  0.00  0.00    +0.000 A 
ATOM      5  O   UNL     1     113.067 126.038 138.547  0.00  0.00    +0.000 OA
ATOM      6  C   UNL     1     111.043 126.489 139.898  0.00  0.00    +0.000 A 
ATOM      7  C   UNL     1     111.574 125.539 138.011  0.00  0.00    +0.000 A 
ATOM      8  C   UNL     1     110.971 126.089 139.180  0.00  0.00    +0.000 A 
ATOM      9  C   UNL     1     112.995 125.638 137.829  0.00  0.00    +0.000 A 
ATOM     10  O   UNL     1     110.833 125.292 137.746  0.00  0.00    +0.000 OA
ATOM     11  C   UNL     1     112.249 125.388 137.561  0.00  0.00    +0.000 A 
ATOM     12  C   UNL     1     112.180 124.988 136.841  0.00  0.00    +0.000 C 
ENDROOT
BRANCH   9  13
ATOM     13  C   UNL     1     113.668 125.485 137.375  0.00  0.00    +0.000 A 
ATOM     14  C   UNL     1     114.131 124.822 137.536  0.00  0.00    +0.000 A 
ATOM     15  C   UNL     1     113.878 125.995 136.760  0.00  0.00    +0.000 A 
ATOM     16  C   UNL     1     114.805 124.669 137.082  0.00  0.00    +0.000 A 
ATOM     17  C   UNL     1     114.549 125.842 136.308  0.00  0.00    +0.000 A 
ATOM     18  C   UNL     1     115.012 125.179 136.469  0.00  0.00    +0.000 A 
ENDBRANCH   9  13
BRANCH   3  19
ATOM     19  O   UNL     1     111.858 127.137 140.884  0.00  0.00    +0.000 OA
ATOM     20  C   UNL     1     111.254 127.085 141.447  0.00  0.00    +0.000 C 
ENDBRANCH   3  19
BRANCH   1  21
ATOM     21  C   UNL     1     113.206 126.835 139.981  0.00  0.00    +0.000 C 
BRANCH  21  22
ATOM     22  N   UNL     1     113.388 127.639 140.002  0.00  0.00    +0.000 NA
ATOM     23  C   UNL     1     113.099 128.144 139.418  0.00  0.00    +0.000 C 
ATOM     24  C   UNL     1     113.862 127.939 140.607  0.00  0.00    +0.000 C 
ENDBRANCH  21  22
ENDBRANCH   1  21
TORSDOF 4
ENDMDL
MODEL 8
REMARK VINA RESULT:      -7.5      1.568      3.648
REMARK  Name = dimefline
REMARK  4 active torsions:
REMARK  status: ('A' for Active; 'I' for Inactive)
REMARK    1  A    between atoms: C_1  and  N_2
REMARK    2  A    between atoms: C_1  and  C_3
REMARK    3  A    between atoms: C_7  and  O_10
REMARK    4  A    between atoms: C_14  and  C_18
REMARK                            x       y       z     vdW  Elec       q    Type
REMARK                         _______ _______ _______ _____ _____    ______ ____
ROOT
ATOM      1  C   UNL     1     112.156 125.112 136.895  0.00  0.00    +0.000 A 
ATOM      2  C   UNL     1     112.769 125.639 136.726  0.00  0.00    +0.000 A 
ATOM      3  C   UNL     1     112.308 124.300 136.899  0.00  0.00    +0.000 A 
ATOM      4  C   UNL     1     113.532 125.355 136.561  0.00  0.00    +0.000 A 
ATOM      5  O   UNL     1     112.617 126.449 136.722  0.00  0.00    +0.000 OA
ATOM      6  C   UNL     1     113.071 124.016 136.734  0.00  0.00    +0.000 A 
ATOM      7  C   UNL     1     114.144 125.881 136.392  0.00  0.00    +0.000 A 
ATOM      8  C   UNL     1     113.684 124.543 136.565  0.00  0.00    +0.000 A 
ATOM      9  C   UNL     1     113.229 126.976 136.553  0.00  0.00    +0.000 A 
ATOM     10  O   UNL     1     114.902 125.599 136.228  0.00  0.00    +0.000 OA
ATOM     11  C   UNL     1     113.992 126.692 136.388  0.00  0.00    +0.000 A 
ATOM     12  C   UNL     1     114.604 127.222 136.219  0.00  0.00    +0.000 C 
ENDROOT
BRANCH   9  13
ATOM     13  C   UNL     1     113.082 127.788 136.548  0.00  0.00    +0.000 A 
ATOM     14  C   UNL     1     113.105 128.215 137.253  0.00  0.00    +0.000 A 
ATOM     15  C   UNL     1     112.910 128.174 135.838  0.00  0.00    +0.000 A 
ATOM     16  C   UNL     1     112.958 129.029 137.249  0.00  0.00    +0.000 A 
ATOM     17  C   UNL     1     112.763 128.984 135.834  0.00  0.00    +0.000 A 
ATOM     18  C   UNL     1     112.787 129.412 136.539  0.00  0.00    +0.000 A 
ENDBRANCH   9  13
BRANCH   3  19
ATOM     19  O   UNL     1     111.699 123.771 137.067  0.00  0.00    +0.000 OA
ATOM     20  C   UNL     1     111.874 123.005 137.326  0.00  0.00    +0.000 C 
ENDBRANCH   3  19
BRANCH   1  21
ATOM     21  C   UNL     1     111.399 125.394 137.059  0.00  0.00    +0.000 C 
BRANCH  21  22
ATOM     22  N   UNL     1     110.840 125.450 136.454  0.00  0.00    +0.000 NA
ATOM     23  C   UNL     1     110.935 125.012 135.762  0.00  0.00    +0.000 C 
ATOM     24  C   UNL     1     110.186 125.945 136.542  0.00  0.00    +0.000 C 
ENDBRANCH  21  22
ENDBRANCH   1  21
TORSDOF 4
ENDMDL
MODEL 9
REMARK VINA RESULT:      -7.4      1.204      2.390
REMARK  Name = dimefline
REMARK  4 active torsions:
REMARK  status: ('A' for Active; 'I' for Inactive)
REMARK    1  A    between atoms: C_1  and  N_2
REMARK    2  A    between atoms: C_1  and  C_3
REMARK    3  A    between atoms: C_7  and  O_10
REMARK    4  A    between atoms: C_14  and  C_18
REMARK                            x       y       z     vdW  Elec       q    Type
REMARK                         _______ _______ _______ _____ _____    ______ ____
ROOT
ATOM      1  C   UNL     1     111.095 127.097 135.905  0.00  0.00    +0.000 A 
ATOM      2  C   UNL     1     111.899 127.242 136.021  0.00  0.00    +0.000 A 
ATOM      3  C   UNL     1     110.618 127.689 135.581  0.00  0.00    +0.000 A 
ATOM      4  C   UNL     1     112.227 127.978 135.815  0.00  0.00    +0.000 A 
ATOM      5  O   UNL     1     112.375 126.651 136.344  0.00  0.00    +0.000 OA
ATOM      6  C   UNL     1     110.946 128.424 135.375  0.00  0.00    +0.000 A 
ATOM      7  C   UNL     1     113.030 128.123 135.931  0.00  0.00    +0.000 A 
ATOM      8  C   UNL     1     111.750 128.569 135.492  0.00  0.00    +0.000 A 
ATOM      9  C   UNL     1     113.179 126.796 136.461  0.00  0.00    +0.000 A 
ATOM     10  O   UNL     1     113.355 128.853 135.727  0.00  0.00    +0.000 OA
ATOM     11  C   UNL     1     113.506 127.531 136.255  0.00  0.00    +0.000 A 
ATOM     12  C   UNL     1     114.312 127.673 136.373  0.00  0.00    +0.000 C 
ENDROOT
BRANCH   9  13
ATOM     13  C   UNL     1     113.659 126.207 136.784  0.00  0.00    +0.000 A 
ATOM     14  C   UNL     1     113.688 126.102 137.601  0.00  0.00    +0.000 A 
ATOM     15  C   UNL     1     114.111 125.723 136.290  0.00  0.00    +0.000 A 
ATOM     16  C   UNL     1     114.168 125.512 137.925  0.00  0.00    +0.000 A 
ATOM     17  C   UNL     1     114.589 125.136 136.613  0.00  0.00    +0.000 A 
ATOM     18  C   UNL     1     114.618 125.030 137.431  0.00  0.00    +0.000 A 
ENDBRANCH   9  13
BRANCH   3  19
ATOM     19  O   UNL     1     109.815 127.548 135.463  0.00  0.00    +0.000 OA
ATOM     20  C   UNL     1     109.280 128.179 135.451  0.00  0.00    +0.000 C 
ENDBRANCH   3  19
BRANCH   1  21
ATOM     21  C   UNL     1     110.770 126.367 136.109  0.00  0.00    +0.000 C 
BRANCH  21  22
ATOM     22  N   UNL     1     110.687 125.778 135.537  0.00  0.00    +0.000 NA
ATOM     23  C   UNL     1     110.541 125.983 134.752  0.00  0.00    +0.000 C 
ATOM     24  C   UNL     1     110.750 124.984 135.751  0.00  0.00    +0.000 C 
ENDBRANCH  21  22
ENDBRANCH   1  21
TORSDOF 4
ENDMDL
MODEL 10
REMARK VINA RESULT:      -7.3      1.720      2.851
REMARK  Name = dimefline
REMARK  4 active torsions:
REMARK  status: ('A' for Active; 'I' for Inactive)
REMARK    1  A    between atoms: C_1  and  N_2
REMARK    2  A    between atoms: C_1  and  C_3
REMARK    3  A    between atoms: C_7  and  O_10
REMARK    4  A    between atoms: C_14  and  C_18
REMARK                            x       y       z     vdW  Elec       q    Type
REMARK                         _______ _______ _______ _____ _____    ______ ____
ROOT
ATOM      1  C   UNL     1     113.192 128.742 136.726  0.00  0.00    +0.000 A 
ATOM      2  C   UNL     1     113.211 128.095 137.239  0.00  0.00    +0.000 A 
ATOM      3  C   UNL     1     113.042 129.495 137.028  0.00  0.00    +0.000 A 
ATOM      4  C   UNL     1     113.081 128.201 138.052  0.00  0.00    +0.000 A 
ATOM      5  O   UNL     1     113.360 127.343 136.936  0.00  0.00    +0.000 OA
ATOM      6  C   UNL     1     112.912 129.602 137.842  0.00  0.00    +0.000 A 
ATOM      7  C   UNL     1     113.100 127.556 138.565  0.00  0.00    +0.000 A 
ATOM      8  C   UNL     1     112.932 128.955 138.355  0.00  0.00    +0.000 A 
ATOM      9  C   UNL     1     113.380 126.696 137.449  0.00  0.00    +0.000 A 
ATOM     10  O   UNL     1     112.971 127.661 139.373  0.00  0.00    +0.000 OA
ATOM     11  C   UNL     1     113.250 126.802 138.262  0.00  0.00    +0.000 A 
ATOM     12  C   UNL     1     113.270 126.153 138.773  0.00  0.00    +0.000 C 
ENDROOT
BRANCH   9  13
ATOM     13  C   UNL     1     113.529 125.941 137.150  0.00  0.00    +0.000 A 
ATOM     14  C   UNL     1     114.306 125.674 137.075  0.00  0.00    +0.000 A 
ATOM     15  C   UNL     1     112.902 125.452 136.927  0.00  0.00    +0.000 A 
ATOM     16  C   UNL     1     114.456 124.918 136.777  0.00  0.00    +0.000 A 
ATOM     17  C   UNL     1     113.051 124.699 136.630  0.00  0.00    +0.000 A 
ATOM     18  C   UNL     1     113.828 124.432 136.554  0.00  0.00    +0.000 A 
ENDBRANCH   9  13
BRANCH   3  19
ATOM     19  O   UNL     1     113.022 130.144 136.520  0.00  0.00    +0.000 OA
ATOM     20  C   UNL     1     113.113 130.909 136.819  0.00  0.00    +0.000 C 
ENDBRANCH   3  19
BRANCH   1  21
ATOM     21  C   UNL     1     113.321 128.636 135.918  0.00  0.00    +0.000 C 
BRANCH  21  22
ATOM     22  N   UNL     1     112.704 128.757 135.383  0.00  0.00    +0.000 NA
ATOM     23  C   UNL     1     111.946 128.483 135.558  0.00  0.00    +0.000 C 
ATOM     24  C   UNL     1     112.847 129.152 134.673  0.00  0.00    +0.000 C 
ENDBRANCH  21  22
ENDBRANCH   1  21
TORSDOF 4
ENDMDL
